REMARK  Name = ZINC09744778
REMARK  5 active torsions:
REMARK  status: ('A' for Active; 'I' for Inactive)
REMARK    1  A    between atoms: C_6  and  C_7
REMARK    2  A    between atoms: C_13  and  C_15
REMARK    3  A    between atoms: C_15  and  N_60
REMARK    4  A    between atoms: N_18  and  C_21
REMARK    5  A    between atoms: C_24  and  C_26
REMARK                            x       y       z     vdW  Elec       q    Type
REMARK                         _______ _______ _______ _____ _____    ______ ____
ROOT
ATOM      1  C   UNL     1       2.143  -1.387   2.978  0.00  0.00    +0.019 C 
ENDROOT
BRANCH   1   7
ATOM      2  C   UNL     1       2.489   1.044  -0.017  0.00  0.00    +0.106 C 
ATOM      3  C   UNL     1       2.783   0.528  -1.442  0.00  0.00    +0.029 C 
ATOM      4  C   UNL     1       3.418  -0.864  -1.183  0.00  0.00    +0.021 C 
ATOM      5  C   UNL     1       2.622  -1.344   0.055  0.00  0.00    +0.108 C 
ATOM      6  N   UNL     1       2.415  -0.130   0.865  0.00  0.00    -0.296 N 
ATOM      7  C   UNL     1       2.194  -0.101   2.195  0.00  0.00    +0.199 C 
ATOM      8  O   UNL     1       2.036   0.961   2.760  0.00  0.00    -0.278 OA
BRANCH   2  14
ATOM      9  C   UNL     1      -0.013   1.076   0.008  0.00  0.00    +0.009 A 
ATOM     10  C   UNL     1      -1.220   1.750   0.017  0.00  0.00    +0.050 A 
ATOM     11  C   UNL     1      -1.241   3.136   0.030  0.00  0.00    +0.162 A 
ATOM     12  C   UNL     1      -0.046   3.846   0.024  0.00  0.00    +0.162 A 
ATOM     13  C   UNL     1       1.161   3.164   0.008  0.00  0.00    +0.055 A 
ATOM     14  C   UNL     1       1.175   1.782   0.000  0.00  0.00    -0.023 A 
ATOM     15  O   UNL     1      -0.045   5.207   0.039  0.00  0.00    -0.485 OA
ATOM     16  C   UNL     1      -1.269   5.856  -0.321  0.00  0.00    +0.270 C 
ATOM     17  C   UNL     1      -2.418   5.164   0.425  0.00  0.00    +0.270 C 
ATOM     18  O   UNL     1      -2.438   3.785   0.038  0.00  0.00    -0.485 OA
ENDBRANCH   2  14
ENDBRANCH   1   7
BRANCH   1  24
ATOM     19  C   UNL     1       3.023  -0.364   4.989  0.00  0.00    -0.059 C 
ATOM     20  C   UNL     1       2.689  -0.002   6.438  0.00  0.00    +0.088 C 
ATOM     21  N   UNL     1       2.397  -1.229   7.192  0.00  0.00    -0.320 N 
ATOM     22  C   UNL     1       1.265  -1.952   6.598  0.00  0.00    +0.088 C 
ATOM     23  C   UNL     1       1.599  -2.314   5.149  0.00  0.00    -0.059 C 
ATOM     24  N   UNL     1       1.868  -1.071   4.397  0.00  0.00    +0.387 N 
ATOM     25  H   UNL     1       1.042  -0.463   4.449  0.00  0.00    -0.081 HD
BRANCH  21  26
ATOM     26  C   UNL     1       2.159  -0.946   8.532  0.00  0.00    +0.099 A 
ATOM     27  C   UNL     1       3.118  -0.262   9.274  0.00  0.00    +0.042 A 
ATOM     28  C   UNL     1       2.868   0.013  10.606  0.00  0.00    +0.017 A 
ATOM     29  C   UNL     1       1.662  -0.406  11.154  0.00  0.00    +0.071 A 
ATOM     30  C   UNL     1       0.756  -1.079  10.360  0.00  0.00    +0.096 A 
ATOM     31  N   UNL     1       0.966  -1.362   9.046  0.00  0.00    -0.349 N 
ATOM     32  H   UNL     1       0.270  -1.857   8.477  0.00  0.00    +0.167 HD
BRANCH  29  33
ATOM     33  C   UNL     1       1.347  -0.128  12.601  0.00  0.00    +0.419 C 
ATOM     34  F   UNL     1       0.696   1.105  12.708  0.00  0.00    -0.166 F 
ATOM     35  F   UNL     1       0.518  -1.138  13.100  0.00  0.00    -0.166 F 
ATOM     36  F   UNL     1       2.535  -0.094  13.339  0.00  0.00    -0.166 F 
ENDBRANCH  29  33
ENDBRANCH  21  26
ENDBRANCH   1  24
TORSDOF 5
