REMARK  Name = ZINC29403194
REMARK  5 active torsions:
REMARK  status: ('A' for Active; 'I' for Inactive)
REMARK    1  A    between atoms: C_5  and  S_7
REMARK    2  A    between atoms: S_7  and  N_10
REMARK    3  A    between atoms: N_10  and  C_11
REMARK    4  A    between atoms: C_14  and  C_17
REMARK    5  A    between atoms: N_21  and  C_22
REMARK                            x       y       z     vdW  Elec       q    Type
REMARK                         _______ _______ _______ _____ _____    ______ ____
ROOT
ATOM      1  C   UNL     1      -2.532   0.870   2.743  0.00  0.00    +0.048 A 
ATOM      2  C   UNL     1      -1.720   1.868   2.216  0.00  0.00    +0.025 A 
ATOM      3  C   UNL     1      -2.197   3.155   2.096  0.00  0.00    +0.013 A 
ATOM      4  C   UNL     1      -3.493   3.459   2.515  0.00  0.00    +0.021 A 
ATOM      5  C   UNL     1      -4.305   2.456   3.049  0.00  0.00    +0.013 A 
ATOM      6  C   UNL     1      -3.824   1.170   3.161  0.00  0.00    +0.025 A 
ENDROOT
BRANCH   4   7
ATOM      7  C   UNL     1      -4.006   4.841   2.394  0.00  0.00    +0.182 A 
ATOM      8  N   UNL     1      -3.286   5.933   2.243  0.00  0.00    -0.108 NA
ATOM      9  N   UNL     1      -4.045   6.965   2.167  0.00  0.00    -0.023 NA
ATOM     10  N   UNL     1      -5.283   6.621   2.271  0.00  0.00    -0.043 NA
ATOM     11  N   UNL     1      -5.307   5.224   2.423  0.00  0.00    -0.222 N 
BRANCH  11  12
ATOM     12  C   UNL     1      -6.484   4.366   2.580  0.00  0.00    +0.111 C 
ATOM     13  C   UNL     1      -7.857   5.039   2.555  0.00  0.00    +0.029 C 
ATOM     14  C   UNL     1      -7.291   4.504   3.873  0.00  0.00    +0.029 C 
ENDBRANCH  11  12
ENDBRANCH   4   7
BRANCH   1  15
ATOM     15  N   UNL     1      -2.049  -0.433   2.858  0.00  0.00    -0.216 N 
ATOM     16  H   UNL     1      -2.204  -0.997   3.789  0.00  0.00    +0.174 HD
BRANCH  15  17
ATOM     17  S   UNL     1      -1.240  -1.130   1.593  0.00  0.00    +0.074 S 
ATOM     18  O   UNL     1      -0.971  -2.473   1.973  0.00  0.00    -0.150 OA
ATOM     19  O   UNL     1      -0.210  -0.224   1.220  0.00  0.00    -0.150 OA
BRANCH  17  24
ATOM     20  C   UNL     1      -2.984  -0.539  -1.978  0.00  0.00    +0.002 A 
ATOM     21  C   UNL     1      -4.120  -1.324  -1.895  0.00  0.00    +0.002 A 
ATOM     22  C   UNL     1      -4.376  -2.049  -0.747  0.00  0.00    +0.022 A 
ATOM     23  C   UNL     1      -3.497  -1.990   0.319  0.00  0.00    +0.068 A 
ATOM     24  C   UNL     1      -2.361  -1.206   0.235  0.00  0.00    +0.127 A 
ATOM     25  C   UNL     1      -2.105  -0.480  -0.913  0.00  0.00    +0.030 A 
ATOM     26 CL   UNL     1      -3.814  -2.907   1.759  0.00  0.00    -0.082 Cl
ENDBRANCH  17  24
ENDBRANCH  15  17
ENDBRANCH   1  15
TORSDOF 5
