REMARK  Name = ZINC01393195
REMARK  6 active torsions:
REMARK  status: ('A' for Active; 'I' for Inactive)
REMARK    1  A    between atoms: C_1  and  C_2
REMARK    2  A    between atoms: C_2  and  C_3
REMARK    3  A    between atoms: C_2  and  S_4
REMARK    4  A    between atoms: S_4  and  C_5
REMARK    5  A    between atoms: C_8  and  C_11
REMARK    6  A    between atoms: N_9  and  N_10
REMARK                            x       y       z     vdW  Elec       q    Type
REMARK                         _______ _______ _______ _____ _____    ______ ____
ROOT
ATOM      1  C   UNL     1      -0.571  -2.106  -0.164  0.00  0.00    +0.209 A 
ATOM      2  N   UNL     1       0.698  -2.008   0.164  0.00  0.00    -0.121 NA
ATOM      3  N   UNL     1       1.035  -0.772   0.262  0.00  0.00    -0.127 NA
ATOM      4  C   UNL     1       0.002  -0.004   0.002  0.00  0.00    +0.182 A 
ATOM      5  N   UNL     1      -1.060  -0.835  -0.273  0.00  0.00    -0.224 N 
ENDROOT
BRANCH   4   6
ATOM      6  C   UNL     1      -0.018   1.474   0.010  0.00  0.00    +0.021 A 
ATOM      7  C   UNL     1      -1.235   2.158   0.020  0.00  0.00    +0.013 A 
ATOM      8  C   UNL     1      -1.247   3.538   0.032  0.00  0.00    +0.021 A 
ATOM      9  C   UNL     1      -0.056   4.243   0.024  0.00  0.00    +0.041 A 
ATOM     10  C   UNL     1       1.155   3.570   0.010  0.00  0.00    +0.021 A 
ATOM     11  C   UNL     1       1.180   2.191   0.003  0.00  0.00    +0.013 A 
ATOM     12 CL   UNL     1      -0.079   5.979   0.033  0.00  0.00    -0.084 Cl
ENDBRANCH   4   6
BRANCH   5  13
ATOM     13  N   UNL     1      -2.335  -0.466  -0.593  0.00  0.00    -0.295 N 
ATOM     14  H   UNL     1      -2.442  -0.360  -1.591  0.00  0.00    +0.163 HD
ATOM     15  H   UNL     1      -3.005  -1.124  -0.225  0.00  0.00    +0.163 HD
ENDBRANCH   5  13
BRANCH   1  16
ATOM     16  S   UNL     1      -1.476  -3.598  -0.409  0.00  0.00    -0.082 S 
BRANCH  16  18
ATOM     17  C   UNL     1      -0.769  -6.221  -0.120  0.00  0.00    +0.019 C 
ATOM     18  C   UNL     1      -0.173  -4.812  -0.085  0.00  0.00    +0.048 C 
ATOM     19  C   UNL     1       0.915  -4.691  -1.154  0.00  0.00    +0.019 C 
ENDBRANCH  16  18
ENDBRANCH   1  16
TORSDOF 4
