REMARK  Name = ZINC65577727
REMARK  5 active torsions:
REMARK  status: ('A' for Active; 'I' for Inactive)
REMARK    1  A    between atoms: C_5  and  C_8
REMARK    2  A    between atoms: C_5  and  N_10
REMARK    3  A    between atoms: C_11  and  C_13
REMARK    4  A    between atoms: C_13  and  N_14
REMARK    5  A    between atoms: C_24  and  C_26
REMARK                            x       y       z     vdW  Elec       q    Type
REMARK                         _______ _______ _______ _____ _____    ______ ____
ROOT
ATOM      1  N   UNL     1       2.641  -4.665  -3.310  0.00  0.00    +0.395 N 
ATOM      2  C   UNL     1       2.903  -5.619  -4.423  0.00  0.00    -0.064 C 
ATOM      3  C   UNL     1       2.276  -6.952  -4.007  0.00  0.00    -0.015 C 
ATOM      4  C   UNL     1       2.785  -8.092  -4.885  0.00  0.00    -0.002 C 
ATOM      5  C   UNL     1       4.300  -8.218  -4.687  0.00  0.00    +0.000 C 
ATOM      6  C   UNL     1       4.955  -6.931  -5.187  0.00  0.00    +0.002 C 
ATOM      7  C   UNL     1       4.440  -5.701  -4.466  0.00  0.00    -0.026 C 
ATOM      8  C   UNL     1       4.809  -5.717  -2.969  0.00  0.00    -0.004 C 
ATOM      9  C   UNL     1       3.774  -4.739  -2.366  0.00  0.00    +0.020 C 
ATOM     10  H   UNL     1       1.787  -4.920  -2.838  0.00  0.00    -0.080 HD
ENDROOT
BRANCH   9  11
ATOM     11  C   UNL     1       3.297  -5.255  -1.032  0.00  0.00    +0.197 C 
ATOM     12  O   UNL     1       2.128  -5.536  -0.874  0.00  0.00    -0.278 OA
ATOM     13  N   UNL     1       4.169  -5.403  -0.016  0.00  0.00    -0.331 N 
ATOM     14  H   UNL     1       5.104  -5.178  -0.142  0.00  0.00    +0.145 HD
ATOM     15  H   UNL     1       3.862  -5.735   0.842  0.00  0.00    +0.145 HD
ENDBRANCH   9  11
BRANCH   1  16
ATOM     16  C   UNL     1       2.527  -3.300  -3.842  0.00  0.00    +0.020 C 
BRANCH  16  18
ATOM     17  N   UNL     1       1.976  -1.046  -2.987  0.00  0.00    -0.299 N 
ATOM     18  C   UNL     1       2.139  -2.359  -2.731  0.00  0.00    +0.198 C 
ATOM     19  O   UNL     1       1.973  -2.783  -1.607  0.00  0.00    -0.278 OA
ATOM     20  H   UNL     1       2.108  -0.707  -3.886  0.00  0.00    +0.150 HD
BRANCH  17  25
ATOM     21  C   UNL     1      -0.019   1.538   0.011  0.00  0.00    +0.000 C 
ATOM     22  C   UNL     1       1.401   2.036  -0.000  0.00  0.00    +0.000 C 
ATOM     23  C   UNL     1       1.910   2.335  -1.423  0.00  0.00    +0.003 C 
ATOM     24  C   UNL     1       1.480   1.268  -2.449  0.00  0.00    +0.041 C 
ATOM     25  C   UNL     1       1.598  -0.131  -1.907  0.00  0.00    +0.121 C 
ATOM     26  C   UNL     1       0.231  -0.548  -1.328  0.00  0.00    +0.041 C 
ATOM     27  C   UNL     1       0.002  -0.004   0.002  0.00  0.00    +0.003 C 
BRANCH  25  28
ATOM     28  C   UNL     1       2.617  -0.166  -0.845  0.00  0.00    +0.088 C 
ATOM     29  N   UNL     1       3.403  -0.193  -0.025  0.00  0.00    -0.194 NA
ENDBRANCH  25  28
ENDBRANCH  17  25
ENDBRANCH  16  18
ENDBRANCH   1  16
TORSDOF 5
