REMARK  Name = ZINC59004770
REMARK  10 active torsions:
REMARK  status: ('A' for Active; 'I' for Inactive)
REMARK    1  A    between atoms: C_2  and  C_3
REMARK    2  A    between atoms: C_3  and  C_4
REMARK    3  A    between atoms: C_8  and  C_11
REMARK    4  A    between atoms: C_9  and  O_10
REMARK    5  A    between atoms: N_12  and  N_13
REMARK    6  A    between atoms: C_16  and  S_19
REMARK    7  A    between atoms: S_19  and  C_20
REMARK    8  A    between atoms: C_20  and  C_21
REMARK    9  A    between atoms: N_23  and  C_24
REMARK   10  A    between atoms: C_25  and  C_32
REMARK                            x       y       z     vdW  Elec       q    Type
REMARK                         _______ _______ _______ _____ _____    ______ ____
ROOT
ATOM      1  N   UNL     1      -0.834  -6.851   0.746  0.00  0.00    -0.205 N 
ATOM      2  C   UNL     1      -1.434  -7.239  -0.438  0.00  0.00    +0.232 A 
ATOM      3  N   UNL     1      -1.544  -6.506  -1.526  0.00  0.00    -0.186 NA
ATOM      4  C   UNL     1      -2.181  -7.201  -2.475  0.00  0.00    +0.211 A 
ATOM      5  N   UNL     1      -2.484  -8.387  -2.002  0.00  0.00    -0.144 NA
ATOM      6  N   UNL     1      -2.004  -8.438  -0.684  0.00  0.00    -0.245 N 
ATOM      7  H   UNL     1      -0.797  -7.466   1.495  0.00  0.00    +0.177 HD
ATOM      8  H   UNL     1      -2.071  -9.185  -0.070  0.00  0.00    +0.192 HD
ENDROOT
BRANCH   1  10
ATOM      9  C   UNL     1       0.285  -5.206   1.974  0.00  0.00    +0.142 C 
ATOM     10  N   UNL     1      -0.279  -5.570   0.863  0.00  0.00    -0.187 NA
BRANCH   9  15
ATOM     11  C   UNL     1       1.369  -1.702   1.144  0.00  0.00    -0.002 A 
ATOM     12  C   UNL     1       1.967  -1.322   2.331  0.00  0.00    +0.007 A 
ATOM     13  C   UNL     1       2.019  -2.199   3.400  0.00  0.00    +0.001 A 
ATOM     14  C   UNL     1       1.475  -3.462   3.292  0.00  0.00    +0.013 A 
ATOM     15  C   UNL     1       0.868  -3.858   2.098  0.00  0.00    +0.036 A 
ATOM     16  C   UNL     1       0.812  -2.964   1.019  0.00  0.00    +0.129 A 
BRANCH  16  17
ATOM     17  O   UNL     1       0.220  -3.336  -0.145  0.00  0.00    -0.506 OA
ATOM     18  H   UNL     1       0.821  -3.756  -0.776  0.00  0.00    +0.292 HD
ENDBRANCH  16  17
BRANCH  11  19
ATOM     19  C   UNL     1       1.317  -0.740  -0.015  0.00  0.00    +0.065 C 
BRANCH  19  21
ATOM     20  C   UNL     1      -0.016   1.306   0.009  0.00  0.00    +0.004 C 
ATOM     21  C   UNL     1       0.002  -0.004   0.002  0.00  0.00    -0.030 C 
ENDBRANCH  19  21
ENDBRANCH  11  19
ENDBRANCH   9  15
ENDBRANCH   1  10
BRANCH   4  22
ATOM     22  S   UNL     1      -2.553  -6.619  -4.096  0.00  0.00    -0.075 S 
BRANCH  22  23
ATOM     23  C   UNL     1      -3.410  -8.014  -4.877  0.00  0.00    +0.173 C 
BRANCH  23  24
ATOM     24  C   UNL     1      -3.789  -7.645  -6.288  0.00  0.00    +0.228 C 
ATOM     25  O   UNL     1      -3.509  -6.548  -6.723  0.00  0.00    -0.275 OA
ATOM     26  N   UNL     1      -4.439  -8.533  -7.065  0.00  0.00    -0.278 N 
ATOM     27  H   UNL     1      -4.663  -9.410  -6.717  0.00  0.00    +0.155 HD
BRANCH  26  28
ATOM     28  C   UNL     1      -4.788  -8.192  -8.365  0.00  0.00    +0.090 A 
ATOM     29  C   UNL     1      -5.456  -8.965  -9.296  0.00  0.00    +0.084 A 
ATOM     30  C   UNL     1      -5.705  -8.370 -10.607  0.00  0.00    -0.018 A 
ATOM     31  C   UNL     1      -5.237  -7.115 -10.737  0.00  0.00    -0.004 A 
ATOM     32  S   UNL     1      -4.503  -6.745  -9.164  0.00  0.00    -0.077 S 
ATOM     33  C   UNL     1      -5.515  -6.552 -12.104  0.00  0.00    +0.043 C 
ATOM     34  C   UNL     1      -5.851  -7.785 -12.973  0.00  0.00    +0.010 C 
ATOM     35  C   UNL     1      -6.371  -8.782 -11.918  0.00  0.00    +0.037 C 
BRANCH  29  36
ATOM     36  C   UNL     1      -5.886 -10.296  -8.988  0.00  0.00    +0.102 C 
ATOM     37  N   UNL     1      -6.227 -11.352  -8.743  0.00  0.00    -0.191 NA
ENDBRANCH  29  36
ENDBRANCH  26  28
ENDBRANCH  23  24
ENDBRANCH  22  23
ENDBRANCH   4  22
TORSDOF 10
