REMARK  Name = ZINC54544265
REMARK  8 active torsions:
REMARK  status: ('A' for Active; 'I' for Inactive)
REMARK    1  A    between atoms: C_1  and  C_2
REMARK    2  A    between atoms: C_5  and  C_8
REMARK    3  A    between atoms: N_10  and  N_11
REMARK    4  A    between atoms: C_13  and  N_32
REMARK    5  A    between atoms: C_14  and  N_18
REMARK    6  A    between atoms: N_21  and  C_24
REMARK    7  A    between atoms: C_28  and  C_31
REMARK    8  A    between atoms: C_29  and  C_30
REMARK                            x       y       z     vdW  Elec       q    Type
REMARK                         _______ _______ _______ _____ _____    ______ ____
ROOT
ATOM      1  N   UNL     1      -2.217  -6.287   3.341  0.00  0.00    -0.247 N 
ATOM      2  C   UNL     1      -1.034  -7.011   3.427  0.00  0.00    +0.161 A 
ATOM      3  C   UNL     1      -1.061  -8.404   3.513  0.00  0.00    +0.107 A 
ATOM      4  C   UNL     1       0.156  -9.083   3.597  0.00  0.00    +0.147 A 
ATOM      5  N   UNL     1       1.287  -8.381   3.593  0.00  0.00    -0.219 NA
ATOM      6  C   UNL     1       1.268  -7.066   3.510  0.00  0.00    +0.225 A 
ATOM      7  N   UNL     1       0.141  -6.388   3.424  0.00  0.00    -0.217 NA
ATOM      8  H   UNL     1      -3.070  -6.749   3.344  0.00  0.00    +0.172 HD
ENDROOT
BRANCH   4   9
ATOM      9  N   UNL     1       0.187 -10.469   3.685  0.00  0.00    -0.311 N 
ATOM     10  C   UNL     1       0.329 -11.293   2.476  0.00  0.00    +0.125 C 
ATOM     11  C   UNL     1       1.538 -12.219   2.654  0.00  0.00    +0.124 C 
ATOM     12  N   UNL     1       1.429 -12.889   3.958  0.00  0.00    -0.327 N 
ATOM     13  C   UNL     1       1.286 -12.066   5.167  0.00  0.00    +0.124 C 
ATOM     14  C   UNL     1       0.083 -11.139   4.989  0.00  0.00    +0.125 C 
BRANCH  12  15
ATOM     15  C   UNL     1       1.459 -14.283   4.046  0.00  0.00    +0.033 A 
ATOM     16  C   UNL     1       2.670 -14.943   4.214  0.00  0.00    +0.023 A 
ATOM     17  C   UNL     1       2.696 -16.321   4.301  0.00  0.00    +0.002 A 
ATOM     18  C   UNL     1       1.520 -17.043   4.221  0.00  0.00    +0.004 A 
ATOM     19  C   UNL     1       0.313 -16.389   4.054  0.00  0.00    -0.046 A 
ATOM     20  C   UNL     1       0.279 -15.011   3.972  0.00  0.00    -0.027 A 
ATOM     21  C   UNL     1      -1.038 -14.298   3.797  0.00  0.00    +0.046 C 
ATOM     22  C   UNL     1      -0.967 -17.180   3.967  0.00  0.00    +0.044 C 
ENDBRANCH  12  15
ENDBRANCH   4   9
BRANCH   1  25
ATOM     23  C   UNL     1      -3.325  -4.187   3.165  0.00  0.00    +0.260 C 
ATOM     24  O   UNL     1      -4.394  -4.766   3.169  0.00  0.00    -0.269 OA
ATOM     25  N   UNL     1      -2.178  -4.889   3.249  0.00  0.00    -0.231 N 
ATOM     26  H   UNL     1      -1.325  -4.427   3.246  0.00  0.00    +0.173 HD
BRANCH  23  31
ATOM     27  C   UNL     1      -3.164   1.553   2.790  0.00  0.00    +0.044 C 
ATOM     28  C   UNL     1      -3.206   0.050   2.889  0.00  0.00    -0.050 A 
ATOM     29  C   UNL     1      -4.425  -0.606   2.892  0.00  0.00    +0.004 A 
ATOM     30  C   UNL     1      -4.470  -1.982   2.982  0.00  0.00    +0.013 A 
ATOM     31  C   UNL     1      -3.284  -2.712   3.069  0.00  0.00    +0.038 A 
ATOM     32  C   UNL     1      -2.058  -2.044   3.065  0.00  0.00    +0.013 A 
ATOM     33  C   UNL     1      -2.026  -0.668   2.969  0.00  0.00    +0.004 A 
ENDBRANCH  23  31
ENDBRANCH   1  25
BRANCH   3  34
ATOM     34  N   UNL     1      -2.278  -9.104   3.515  0.00  0.00    -0.353 N 
ATOM     35  H   UNL     1      -3.117  -8.618   3.547  0.00  0.00    +0.143 HD
ATOM     36  H   UNL     1      -2.281 -10.074   3.484  0.00  0.00    +0.143 HD
ENDBRANCH   3  34
TORSDOF 5
