REMARK  Name = ZINC53072410
REMARK  7 active torsions:
REMARK  status: ('A' for Active; 'I' for Inactive)
REMARK    1  A    between atoms: C_1  and  C_2
REMARK    2  A    between atoms: C_4  and  N_19
REMARK    3  A    between atoms: C_7  and  S_8
REMARK    4  A    between atoms: S_8  and  N_11
REMARK    5  A    between atoms: N_11  and  C_12
REMARK    6  A    between atoms: C_12  and  C_17
REMARK    7  A    between atoms: C_17  and  O_18
REMARK                            x       y       z     vdW  Elec       q    Type
REMARK                         _______ _______ _______ _____ _____    ______ ____
ROOT
ATOM      1  S   UNL     1       0.400   0.550   3.586  0.00  0.00    +0.059 S 
ATOM      2  O   UNL     1       0.739  -0.573   4.388  0.00  0.00    -0.153 OA
ATOM      3  O   UNL     1      -0.221   0.418   2.314  0.00  0.00    -0.153 OA
ENDROOT
BRANCH   1  10
ATOM      4  C   UNL     1       1.090   1.563   6.351  0.00  0.00    +0.046 C 
ATOM      5  C   UNL     1      -0.257   1.979   5.816  0.00  0.00    -0.022 A 
ATOM      6  C   UNL     1      -1.086   2.780   6.580  0.00  0.00    +0.038 A 
ATOM      7  C   UNL     1      -2.321   3.161   6.089  0.00  0.00    +0.127 A 
ATOM      8  C   UNL     1      -2.726   2.742   4.836  0.00  0.00    +0.034 A 
ATOM      9  C   UNL     1      -1.897   1.943   4.073  0.00  0.00    +0.031 A 
ATOM     10  C   UNL     1      -0.660   1.565   4.561  0.00  0.00    +0.108 A 
BRANCH   7  11
ATOM     11  N   UNL     1      -3.209   4.018   6.907  0.00  0.00    +0.056 N 
ATOM     12  O   UNL     1      -2.854   4.384   8.003  0.00  0.00    -0.126 OA
ATOM     13  O   UNL     1      -4.289   4.352   6.478  0.00  0.00    -0.126 OA
ENDBRANCH   7  11
ENDBRANCH   1  10
BRANCH   1  14
ATOM     14  N   UNL     1       1.802   1.398   3.342  0.00  0.00    -0.182 NA
ATOM     15  H   UNL     1       2.579   1.218   3.893  0.00  0.00    +0.149 HD
BRANCH  14  16
ATOM     16  C   UNL     1       1.867   2.420   2.295  0.00  0.00    +0.063 C 
ATOM     17  C   UNL     1       1.844   1.762   0.893  0.00  0.00    +0.026 C 
ATOM     18  C   UNL     1       3.315   1.316   0.701  0.00  0.00    +0.002 C 
ATOM     19  C   UNL     1       4.141   2.456   1.331  0.00  0.00    +0.002 C 
ATOM     20  C   UNL     1       3.221   3.158   2.344  0.00  0.00    +0.026 C 
BRANCH  16  21
ATOM     21  C   UNL     1       0.711   3.411   2.443  0.00  0.00    +0.179 C 
BRANCH  21  22
ATOM     22  O   UNL     1      -0.520   2.758   2.127  0.00  0.00    -0.393 OA
ATOM     23  H   UNL     1      -1.298   3.328   2.199  0.00  0.00    +0.209 HD
ENDBRANCH  21  22
ENDBRANCH  16  21
ENDBRANCH  14  16
ENDBRANCH   1  14
TORSDOF 6
