REMARK  Name = ZINC04685335
REMARK  5 active torsions:
REMARK  status: ('A' for Active; 'I' for Inactive)
REMARK    1  A    between atoms: C_1  and  C_2
REMARK    2  A    between atoms: C_2  and  O_3
REMARK    3  A    between atoms: O_3  and  C_4
REMARK    4  A    between atoms: C_7  and  C_10
REMARK    5  A    between atoms: C_13  and  C_22
REMARK                            x       y       z     vdW  Elec       q    Type
REMARK                         _______ _______ _______ _____ _____    ______ ____
ROOT
ATOM      1  C   UNL     1       1.108  -6.038  -1.832  0.00  0.00    +0.106 C 
ATOM      2  C   UNL     1       2.508  -6.502  -1.413  0.00  0.00    +0.058 C 
ATOM      3  C   UNL     1       2.614  -8.025  -1.558  0.00  0.00    +0.143 C 
ATOM      4  N   UNL     1       2.125  -8.408  -2.882  0.00  0.00    -0.224 N 
ATOM      5  C   UNL     1       1.336  -7.628  -3.659  0.00  0.00    +0.216 A 
ATOM      6  N   UNL     1       1.092  -8.274  -4.769  0.00  0.00    -0.180 NA
ATOM      7  C   UNL     1       1.704  -9.466  -4.736  0.00  0.00    +0.233 A 
ATOM      8  N   UNL     1       2.347  -9.586  -3.595  0.00  0.00    -0.132 NA
ATOM      9  N   UNL     1       1.665 -10.425  -5.749  0.00  0.00    -0.326 N 
ATOM     10  N   UNL     1       0.905  -6.370  -3.256  0.00  0.00    -0.307 N 
ATOM     11  H   UNL     1       1.164 -10.253  -6.561  0.00  0.00    +0.145 HD
ATOM     12  H   UNL     1       2.139 -11.265  -5.641  0.00  0.00    +0.145 HD
ATOM     13  H   UNL     1       0.497  -5.745  -3.874  0.00  0.00    +0.149 HD
ENDROOT
BRANCH   3  14
ATOM     14  C   UNL     1       4.053  -8.447  -1.406  0.00  0.00    -0.015 A 
ATOM     15  C   UNL     1       4.979  -8.064  -2.328  0.00  0.00    +0.006 A 
ATOM     16  C   UNL     1       6.314  -8.445  -2.204  0.00  0.00    +0.001 A 
ATOM     17  C   UNL     1       6.730  -9.211  -1.159  0.00  0.00    +0.008 A 
ATOM     18  C   UNL     1       5.803  -9.626  -0.188  0.00  0.00    -0.018 A 
ATOM     19  C   UNL     1       4.446  -9.233  -0.311  0.00  0.00    -0.013 A 
ATOM     20  C   UNL     1       3.520  -9.644   0.664  0.00  0.00    +0.009 A 
ATOM     21  C   UNL     1       3.937 -10.405   1.712  0.00  0.00    +0.001 A 
ATOM     22  C   UNL     1       5.273 -10.786   1.835  0.00  0.00    +0.001 A 
ATOM     23  C   UNL     1       6.195 -10.418   0.904  0.00  0.00    +0.008 A 
ENDBRANCH   3  14
BRANCH   1  27
ATOM     24  C   UNL     1       0.770  -1.814  -1.281  0.00  0.00    +0.121 A 
ATOM     25  C   UNL     1       0.234  -2.683  -0.341  0.00  0.00    +0.046 A 
ATOM     26  C   UNL     1       0.344  -4.048  -0.522  0.00  0.00    +0.009 A 
ATOM     27  C   UNL     1       0.988  -4.549  -1.638  0.00  0.00    -0.027 A 
ATOM     28  C   UNL     1       1.524  -3.686  -2.576  0.00  0.00    +0.009 A 
ATOM     29  C   UNL     1       1.411  -2.320  -2.403  0.00  0.00    +0.046 A 
BRANCH  24  30
ATOM     30  O   UNL     1       0.662  -0.471  -1.106  0.00  0.00    -0.492 OA
BRANCH  30  32
ATOM     31  C   UNL     1      -0.033   1.507   0.096  0.00  0.00    +0.048 C 
ATOM     32  C   UNL     1      -0.011  -0.022   0.072  0.00  0.00    +0.225 C 
ENDBRANCH  30  32
ENDBRANCH  24  30
ENDBRANCH   1  27
TORSDOF 4
