REMARK  Name = ZINC01563224
REMARK  10 active torsions:
REMARK  status: ('A' for Active; 'I' for Inactive)
REMARK    1  A    between atoms: C_1  and  N_53
REMARK    2  A    between atoms: C_10  and  C_12
REMARK    3  A    between atoms: C_12  and  C_14
REMARK    4  A    between atoms: C_12  and  O_26
REMARK    5  A    between atoms: C_17  and  O_24
REMARK    6  A    between atoms: C_18  and  O_22
REMARK    7  A    between atoms: C_19  and  C_20
REMARK    8  A    between atoms: C_20  and  O_21
REMARK    9  A    between atoms: O_22  and  C_23
REMARK   10  A    between atoms: O_24  and  C_25
REMARK                            x       y       z     vdW  Elec       q    Type
REMARK                         _______ _______ _______ _____ _____    ______ ____
ROOT
ATOM      1  C   UNL     1      -3.444  -2.915  -0.342  0.00  0.00    +0.136 C 
ENDROOT
BRANCH   1  11
ATOM      2  C   UNL     1      -1.583  -2.686  -2.564  0.00  0.00    -0.095 C 
ATOM      3  C   UNL     1       0.226  -2.427  -0.971  0.00  0.00    -0.074 C 
ATOM      4  C   UNL     1       0.575  -1.705   0.330  0.00  0.00    +0.017 C 
ATOM      5  C   UNL     1      -0.323  -2.185   1.442  0.00  0.00    -0.044 A 
ATOM      6  C   UNL     1       0.054  -1.926   2.752  0.00  0.00    +0.053 A 
ATOM      7  C   UNL     1      -0.740  -2.344   3.804  0.00  0.00    +0.167 A 
ATOM      8  C   UNL     1      -1.925  -3.028   3.544  0.00  0.00    +0.166 A 
ATOM      9  C   UNL     1      -2.296  -3.282   2.236  0.00  0.00    +0.052 A 
ATOM     10  C   UNL     1      -1.495  -2.863   1.184  0.00  0.00    -0.051 A 
ATOM     11  C   UNL     1      -1.941  -3.172  -0.222  0.00  0.00    -0.004 C 
ATOM     12  O   UNL     1      -2.524  -3.330   4.733  0.00  0.00    -0.453 OA
ATOM     13  C   UNL     1      -1.495  -3.187   5.729  0.00  0.00    +0.466 C 
ATOM     14  O   UNL     1      -0.596  -2.219   5.156  0.00  0.00    -0.453 OA
ATOM     15  N   UNL     1      -1.232  -2.304  -1.177  0.00  0.00    +0.385 N 
ATOM     16  H   UNL     1      -1.512  -1.330  -1.018  0.00  0.00    -0.081 HD
ENDBRANCH   1  11
BRANCH   1  17
ATOM     17  C   UNL     1      -4.200  -4.034   0.328  0.00  0.00    -0.011 A 
ATOM     18  C   UNL     1      -5.019  -3.763   1.408  0.00  0.00    +0.010 A 
ATOM     19  C   UNL     1      -5.719  -4.785   2.022  0.00  0.00    +0.050 A 
ATOM     20  C   UNL     1      -5.591  -6.086   1.563  0.00  0.00    +0.162 A 
ATOM     21  C   UNL     1      -4.762  -6.359   0.479  0.00  0.00    +0.167 A 
ATOM     22  C   UNL     1      -4.068  -5.330  -0.136  0.00  0.00    +0.029 A 
BRANCH  21  23
ATOM     23  O   UNL     1      -4.633  -7.635   0.024  0.00  0.00    -0.491 OA
ATOM     24  C   UNL     1      -3.594  -8.428   0.602  0.00  0.00    +0.277 C 
ENDBRANCH  21  23
BRANCH  20  25
ATOM     25  O   UNL     1      -6.274  -7.093   2.170  0.00  0.00    -0.491 OA
ATOM     26  C   UNL     1      -7.106  -6.739   3.276  0.00  0.00    +0.277 C 
ENDBRANCH  20  25
BRANCH  22  27
ATOM     27  C   UNL     1      -3.169  -5.622  -1.310  0.00  0.00    +0.195 C 
BRANCH  27  28
ATOM     28  O   UNL     1      -1.909  -6.103  -0.837  0.00  0.00    -0.390 OA
ATOM     29  H   UNL     1      -1.279  -6.312  -1.540  0.00  0.00    +0.210 HD
ENDBRANCH  27  28
ENDBRANCH  22  27
ENDBRANCH   1  17
BRANCH   1  30
ATOM     30  O   UNL     1      -3.768  -1.676   0.291  0.00  0.00    -0.388 OA
ATOM     31  H   UNL     1      -3.548  -1.645   1.232  0.00  0.00    +0.210 HD
ENDBRANCH   1  30
TORSDOF 7
