REMARK  Name = ZINC04097283
REMARK  15 active torsions:
REMARK  status: ('A' for Active; 'I' for Inactive)
REMARK    1  A    between atoms: C_1  and  C_2
REMARK    2  A    between atoms: C_2  and  C_3
REMARK    3  A    between atoms: C_3  and  C_4
REMARK    4  A    between atoms: C_7  and  C_11
REMARK    5  A    between atoms: C_10  and  N_61
REMARK    6  A    between atoms: N_13  and  C_14
REMARK    7  A    between atoms: C_14  and  C_16
REMARK    8  A    between atoms: C_14  and  C_32
REMARK    9  A    between atoms: C_18  and  O_31
REMARK   10  A    between atoms: C_20  and  O_30
REMARK   11  A    between atoms: C_22  and  O_29
REMARK   12  A    between atoms: C_24  and  S_27
REMARK   13  A    between atoms: S_27  and  C_28
REMARK   14  A    between atoms: C_32  and  C_34
REMARK   15  A    between atoms: C_32  and  O_35
REMARK                            x       y       z     vdW  Elec       q    Type
REMARK                         _______ _______ _______ _____ _____    ______ ____
ROOT
ATOM      1  C   UNL     1      -0.738   3.105   1.150  0.00  0.00    +0.132 C 
ENDROOT
BRANCH   1   2
ATOM      2  C   UNL     1       0.701   3.624   1.140  0.00  0.00    +0.173 C 
ATOM      3  C   UNL     1       0.692   5.155   1.149  0.00  0.00    +0.176 C 
ATOM      4  C   UNL     1       2.134   5.667   1.077  0.00  0.00    +0.177 C 
ATOM      5  C   UNL     1       2.805   5.097  -0.176  0.00  0.00    +0.184 C 
ATOM      6  C   UNL     1       2.733   3.569  -0.134  0.00  0.00    +0.207 C 
ATOM      7  O   UNL     1       1.367   3.160  -0.037  0.00  0.00    -0.356 OA
BRANCH   6   8
ATOM      8  S   UNL     1       3.651   2.959   1.307  0.00  0.00    -0.131 S 
ATOM      9  C   UNL     1       3.730   1.165   1.051  0.00  0.00    +0.087 C 
ENDBRANCH   6   8
BRANCH   5  10
ATOM     10  O   UNL     1       4.172   5.510  -0.215  0.00  0.00    -0.386 OA
ATOM     11  H   UNL     1       4.660   5.184  -0.984  0.00  0.00    +0.210 HD
ENDBRANCH   5  10
BRANCH   4  12
ATOM     12  O   UNL     1       2.131   7.095   1.011  0.00  0.00    -0.386 OA
ATOM     13  H   UNL     1       3.013   7.488   0.964  0.00  0.00    +0.210 HD
ENDBRANCH   4  12
BRANCH   3  14
ATOM     14  O   UNL     1      -0.042   5.635   0.020  0.00  0.00    -0.387 OA
ATOM     15  H   UNL     1      -0.089   6.599  -0.038  0.00  0.00    +0.210 HD
ENDBRANCH   3  14
ENDBRANCH   1   2
BRANCH   1  18
ATOM     16  C   UNL     1      -2.803   3.809   2.236  0.00  0.00    +0.200 C 
ATOM     17  O   UNL     1      -3.412   3.429   1.258  0.00  0.00    -0.278 OA
ATOM     18  N   UNL     1      -1.461   3.691   2.281  0.00  0.00    -0.309 N 
ATOM     19  H   UNL     1      -0.974   3.995   3.063  0.00  0.00    +0.149 HD
BRANCH  16  22
ATOM     20  C   UNL     1      -4.755   6.352   4.145  0.00  0.00    -0.029 C 
ATOM     21  C   UNL     1      -3.494   5.959   3.329  0.00  0.00    -0.005 C 
ATOM     22  C   UNL     1      -3.546   4.412   3.399  0.00  0.00    +0.019 C 
ATOM     23  C   UNL     1      -5.763   5.239   3.786  0.00  0.00    -0.075 C 
ATOM     24  C   UNL     1      -5.290   2.884   4.121  0.00  0.00    -0.095 C 
ATOM     25  N   UNL     1      -4.983   4.087   3.305  0.00  0.00    +0.386 N 
ATOM     26  H   UNL     1      -5.225   3.899   2.325  0.00  0.00    -0.081 HD
BRANCH  20  27
ATOM     27  C   UNL     1      -5.282   7.720   3.709  0.00  0.00    +0.001 C 
BRANCH  27  29
ATOM     28  C   UNL     1      -7.046   9.446   4.101  0.00  0.00    +0.004 C 
ATOM     29  C   UNL     1      -6.519   8.077   4.536  0.00  0.00    -0.003 C 
ENDBRANCH  27  29
ENDBRANCH  20  27
ENDBRANCH  16  22
ENDBRANCH   1  18
BRANCH   1  30
ATOM     30  C   UNL     1      -0.729   1.581   1.286  0.00  0.00    +0.134 C 
ATOM     31  C   UNL     1      -2.162   1.052   1.187  0.00  0.00    +0.039 C 
BRANCH  30  32
ATOM     32  O   UNL     1       0.061   1.014   0.238  0.00  0.00    -0.390 OA
ATOM     33  H   UNL     1       0.111   0.049   0.262  0.00  0.00    +0.210 HD
ENDBRANCH  30  32
ENDBRANCH   1  30
TORSDOF 11
