REMARK  Name = ZINC44876701
REMARK  8 active torsions:
REMARK  status: ('A' for Active; 'I' for Inactive)
REMARK    1  A    between atoms: C_1  and  C_2
REMARK    2  A    between atoms: C_2  and  C_3
REMARK    3  A    between atoms: C_3  and  C_5
REMARK    4  A    between atoms: C_3  and  C_9
REMARK    5  A    between atoms: N_6  and  O_7
REMARK    6  A    between atoms: N_11  and  C_12
REMARK    7  A    between atoms: C_12  and  C_13
REMARK    8  A    between atoms: C_15  and  C_18
REMARK                            x       y       z     vdW  Elec       q    Type
REMARK                         _______ _______ _______ _____ _____    ______ ____
ROOT
ATOM      1  C   UNL     1       0.870  -2.011   1.172  0.00  0.00    +0.224 C 
ATOM      2  O   UNL     1       0.382  -2.702   2.041  0.00  0.00    -0.275 OA
ATOM      3  N   UNL     1       1.526  -2.584   0.144  0.00  0.00    -0.309 N 
ATOM      4  H   UNL     1       1.916  -2.031  -0.551  0.00  0.00    +0.149 HD
ENDROOT
BRANCH   1   5
ATOM      5  C   UNL     1       0.742  -0.511   1.242  0.00  0.00    +0.141 C 
BRANCH   5   6
ATOM      6  C   UNL     1      -0.030  -0.130   2.478  0.00  0.00    +0.144 C 
ATOM      7  N   UNL     1      -1.304   0.074   2.408  0.00  0.00    -0.076 NA
ATOM      8  N   UNL     1       0.623   0.002   3.684  0.00  0.00    -0.343 N 
ATOM      9  H   UNL     1       1.579  -0.150   3.737  0.00  0.00    +0.144 HD
ATOM     10  H   UNL     1       0.126   0.248   4.480  0.00  0.00    +0.144 HD
BRANCH   7  11
ATOM     11  O   UNL     1      -2.029   0.432   3.570  0.00  0.00    -0.408 OA
ATOM     12  H   UNL     1      -2.975   0.563   3.418  0.00  0.00    +0.328 HD
ENDBRANCH   7  11
ENDBRANCH   5   6
BRANCH   5  14
ATOM     13  C   UNL     1      -0.019   1.526   0.010  0.00  0.00    +0.005 C 
ATOM     14  C   UNL     1       0.002  -0.004   0.002  0.00  0.00    +0.017 C 
ENDBRANCH   5  14
ENDBRANCH   1   5
BRANCH   3  15
ATOM     15  C   UNL     1       1.651  -4.042   0.076  0.00  0.00    +0.167 C 
BRANCH  15  16
ATOM     16  C   UNL     1       2.422  -4.424  -1.161  0.00  0.00    +0.096 A 
ATOM     17  N   UNL     1       3.715  -4.585  -1.296  0.00  0.00    -0.248 NA
ATOM     18  C   UNL     1       4.247  -4.923  -2.453  0.00  0.00    +0.046 A 
ATOM     19  C   UNL     1       3.394  -5.096  -3.495  0.00  0.00    +0.070 A 
ATOM     20  S   UNL     1       1.832  -4.753  -2.702  0.00  0.00    -0.079 S 
ATOM     21  C   UNL     1       5.734  -5.109  -2.613  0.00  0.00    +0.066 C 
ENDBRANCH  15  16
ENDBRANCH   3  15
TORSDOF 6
