REMARK  Name = ZINC44357824
REMARK  8 active torsions:
REMARK  status: ('A' for Active; 'I' for Inactive)
REMARK    1  A    between atoms: C_1  and  C_2
REMARK    2  A    between atoms: C_2  and  O_3
REMARK    3  A    between atoms: O_3  and  C_4
REMARK    4  A    between atoms: C_4  and  C_6
REMARK    5  A    between atoms: C_6  and  C_8
REMARK    6  A    between atoms: C_6  and  N_28
REMARK    7  A    between atoms: C_8  and  C_9
REMARK    8  A    between atoms: C_10  and  C_21
REMARK                            x       y       z     vdW  Elec       q    Type
REMARK                         _______ _______ _______ _____ _____    ______ ____
ROOT
ATOM      1  C   UNL     1       1.473  -2.779  -4.877  0.00  0.00    +0.051 A 
ATOM      2  C   UNL     1       1.835  -1.962  -5.894  0.00  0.00    +0.093 A 
ATOM      3  N   UNL     1       2.141  -2.731  -6.961  0.00  0.00    -0.221 NA
ATOM      4  C   UNL     1       1.980  -3.982  -6.636  0.00  0.00    +0.179 A 
ATOM      5  N   UNL     1       1.567  -4.089  -5.340  0.00  0.00    -0.290 N 
ATOM      6  C   UNL     1       1.347  -5.369  -4.815  0.00  0.00    +0.063 A 
ATOM      7  C   UNL     1       0.920  -5.679  -3.513  0.00  0.00    +0.027 A 
ATOM      8  C   UNL     1       0.743  -6.986  -3.124  0.00  0.00    +0.002 A 
ATOM      9  C   UNL     1       0.978  -8.034  -3.997  0.00  0.00    +0.001 A 
ATOM     10  C   UNL     1       1.399  -7.757  -5.286  0.00  0.00    +0.017 A 
ATOM     11  C   UNL     1       1.577  -6.449  -5.674  0.00  0.00    +0.039 A 
ATOM     12  S   UNL     1       2.079  -5.669  -7.188  0.00  0.00    -0.049 S 
ENDROOT
BRANCH   2  13
ATOM     13  C   UNL     1       1.886  -0.480  -5.845  0.00  0.00    +0.002 A 
ATOM     14  C   UNL     1       2.964   0.201  -6.407  0.00  0.00    +0.013 A 
ATOM     15  C   UNL     1       3.008   1.579  -6.359  0.00  0.00    +0.039 A 
ATOM     16  C   UNL     1       1.981   2.286  -5.754  0.00  0.00    +0.123 A 
ATOM     17  C   UNL     1       0.907   1.613  -5.194  0.00  0.00    +0.039 A 
ATOM     18  C   UNL     1       0.853   0.235  -5.242  0.00  0.00    +0.013 A 
ATOM     19  F   UNL     1       2.028   3.635  -5.710  0.00  0.00    -0.205 F 
ENDBRANCH   2  13
BRANCH   1  20
ATOM     20  C   UNL     1       1.051  -2.350  -3.495  0.00  0.00    +0.051 C 
BRANCH  20  21
ATOM     21  C   UNL     1       2.293  -2.124  -2.631  0.00  0.00    +0.042 C 
BRANCH  21  22
ATOM     22  N   UNL     1       2.998  -3.398  -2.443  0.00  0.00    +0.387 N 
ATOM     23  H   UNL     1       2.386  -4.058  -1.986  0.00  0.00    -0.089 HD
ATOM     24  H   UNL     1       3.276  -3.764  -3.342  0.00  0.00    -0.089 HD
ATOM     25  H   UNL     1       3.817  -3.249  -1.873  0.00  0.00    -0.089 HD
ENDBRANCH  21  22
BRANCH  21  26
ATOM     26  C   UNL     1       1.878  -1.577  -1.289  0.00  0.00    +0.293 C 
ATOM     27  O   UNL     1       1.806  -2.313  -0.333  0.00  0.00    -0.253 OA
BRANCH  26  28
ATOM     28  O   UNL     1       1.588  -0.273  -1.155  0.00  0.00    -0.466 OA
BRANCH  28  30
ATOM     29  C   UNL     1       0.913   1.678   0.101  0.00  0.00    +0.048 C 
ATOM     30  C   UNL     1       1.202   0.176   0.145  0.00  0.00    +0.228 C 
ENDBRANCH  28  30
ENDBRANCH  26  28
ENDBRANCH  21  26
ENDBRANCH  20  21
ENDBRANCH   1  20
TORSDOF 7
