REMARK  Name = ZINC52889957
REMARK  7 active torsions:
REMARK  status: ('A' for Active; 'I' for Inactive)
REMARK    1  A    between atoms: C_3  and  C_23
REMARK    2  A    between atoms: C_6  and  C_7
REMARK    3  A    between atoms: C_9  and  C_12
REMARK    4  A    between atoms: C_12  and  S_13
REMARK    5  A    between atoms: S_13  and  C_14
REMARK    6  A    between atoms: C_17  and  C_21
REMARK    7  A    between atoms: C_18  and  N_20
REMARK                            x       y       z     vdW  Elec       q    Type
REMARK                         _______ _______ _______ _____ _____    ______ ____
ROOT
ATOM      1  C   UNL     1      -1.267  -0.760   0.011  0.00  0.00    +0.109 A 
ATOM      2  N   UNL     1      -1.466  -2.071   0.011  0.00  0.00    -0.243 NA
ATOM      3  C   UNL     1      -2.675  -2.577   0.019  0.00  0.00    +0.059 A 
ATOM      4  C   UNL     1      -3.756  -1.750   0.028  0.00  0.00    +0.071 A 
ATOM      5  S   UNL     1      -2.949  -0.153   0.031  0.00  0.00    -0.075 S 
ENDROOT
BRANCH   1  11
ATOM      6  C   UNL     1      -0.017   1.393   0.010  0.00  0.00    +0.011 A 
ATOM      7  C   UNL     1       1.165   2.097   0.002  0.00  0.00    +0.014 A 
ATOM      8  C   UNL     1       2.385   1.415  -0.013  0.00  0.00    +0.037 A 
ATOM      9  C   UNL     1       2.404   0.018  -0.021  0.00  0.00    +0.014 A 
ATOM     10  C   UNL     1       1.221  -0.686  -0.013  0.00  0.00    +0.011 A 
ATOM     11  C   UNL     1       0.002  -0.004   0.002  0.00  0.00    +0.007 A 
BRANCH   8  12
ATOM     12  C   UNL     1       3.654   2.171  -0.022  0.00  0.00    +0.242 C 
ATOM     13  O   UNL     1       3.637   3.386  -0.015  0.00  0.00    -0.270 OA
ATOM     14  N   UNL     1       4.830   1.513  -0.036  0.00  0.00    -0.325 N 
ATOM     15  H   UNL     1       4.843   0.543  -0.042  0.00  0.00    +0.145 HD
ATOM     16  H   UNL     1       5.663   2.009  -0.042  0.00  0.00    +0.145 HD
ENDBRANCH   8  12
ENDBRANCH   1  11
BRANCH   3  17
ATOM     17  C   UNL     1      -2.868  -4.072   0.019  0.00  0.00    +0.133 C 
BRANCH  17  18
ATOM     18  S   UNL     1      -2.934  -4.673   1.729  0.00  0.00    -0.080 S 
BRANCH  18  19
ATOM     19  C   UNL     1      -3.160  -6.412   1.561  0.00  0.00    +0.190 A 
ATOM     20  N   UNL     1      -3.231  -6.937   0.343  0.00  0.00    -0.229 NA
ATOM     21  C   UNL     1      -3.400  -8.235   0.168  0.00  0.00    +0.136 A 
ATOM     22  C   UNL     1      -3.505  -9.065   1.290  0.00  0.00    +0.109 A 
ATOM     23  C   UNL     1      -3.425  -8.470   2.568  0.00  0.00    +0.138 A 
ATOM     24  N   UNL     1      -3.248  -7.157   2.653  0.00  0.00    -0.206 NA
BRANCH  23  25
ATOM     25  N   UNL     1      -3.522  -9.241   3.708  0.00  0.00    -0.342 N 
ATOM     26  H   UNL     1      -3.647 -10.201   3.636  0.00  0.00    +0.144 HD
ATOM     27  H   UNL     1      -3.466  -8.824   4.582  0.00  0.00    +0.144 HD
ENDBRANCH  23  25
BRANCH  22  28
ATOM     28  C   UNL     1      -3.689 -10.477   1.145  0.00  0.00    +0.104 C 
ATOM     29  N   UNL     1      -3.835 -11.598   1.031  0.00  0.00    -0.191 NA
ENDBRANCH  22  28
ENDBRANCH  18  19
ENDBRANCH  17  18
ENDBRANCH   3  17
TORSDOF 7
