REMARK  Name = ZINC10389022
REMARK  4 active torsions:
REMARK  status: ('A' for Active; 'I' for Inactive)
REMARK    1  A    between atoms: C_4  and  C_7
REMARK    2  A    between atoms: C_7  and  O_9
REMARK    3  A    between atoms: O_9  and  C_10
REMARK    4  A    between atoms: C_10  and  C_11
REMARK                            x       y       z     vdW  Elec       q    Type
REMARK                         _______ _______ _______ _____ _____    ______ ____
ROOT
ATOM      1  C   UNL     1       0.010   0.005   0.169  0.00  0.00    +0.170 A 
ATOM      2  N   UNL     1       1.146  -0.670   0.149  0.00  0.00    -0.214 NA
ATOM      3  C   UNL     1       2.316  -0.075  -0.021  0.00  0.00    +0.128 A 
ATOM      4  C   UNL     1       2.356   1.337  -0.188  0.00  0.00    +0.051 A 
ATOM      5  C   UNL     1       3.525   2.200  -0.391  0.00  0.00    -0.025 A 
ATOM      6  C   UNL     1       3.287   3.521  -0.516  0.00  0.00    -0.004 A 
ATOM      7  S   UNL     1       1.526   3.693  -0.389  0.00  0.00    -0.073 S 
ATOM      8  C   UNL     1       1.107   1.986  -0.154  0.00  0.00    +0.114 A 
ATOM      9  N   UNL     1      -0.015   1.315   0.020  0.00  0.00    -0.221 NA
ATOM     10  C   UNL     1       4.287   4.619  -0.714  0.00  0.00    +0.043 C 
ATOM     11  C   UNL     1       5.243   4.235  -1.851  0.00  0.00    +0.005 C 
ATOM     12  C   UNL     1       6.421   3.474  -1.252  0.00  0.00    +0.001 C 
ATOM     13  C   UNL     1       5.957   2.659  -0.045  0.00  0.00    +0.005 C 
ATOM     14  C   UNL     1       4.932   1.615  -0.469  0.00  0.00    +0.037 C 
ATOM     15  N   UNL     1       3.483  -0.816  -0.037  0.00  0.00    -0.343 N 
ATOM     16  H   UNL     1       4.257  -0.492  -0.525  0.00  0.00    +0.144 HD
ATOM     17  H   UNL     1       3.529  -1.660   0.439  0.00  0.00    +0.144 HD
ENDROOT
BRANCH   1  18
ATOM     18  C   UNL     1      -1.285  -0.739   0.368  0.00  0.00    +0.308 C 
BRANCH  18  19
ATOM     19  O   UNL     1      -1.819  -1.135  -0.923  0.00  0.00    -0.452 OA
BRANCH  19  20
ATOM     20  C   UNL     1      -2.982  -1.814  -0.921  0.00  0.00    +0.360 C 
ATOM     21  O   UNL     1      -3.535  -2.070   0.129  0.00  0.00    -0.243 OA
BRANCH  20  25
ATOM     22  C   UNL     1      -4.721  -3.061  -4.487  0.00  0.00    +0.130 A 
ATOM     23  C   UNL     1      -3.523  -2.361  -4.490  0.00  0.00    +0.131 A 
ATOM     24  N   UNL     1      -2.985  -1.967  -3.354  0.00  0.00    -0.245 NA
ATOM     25  C   UNL     1      -3.586  -2.251  -2.201  0.00  0.00    +0.166 A 
ATOM     26  C   UNL     1      -4.790  -2.954  -2.202  0.00  0.00    +0.145 A 
ATOM     27  N   UNL     1      -5.325  -3.341  -3.346  0.00  0.00    -0.259 NA
ENDBRANCH  20  25
ENDBRANCH  19  20
ENDBRANCH  18  19
ENDBRANCH   1  18
TORSDOF 4
