REMARK  Name = ZINC41084180
REMARK  5 active torsions:
REMARK  status: ('A' for Active; 'I' for Inactive)
REMARK    1  A    between atoms: C_1  and  N_2
REMARK    2  A    between atoms: N_2  and  C_3
REMARK    3  A    between atoms: N_2  and  C_13
REMARK    4  A    between atoms: C_6  and  N_12
REMARK    5  A    between atoms: C_8  and  C_9
REMARK                            x       y       z     vdW  Elec       q    Type
REMARK                         _______ _______ _______ _____ _____    ______ ____
ROOT
ATOM      1  C   UNL     1       0.023  -0.706   1.203  0.00  0.00    +0.042 A 
ATOM      2  C   UNL     1      -1.168  -1.079   1.813  0.00  0.00    +0.025 A 
ATOM      3  C   UNL     1      -1.149  -1.775   3.004  0.00  0.00    +0.024 A 
ATOM      4  C   UNL     1       0.062  -2.108   3.604  0.00  0.00    +0.025 A 
ATOM      5  C   UNL     1       1.257  -1.744   3.009  0.00  0.00    +0.037 A 
ATOM      6  C   UNL     1       1.247  -1.045   1.799  0.00  0.00    +0.059 A 
ENDROOT
BRANCH   6   7
ATOM      7  C   UNL     1       2.516  -0.659   1.155  0.00  0.00    +0.243 C 
ATOM      8  O   UNL     1       2.504  -0.046   0.105  0.00  0.00    -0.270 OA
ATOM      9  N   UNL     1       3.690  -0.986   1.731  0.00  0.00    -0.325 N 
ATOM     10  H   UNL     1       3.700  -1.475   2.568  0.00  0.00    +0.145 HD
ATOM     11  H   UNL     1       4.525  -0.732   1.308  0.00  0.00    +0.145 HD
ENDBRANCH   6   7
BRANCH   4  12
ATOM     12  N   UNL     1       0.071  -2.814   4.813  0.00  0.00    -0.358 N 
ATOM     13  H   UNL     1      -0.766  -3.070   5.231  0.00  0.00    +0.142 HD
ATOM     14  H   UNL     1       0.914  -3.047   5.232  0.00  0.00    +0.142 HD
ENDBRANCH   4  12
BRANCH   1  16
ATOM     15  C   UNL     1      -0.018   1.461   0.010  0.00  0.00    +0.129 C 
ATOM     16  N   UNL     1       0.002  -0.004   0.002  0.00  0.00    -0.328 N 
BRANCH  16  17
ATOM     17  C   UNL     1      -0.000  -0.730  -1.271  0.00  0.00    +0.096 C 
ATOM     18  C   UNL     1      -1.263  -0.360  -2.067  0.00  0.00    +0.046 C 
ATOM     19  C   UNL     1      -1.090  -0.886  -3.520  0.00  0.00    +0.168 C 
ATOM     20  S   UNL     1       0.681  -0.474  -3.820  0.00  0.00    -0.029 S 
ATOM     21  O   UNL     1       1.315  -1.582  -4.443  0.00  0.00    -0.174 OA
ATOM     22  O   UNL     1       0.760   0.809  -4.426  0.00  0.00    -0.174 OA
ATOM     23  C   UNL     1       1.263  -0.350  -2.081  0.00  0.00    +0.188 C 
ENDBRANCH  16  17
ENDBRANCH   1  16
TORSDOF 4
