REMARK  Name = ZINC07127591
REMARK  5 active torsions:
REMARK  status: ('A' for Active; 'I' for Inactive)
REMARK    1  A    between atoms: C_1  and  C_2
REMARK    2  A    between atoms: C_2  and  O_3
REMARK    3  A    between atoms: O_3  and  C_4
REMARK    4  A    between atoms: C_9  and  C_10
REMARK    5  A    between atoms: C_26  and  C_29
REMARK                            x       y       z     vdW  Elec       q    Type
REMARK                         _______ _______ _______ _____ _____    ______ ____
ROOT
ATOM      1  C   UNL     1       3.598   4.012   0.017  0.00  0.00    +0.212 C 
ATOM      2  N   UNL     1       4.131   5.272  -0.530  0.00  0.00    -0.293 N 
ATOM      3  C   UNL     1       3.509   6.459  -0.248  0.00  0.00    +0.183 C 
ATOM      4  N   UNL     1       2.209   6.519  -0.018  0.00  0.00    -0.183 NA
ATOM      5  C   UNL     1       1.505   5.363   0.005  0.00  0.00    +0.236 A 
ATOM      6  N   UNL     1       2.136   4.134   0.007  0.00  0.00    -0.285 N 
ATOM      7  C   UNL     1       1.163   3.164   0.007  0.00  0.00    +0.072 A 
ATOM      8  C   UNL     1       1.175   1.777   0.000  0.00  0.00    +0.028 A 
ATOM      9  C   UNL     1      -0.013   1.076   0.008  0.00  0.00    +0.002 A 
ATOM     10  C   UNL     1      -1.226   1.748   0.017  0.00  0.00    +0.002 A 
ATOM     11  C   UNL     1      -1.260   3.124   0.030  0.00  0.00    +0.030 A 
ATOM     12  C   UNL     1      -0.067   3.850   0.021  0.00  0.00    +0.091 A 
ATOM     13  N   UNL     1       0.209   5.182   0.021  0.00  0.00    -0.210 NA
ATOM     14  N   UNL     1       4.250   7.608  -0.203  0.00  0.00    -0.331 N 
ATOM     15  H   UNL     1       4.923   5.261  -1.090  0.00  0.00    +0.151 HD
ATOM     16  H   UNL     1       5.205   7.577  -0.370  0.00  0.00    +0.145 HD
ATOM     17  H   UNL     1       3.820   8.455  -0.004  0.00  0.00    +0.145 HD
ENDROOT
BRANCH   1  23
ATOM     18  C   UNL     1       4.116   2.538   1.975  0.00  0.00    +0.128 A 
ATOM     19  C   UNL     1       4.566   2.359   3.276  0.00  0.00    +0.053 A 
ATOM     20  C   UNL     1       4.982   3.444   4.015  0.00  0.00    +0.001 A 
ATOM     21  C   UNL     1       4.964   4.723   3.474  0.00  0.00    +0.125 A 
ATOM     22  C   UNL     1       4.513   4.896   2.168  0.00  0.00    +0.056 A 
ATOM     23  C   UNL     1       4.089   3.812   1.428  0.00  0.00    +0.038 A 
ATOM     24  O   UNL     1       5.429   5.642   4.366  0.00  0.00    -0.488 OA
ATOM     25  C   UNL     1       5.370   5.088   5.691  0.00  0.00    +0.175 C 
ATOM     26  C   UNL     1       5.504   3.568   5.434  0.00  0.00    +0.083 C 
ATOM     27  C   UNL     1       4.031   5.409   6.358  0.00  0.00    +0.052 C 
BRANCH  18  28
ATOM     28  O   UNL     1       3.706   1.470   1.240  0.00  0.00    -0.492 OA
BRANCH  28  30
ATOM     29  C   UNL     1       3.266  -0.882   0.897  0.00  0.00    +0.048 C 
ATOM     30  C   UNL     1       3.763   0.188   1.871  0.00  0.00    +0.225 C 
ENDBRANCH  28  30
ENDBRANCH  18  28
ENDBRANCH   1  23
TORSDOF 3
