REMARK  Name = ZINC66857948
REMARK  6 active torsions:
REMARK  status: ('A' for Active; 'I' for Inactive)
REMARK    1  A    between atoms: C_6  and  C_7
REMARK    2  A    between atoms: C_7  and  N_8
REMARK    3  A    between atoms: C_9  and  N_13
REMARK    4  A    between atoms: C_14  and  C_16
REMARK    5  A    between atoms: C_19  and  S_21
REMARK    6  A    between atoms: S_21  and  N_24
REMARK                            x       y       z     vdW  Elec       q    Type
REMARK                         _______ _______ _______ _____ _____    ______ ____
ROOT
ATOM      1  N   UNL     1      -3.069   1.010  -1.703  0.00  0.00    -0.264 N 
ATOM      2  C   UNL     1      -3.843   1.718  -2.550  0.00  0.00    +0.285 C 
ATOM      3  O   UNL     1      -4.062   1.298  -3.670  0.00  0.00    -0.266 OA
ATOM      4  H   UNL     1      -2.894   1.346  -0.810  0.00  0.00    +0.157 HD
ENDROOT
BRANCH   1   6
ATOM      5  N   UNL     1      -1.726  -1.017  -1.367  0.00  0.00    -0.246 N 
ATOM      6  C   UNL     1      -2.520  -0.204  -2.111  0.00  0.00    +0.124 A 
ATOM      7  C   UNL     1      -2.681  -0.792  -3.329  0.00  0.00    +0.065 A 
ATOM      8  C   UNL     1      -1.967  -1.993  -3.322  0.00  0.00    +0.136 A 
ATOM      9  N   UNL     1      -1.391  -2.126  -2.155  0.00  0.00    -0.178 NA
BRANCH   5  10
ATOM     10  C   UNL     1      -1.293  -0.775   0.011  0.00  0.00    +0.180 C 
BRANCH  10  16
ATOM     11  C   UNL     1      -0.017   1.378   0.010  0.00  0.00    +0.007 A 
ATOM     12  C   UNL     1       1.170   2.087   0.002  0.00  0.00    +0.023 A 
ATOM     13  C   UNL     1       2.378   1.413  -0.013  0.00  0.00    +0.076 A 
ATOM     14  C   UNL     1       2.397   0.028  -0.021  0.00  0.00    +0.142 A 
ATOM     15  C   UNL     1       1.208  -0.680  -0.013  0.00  0.00    +0.045 A 
ATOM     16  C   UNL     1       0.002  -0.004   0.002  0.00  0.00    -0.023 A 
ATOM     17  F   UNL     1       3.576  -0.632  -0.036  0.00  0.00    -0.204 F 
ATOM     18 CL   UNL     1       3.869   2.303  -0.023  0.00  0.00    -0.081 Cl
ENDBRANCH  10  16
ENDBRANCH   5  10
ENDBRANCH   1   6
BRANCH   2  19
ATOM     19  C   UNL     1      -4.421   2.995  -2.120  0.00  0.00    +0.192 A 
ATOM     20  C   UNL     1      -5.223   3.807  -2.871  0.00  0.00    +0.057 A 
ATOM     21  C   UNL     1      -5.541   4.914  -2.069  0.00  0.00    +0.072 A 
ATOM     22  C   UNL     1      -4.928   4.732  -0.879  0.00  0.00    +0.258 A 
ATOM     23  O   UNL     1      -4.258   3.573  -0.911  0.00  0.00    -0.432 OA
BRANCH  22  24
ATOM     24  S   UNL     1      -5.002   5.836   0.492  0.00  0.00    +0.089 S 
ATOM     25  O   UNL     1      -3.841   5.591   1.274  0.00  0.00    -0.150 OA
ATOM     26  O   UNL     1      -5.307   7.120  -0.036  0.00  0.00    -0.150 OA
BRANCH  24  27
ATOM     27  N   UNL     1      -6.300   5.383   1.416  0.00  0.00    -0.201 NA
ATOM     28  H   UNL     1      -6.847   4.629   1.147  0.00  0.00    +0.144 HD
ATOM     29  H   UNL     1      -6.513   5.873   2.225  0.00  0.00    +0.144 HD
ENDBRANCH  24  27
ENDBRANCH  22  24
ENDBRANCH   2  19
TORSDOF 6
