REMARK  Name = ZINC33919684
REMARK  8 active torsions:
REMARK  status: ('A' for Active; 'I' for Inactive)
REMARK    1  A    between atoms: C_1  and  C_2
REMARK    2  A    between atoms: C_2  and  C_3
REMARK    3  A    between atoms: C_6  and  N_9
REMARK    4  A    between atoms: C_14  and  C_26
REMARK    5  A    between atoms: N_16  and  C_22
REMARK    6  A    between atoms: C_22  and  C_23
REMARK    7  A    between atoms: C_29  and  O_32
REMARK    8  A    between atoms: O_32  and  C_33
REMARK                            x       y       z     vdW  Elec       q    Type
REMARK                         _______ _______ _______ _____ _____    ______ ____
ROOT
ATOM      1  N   UNL     1       2.747  -1.884   4.600  0.00  0.00    -0.208 N 
ATOM      2  C   UNL     1       2.129  -2.162   5.793  0.00  0.00    +0.234 C 
ATOM      3  O   UNL     1       0.940  -2.268   6.002  0.00  0.00    -0.274 OA
ATOM      4  C   UNL     1       3.207  -2.302   6.745  0.00  0.00    +0.139 C 
ATOM      5  C   UNL     1       3.457  -2.917   8.059  0.00  0.00    +0.130 C 
ATOM      6  N   UNL     1       4.952  -3.069   8.065  0.00  0.00    -0.170 NA
ATOM      7  O   UNL     1       5.437  -2.627   6.725  0.00  0.00    -0.282 OA
ATOM      8  C   UNL     1       4.337  -2.959   5.857  0.00  0.00    +0.242 C 
ATOM      9  C   UNL     1       4.092  -2.114   4.636  0.00  0.00    +0.258 C 
ATOM     10  O   UNL     1       4.922  -1.718   3.846  0.00  0.00    -0.272 OA
ENDROOT
BRANCH   1  14
ATOM     11  C   UNL     1       0.731  -0.503   1.223  0.00  0.00    -0.048 A 
ATOM     12  C   UNL     1       2.098  -0.709   1.175  0.00  0.00    +0.005 A 
ATOM     13  C   UNL     1       2.768  -1.167   2.292  0.00  0.00    +0.024 A 
ATOM     14  C   UNL     1       2.069  -1.419   3.465  0.00  0.00    +0.044 A 
ATOM     15  C   UNL     1       0.697  -1.211   3.510  0.00  0.00    +0.024 A 
ATOM     16  C   UNL     1       0.033  -0.749   2.391  0.00  0.00    +0.005 A 
BRANCH  11  18
ATOM     17  C   UNL     1      -0.019   1.526   0.010  0.00  0.00    +0.009 C 
ATOM     18  C   UNL     1       0.002  -0.004   0.002  0.00  0.00    +0.032 C 
ENDBRANCH  11  18
ENDBRANCH   1  14
BRANCH   5  19
ATOM     19  C   UNL     1       2.777  -4.258   8.161  0.00  0.00    -0.027 A 
ATOM     20  C   UNL     1       3.363  -5.374   7.591  0.00  0.00    +0.009 A 
ATOM     21  C   UNL     1       2.742  -6.604   7.682  0.00  0.00    +0.046 A 
ATOM     22  C   UNL     1       1.530  -6.721   8.348  0.00  0.00    +0.120 A 
ATOM     23  C   UNL     1       0.945  -5.600   8.919  0.00  0.00    +0.046 A 
ATOM     24  C   UNL     1       1.573  -4.373   8.830  0.00  0.00    +0.009 A 
BRANCH  22  25
ATOM     25  O   UNL     1       0.917  -7.930   8.438  0.00  0.00    -0.495 OA
ATOM     26  C   UNL     1      -0.328  -7.975   9.138  0.00  0.00    +0.277 C 
ENDBRANCH  22  25
ENDBRANCH   5  19
BRANCH   6  27
ATOM     27  C   UNL     1       5.559  -2.267   9.136  0.00  0.00    +0.210 C 
BRANCH  27  28
ATOM     28  C   UNL     1       7.040  -2.538   9.189  0.00  0.00    +0.227 C 
ATOM     29  O   UNL     1       7.541  -3.323   8.412  0.00  0.00    -0.275 OA
ATOM     30  N   UNL     1       7.808  -1.909  10.101  0.00  0.00    -0.328 N 
ATOM     31  H   UNL     1       7.407  -1.282  10.722  0.00  0.00    +0.145 HD
ATOM     32  H   UNL     1       8.761  -2.084  10.135  0.00  0.00    +0.145 HD
ENDBRANCH  27  28
ENDBRANCH   6  27
TORSDOF 6
