REMARK  Name = ZINC59109487
REMARK  7 active torsions:
REMARK  status: ('A' for Active; 'I' for Inactive)
REMARK    1  A    between atoms: C_1  and  C_2
REMARK    2  A    between atoms: C_4  and  C_19
REMARK    3  A    between atoms: C_5  and  C_18
REMARK    4  A    between atoms: N_6  and  C_7
REMARK    5  A    between atoms: C_8  and  C_16
REMARK    6  A    between atoms: N_26  and  C_29
REMARK    7  A    between atoms: C_29  and  C_30
REMARK                            x       y       z     vdW  Elec       q    Type
REMARK                         _______ _______ _______ _____ _____    ______ ____
ROOT
ATOM      1  C   UNL     1       0.200   1.497  -0.138  0.00  0.00    +0.064 C 
ATOM      2  C   UNL     1       0.204  -0.009  -0.095  0.00  0.00    +0.022 A 
ATOM      3  C   UNL     1       0.302  -0.816  -1.163  0.00  0.00    +0.031 A 
ATOM      4  C   UNL     1       0.264  -2.194  -0.648  0.00  0.00    -0.003 A 
ATOM      5  C   UNL     1       0.141  -2.080   0.730  0.00  0.00    +0.029 A 
ATOM      6  N   UNL     1       0.113  -0.770   1.040  0.00  0.00    -0.310 N 
ATOM      7  C   UNL     1       0.060  -3.223   1.709  0.00  0.00    +0.064 C 
ENDROOT
BRANCH   4   8
ATOM      8  C   UNL     1       0.336  -3.387  -1.402  0.00  0.00    +0.028 C 
ATOM      9  C   UNL     1      -0.418  -3.524  -2.561  0.00  0.00    +0.102 C 
ATOM     10  C   UNL     1      -1.446  -2.540  -2.929  0.00  0.00    +0.276 C 
ATOM     11  O   UNL     1      -1.687  -1.468  -2.145  0.00  0.00    -0.268 OA
ATOM     12  N   UNL     1      -2.129  -2.729  -4.046  0.00  0.00    -0.123 NA
ATOM     13  C   UNL     1      -1.912  -3.776  -4.838  0.00  0.00    +0.336 C 
ATOM     14  O   UNL     1      -2.581  -3.880  -5.850  0.00  0.00    -0.250 OA
ATOM     15  N   UNL     1      -0.996  -4.722  -4.582  0.00  0.00    -0.216 N 
ATOM     16  C   UNL     1      -0.218  -4.660  -3.481  0.00  0.00    +0.259 C 
ATOM     17  O   UNL     1       0.617  -5.515  -3.251  0.00  0.00    -0.269 OA
BRANCH  15  18
ATOM     18  C   UNL     1      -0.833  -5.837  -5.518  0.00  0.00    +0.153 C 
BRANCH  18  19
ATOM     19  C   UNL     1       0.195  -5.474  -6.559  0.00  0.00    -0.030 A 
ATOM     20  C   UNL     1      -0.197  -4.847  -7.727  0.00  0.00    +0.005 A 
ATOM     21  C   UNL     1       0.746  -4.514  -8.681  0.00  0.00    +0.000 A 
ATOM     22  C   UNL     1       2.080  -4.807  -8.467  0.00  0.00    +0.000 A 
ATOM     23  C   UNL     1       2.471  -5.433  -7.299  0.00  0.00    +0.000 A 
ATOM     24  C   UNL     1       1.529  -5.762  -6.342  0.00  0.00    +0.005 A 
ENDBRANCH  18  19
ENDBRANCH  15  18
ENDBRANCH   4   8
BRANCH   6  25
ATOM     25  C   UNL     1       0.004  -0.261   2.329  0.00  0.00    +0.103 A 
ATOM     26  C   UNL     1       0.854   0.624   2.970  0.00  0.00    +0.086 A 
ATOM     27  C   UNL     1       0.517   1.005   4.329  0.00  0.00    -0.018 A 
ATOM     28  C   UNL     1      -0.612   0.429   4.800  0.00  0.00    -0.004 A 
ATOM     29  S   UNL     1      -1.194  -0.575   3.464  0.00  0.00    -0.074 S 
ATOM     30  C   UNL     1      -1.219   0.617   6.156  0.00  0.00    +0.043 C 
ATOM     31  C   UNL     1      -0.169   1.269   7.068  0.00  0.00    +0.005 C 
ATOM     32  C   UNL     1       0.453   2.461   6.335  0.00  0.00    +0.005 C 
ATOM     33  C   UNL     1       1.331   1.965   5.184  0.00  0.00    +0.037 C 
BRANCH  26  34
ATOM     34  C   UNL     1       2.019   1.143   2.318  0.00  0.00    +0.102 C 
ATOM     35  N   UNL     1       2.943   1.554   1.801  0.00  0.00    -0.191 NA
ENDBRANCH  26  34
ENDBRANCH   6  25
TORSDOF 5
