REMARK  Name = ZINC36701643
REMARK  7 active torsions:
REMARK  status: ('A' for Active; 'I' for Inactive)
REMARK    1  A    between atoms: C_1  and  C_2
REMARK    2  A    between atoms: C_4  and  C_23
REMARK    3  A    between atoms: C_6  and  C_14
REMARK    4  A    between atoms: C_17  and  O_22
REMARK    5  A    between atoms: C_18  and  O_20
REMARK    6  A    between atoms: O_20  and  C_21
REMARK    7  A    between atoms: N_25  and  C_26
REMARK                            x       y       z     vdW  Elec       q    Type
REMARK                         _______ _______ _______ _____ _____    ______ ____
ROOT
ATOM      1  C   UNL     1       2.103   1.282  -0.880  0.00  0.00    +0.028 C 
ATOM      2  C   UNL     1       2.459  -0.182  -1.144  0.00  0.00    +0.084 C 
ATOM      3  C   UNL     1       1.175  -1.002  -1.315  0.00  0.00    +0.124 C 
ATOM      4  C   UNL     1       0.333  -0.415  -2.454  0.00  0.00    +0.154 C 
ATOM      5  N   UNL     1       1.191  -0.220  -3.623  0.00  0.00    -0.225 N 
ATOM      6  C   UNL     1       2.544  -0.163  -3.575  0.00  0.00    +0.214 A 
ATOM      7  N   UNL     1       2.984   0.016  -4.792  0.00  0.00    -0.202 NA
ATOM      8  C   UNL     1       1.949   0.080  -5.636  0.00  0.00    +0.247 A 
ATOM      9  N   UNL     1       0.835  -0.059  -4.962  0.00  0.00    -0.156 NA
ATOM     10  N   UNL     1       3.254  -0.282  -2.384  0.00  0.00    -0.310 N 
ATOM     11  H   UNL     1       4.214  -0.425  -2.367  0.00  0.00    +0.149 HD
ENDROOT
BRANCH   4  12
ATOM     12  C   UNL     1      -0.784  -1.365  -2.798  0.00  0.00    -0.019 A 
ATOM     13  C   UNL     1      -0.520  -2.501  -3.541  0.00  0.00    +0.009 A 
ATOM     14  C   UNL     1      -1.542  -3.376  -3.859  0.00  0.00    +0.049 A 
ATOM     15  C   UNL     1      -2.834  -3.116  -3.433  0.00  0.00    +0.158 A 
ATOM     16  C   UNL     1      -3.100  -1.974  -2.685  0.00  0.00    +0.162 A 
ATOM     17  C   UNL     1      -2.071  -1.103  -2.365  0.00  0.00    +0.055 A 
BRANCH  16  18
ATOM     18  O   UNL     1      -4.367  -1.714  -2.264  0.00  0.00    -0.491 OA
ATOM     19  C   UNL     1      -4.566  -0.522  -1.501  0.00  0.00    +0.277 C 
ENDBRANCH  16  18
BRANCH  15  20
ATOM     20  O   UNL     1      -3.841  -3.976  -3.745  0.00  0.00    -0.503 OA
ATOM     21  H   UNL     1      -3.977  -4.676  -3.092  0.00  0.00    +0.292 HD
ENDBRANCH  15  20
ENDBRANCH   4  12
BRANCH   3  22
ATOM     22  C   UNL     1       1.532  -2.430  -1.641  0.00  0.00    +0.224 C 
ATOM     23  O   UNL     1       2.449  -2.668  -2.398  0.00  0.00    -0.275 OA
ATOM     24  N   UNL     1       0.832  -3.441  -1.091  0.00  0.00    -0.285 N 
ATOM     25  H   UNL     1       0.051  -3.252  -0.547  0.00  0.00    +0.155 HD
BRANCH  24  26
ATOM     26  C   UNL     1       1.231  -4.765  -1.303  0.00  0.00    +0.033 A 
ATOM     27  C   UNL     1       0.281  -5.774  -1.386  0.00  0.00    +0.023 A 
ATOM     28  C   UNL     1       0.678  -7.080  -1.595  0.00  0.00    +0.002 A 
ATOM     29  C   UNL     1       2.022  -7.384  -1.723  0.00  0.00    +0.000 A 
ATOM     30  C   UNL     1       2.971  -6.381  -1.640  0.00  0.00    +0.002 A 
ATOM     31  C   UNL     1       2.579  -5.072  -1.437  0.00  0.00    +0.023 A 
ENDBRANCH  24  26
ENDBRANCH   3  22
TORSDOF 5
