REMARK  Name = ZINC19355754
REMARK  12 active torsions:
REMARK  status: ('A' for Active; 'I' for Inactive)
REMARK    1  A    between atoms: C_1  and  C_2
REMARK    2  A    between atoms: C_2  and  C_3
REMARK    3  A    between atoms: C_3  and  C_4
REMARK    4  A    between atoms: C_4  and  N_5
REMARK    5  A    between atoms: C_6  and  N_35
REMARK    6  A    between atoms: C_7  and  N_14
REMARK    7  A    between atoms: N_14  and  C_15
REMARK    8  A    between atoms: C_20  and  C_22
REMARK    9  A    between atoms: C_22  and  S_23
REMARK   10  A    between atoms: S_23  and  C_24
REMARK   11  A    between atoms: C_27  and  C_32
REMARK   12  A    between atoms: N_28  and  C_29
REMARK                            x       y       z     vdW  Elec       q    Type
REMARK                         _______ _______ _______ _____ _____    ______ ____
ROOT
ATOM      1  N   UNL     1       2.879   1.482  -0.397  0.00  0.00    -0.260 N 
ATOM      2  C   UNL     1       4.041   2.055  -0.775  0.00  0.00    +0.231 C 
ATOM      3  O   UNL     1       4.076   3.238  -1.043  0.00  0.00    -0.274 OA
ENDROOT
BRANCH   1   6
ATOM      4  N   UNL     1      -0.019   3.392  -1.605  0.00  0.00    -0.280 N 
ATOM      5  C   UNL     1       1.148   2.664  -1.616  0.00  0.00    +0.127 A 
ATOM      6  C   UNL     1       1.683   2.232  -0.419  0.00  0.00    +0.140 A 
ATOM      7  C   UNL     1       1.016   2.551   0.778  0.00  0.00    +0.277 A 
ATOM      8  O   UNL     1       1.467   2.182   1.849  0.00  0.00    -0.266 OA
ATOM      9  N   UNL     1      -0.127   3.263   0.733  0.00  0.00    -0.273 N 
ATOM     10  H   UNL     1      -0.659   3.510   1.663  0.00  0.00    +0.173 HD
ATOM     11  C   UNL     1      -0.631   3.680  -0.442  0.00  0.00    +0.331 A 
ATOM     12  O   UNL     1      -1.662   4.325  -0.454  0.00  0.00    -0.246 OA
BRANCH   5  13
ATOM     13  N   UNL     1       1.773   2.369  -2.804  0.00  0.00    -0.343 N 
ATOM     14  H   UNL     1       2.706   1.786  -2.805  0.00  0.00    +0.144 HD
ATOM     15  H   UNL     1       1.341   2.717  -3.754  0.00  0.00    +0.144 HD
ENDBRANCH   5  13
BRANCH   4  16
ATOM     16  C   UNL     1      -0.598   3.857  -2.868  0.00  0.00    +0.128 C 
BRANCH  16  17
ATOM     17  C   UNL     1      -1.562   2.799  -3.407  0.00  0.00    +0.021 C 
BRANCH  17  19
ATOM     18  C   UNL     1      -3.131   2.227  -5.265  0.00  0.00    +0.004 C 
ATOM     19  C   UNL     1      -2.167   3.285  -4.726  0.00  0.00    -0.002 C 
ENDBRANCH  17  19
ENDBRANCH  16  17
ENDBRANCH   4  16
ENDBRANCH   1   6
BRANCH   1  20
ATOM     20  C   UNL     1       2.858   0.083   0.036  0.00  0.00    +0.082 C 
ATOM     21  C   UNL     1       3.745  -0.097   1.285  0.00  0.00    +0.023 C 
ATOM     22  C   UNL     1       4.407  -1.483   1.084  0.00  0.00    +0.002 C 
ATOM     23  C   UNL     1       4.684  -1.512  -0.440  0.00  0.00    +0.002 C 
ATOM     24  C   UNL     1       3.454  -0.817  -1.061  0.00  0.00    +0.023 C 
ENDBRANCH   1  20
BRANCH   2  25
ATOM     25  C   UNL     1       5.296   1.225  -0.863  0.00  0.00    +0.173 C 
BRANCH  25  26
ATOM     26  S   UNL     1       6.712   2.305  -1.188  0.00  0.00    -0.077 S 
BRANCH  26  27
ATOM     27  C   UNL     1       8.004   1.108  -1.241  0.00  0.00    +0.192 A 
ATOM     28  N   UNL     1       7.874  -0.188  -1.078  0.00  0.00    -0.122 NA
ATOM     29  N   UNL     1       9.021  -0.758  -1.180  0.00  0.00    -0.133 NA
ATOM     30  C   UNL     1       9.944   0.132  -1.412  0.00  0.00    +0.137 A 
ATOM     31  N   UNL     1       9.328   1.352  -1.465  0.00  0.00    -0.303 N 
BRANCH  31  32
ATOM     32  C   UNL     1       9.959   2.652  -1.708  0.00  0.00    +0.091 C 
ATOM     33  C   UNL     1       9.167   3.904  -1.326  0.00  0.00    +0.027 C 
ATOM     34  C   UNL     1       9.356   3.537  -2.800  0.00  0.00    +0.027 C 
ENDBRANCH  31  32
BRANCH  30  35
ATOM     35  C   UNL     1      11.416  -0.134  -1.594  0.00  0.00    +0.057 C 
ATOM     36  C   UNL     1      11.862  -1.593  -1.706  0.00  0.00    +0.012 C 
ATOM     37  C   UNL     1      12.163  -0.795  -0.435  0.00  0.00    +0.012 C 
ENDBRANCH  30  35
ENDBRANCH  26  27
ENDBRANCH  25  26
ENDBRANCH   2  25
TORSDOF 11
