REMARK  Name = ZINC35157165
REMARK  7 active torsions:
REMARK  status: ('A' for Active; 'I' for Inactive)
REMARK    1  A    between atoms: C_1  and  C_2
REMARK    2  A    between atoms: C_9  and  C_16
REMARK    3  A    between atoms: C_10  and  N_11
REMARK    4  A    between atoms: N_11  and  C_12
REMARK    5  A    between atoms: C_12  and  C_13
REMARK    6  A    between atoms: C_12  and  C_14
REMARK    7  A    between atoms: C_12  and  C_15
REMARK                            x       y       z     vdW  Elec       q    Type
REMARK                         _______ _______ _______ _____ _____    ______ ____
ROOT
ATOM      1  C   UNL     1       0.657  -0.287  -2.866  0.00  0.00    +0.047 C 
ATOM      2  C   UNL     1       0.531  -1.603  -2.141  0.00  0.00    -0.008 A 
ATOM      3  C   UNL     1       0.504  -2.770  -2.838  0.00  0.00    +0.008 A 
ATOM      4  C   UNL     1       0.386  -3.991  -2.152  0.00  0.00    +0.018 A 
ATOM      5  C   UNL     1       0.300  -4.011  -0.807  0.00  0.00    +0.094 A 
ATOM      6  N   UNL     1       0.326  -2.845  -0.090  0.00  0.00    -0.287 N 
ATOM      7  C   UNL     1       0.446  -1.635  -0.734  0.00  0.00    +0.143 A 
ATOM      8  N   UNL     1       0.453  -0.672   0.175  0.00  0.00    -0.225 NA
ATOM      9  C   UNL     1       0.346  -1.218   1.401  0.00  0.00    +0.118 A 
ATOM     10  C   UNL     1       0.257  -2.588   1.252  0.00  0.00    +0.132 A 
ENDROOT
BRANCH   9  11
ATOM     11  C   UNL     1       0.318  -0.480   2.680  0.00  0.00    +0.041 A 
ATOM     12  C   UNL     1       0.978   0.668   3.029  0.00  0.00    +0.018 A 
ATOM     13  C   UNL     1       0.794   1.179   4.297  0.00  0.00    +0.008 A 
ATOM     14  C   UNL     1      -0.031   0.531   5.157  0.00  0.00    +0.046 A 
ATOM     15  S   UNL     1      -0.591  -0.849   4.172  0.00  0.00    -0.095 S 
ENDBRANCH   9  11
BRANCH  10  16
ATOM     16  N   UNL     1       0.134  -3.530   2.274  0.00  0.00    -0.324 N 
ATOM     17  H   UNL     1       0.160  -3.246   3.201  0.00  0.00    +0.148 HD
BRANCH  16  18
ATOM     18  C   UNL     1      -0.033  -4.949   1.948  0.00  0.00    +0.025 C 
ATOM     19  C   UNL     1       1.226  -5.462   1.245  0.00  0.00    +0.031 C 
ATOM     20  C   UNL     1      -0.259  -5.745   3.234  0.00  0.00    +0.031 C 
ATOM     21  C   UNL     1      -1.239  -5.120   1.022  0.00  0.00    +0.031 C 
ENDBRANCH  16  18
ENDBRANCH  10  16
TORSDOF 3
