REMARK  Name = ZINC44749563
REMARK  5 active torsions:
REMARK  status: ('A' for Active; 'I' for Inactive)
REMARK    1  A    between atoms: C_1  and  C_2
REMARK    2  A    between atoms: C_4  and  N_21
REMARK    3  A    between atoms: C_7  and  C_8
REMARK    4  A    between atoms: N_12  and  C_13
REMARK    5  A    between atoms: C_13  and  C_14
REMARK                            x       y       z     vdW  Elec       q    Type
REMARK                         _______ _______ _______ _____ _____    ______ ____
ROOT
ATOM      1  C   UNL     1       0.024   0.021   2.492  0.00  0.00    +0.182 A 
ATOM      2  N   UNL     1       0.093   1.327   2.651  0.00  0.00    -0.108 NA
ATOM      3  N   UNL     1       0.070   1.630   3.899  0.00  0.00    -0.023 NA
ATOM      4  N   UNL     1      -0.014   0.564   4.619  0.00  0.00    -0.043 NA
ATOM      5  N   UNL     1      -0.052  -0.526   3.731  0.00  0.00    -0.221 N 
ENDROOT
BRANCH   1  12
ATOM      6  C   UNL     1      -0.082   1.501   0.011  0.00  0.00    +0.044 C 
ATOM      7  C   UNL     1      -0.027  -0.005   0.002  0.00  0.00    -0.038 A 
ATOM      8  C   UNL     1      -0.022  -0.688  -1.194  0.00  0.00    +0.026 A 
ATOM      9  C   UNL     1       0.029  -2.078  -1.203  0.00  0.00    +0.025 A 
ATOM     10  C   UNL     1       0.074  -2.782  -0.004  0.00  0.00    +0.023 A 
ATOM     11  C   UNL     1       0.070  -2.104   1.195  0.00  0.00    +0.014 A 
ATOM     12  C   UNL     1       0.024  -0.709   1.206  0.00  0.00    +0.024 A 
BRANCH   9  13
ATOM     13  N   UNL     1       0.033  -2.767  -2.415  0.00  0.00    -0.358 N 
ATOM     14  H   UNL     1       0.001  -2.276  -3.252  0.00  0.00    +0.142 HD
ATOM     15  H   UNL     1       0.068  -3.736  -2.422  0.00  0.00    +0.142 HD
ENDBRANCH   9  13
ENDBRANCH   1  12
BRANCH   5  16
ATOM     16  C   UNL     1      -0.151  -1.948   4.071  0.00  0.00    +0.182 C 
BRANCH  16  17
ATOM     17  C   UNL     1      -0.335  -2.096   5.559  0.00  0.00    -0.025 A 
ATOM     18  C   UNL     1       0.767  -2.104   6.394  0.00  0.00    +0.005 A 
ATOM     19  C   UNL     1       0.599  -2.241   7.760  0.00  0.00    +0.001 A 
ATOM     20  C   UNL     1      -0.671  -2.369   8.291  0.00  0.00    +0.015 A 
ATOM     21  C   UNL     1      -1.773  -2.361   7.456  0.00  0.00    +0.018 A 
ATOM     22  C   UNL     1      -1.605  -2.219   6.090  0.00  0.00    +0.020 A 
ATOM     23 BR   UNL     1      -3.510  -2.538   8.181  0.00  0.00    -0.050 Br
ENDBRANCH  16  17
ENDBRANCH   5  16
TORSDOF 4
