REMARK  Name = ZINC00161641
REMARK  3 active torsions:
REMARK  status: ('A' for Active; 'I' for Inactive)
REMARK    1  A    between atoms: C_9  and  O_14
REMARK    2  A    between atoms: O_14  and  C_15
REMARK    3  A    between atoms: C_18  and  N_21
REMARK                            x       y       z     vdW  Elec       q    Type
REMARK                         _______ _______ _______ _____ _____    ______ ____
ROOT
ATOM      1  C   UNL     1       3.516   6.372   0.669  0.00  0.00    +0.001 A 
ATOM      2  C   UNL     1       4.724   5.706   0.599  0.00  0.00    +0.001 A 
ATOM      3  C   UNL     1       4.760   4.331   0.427  0.00  0.00    +0.012 A 
ATOM      4  C   UNL     1       3.573   3.617   0.326  0.00  0.00    +0.034 A 
ATOM      5  C   UNL     1       2.343   4.295   0.398  0.00  0.00    +0.036 A 
ATOM      6  C   UNL     1       2.323   5.674   0.570  0.00  0.00    +0.012 A 
ATOM      7  C   UNL     1       1.084   3.527   0.285  0.00  0.00    +0.230 C 
ATOM      8  O   UNL     1       0.013   4.098   0.340  0.00  0.00    -0.283 OA
ATOM      9  C   UNL     1       1.136   2.058   0.109  0.00  0.00    +0.197 C 
ATOM     10  C   UNL     1       2.321   1.413   0.040  0.00  0.00    +0.134 C 
ATOM     11  C   UNL     1       3.585   2.148   0.144  0.00  0.00    +0.209 C 
ATOM     12  O   UNL     1       4.643   1.552   0.081  0.00  0.00    -0.286 OA
ATOM     13 CL   UNL     1       2.347  -0.310  -0.173  0.00  0.00    -0.076 Cl
ENDROOT
BRANCH   9  14
ATOM     14  O   UNL     1      -0.016   1.355   0.009  0.00  0.00    -0.451 OA
BRANCH  14  15
ATOM     15  C   UNL     1      -0.819   1.288   1.104  0.00  0.00    +0.129 A 
ATOM     16  C   UNL     1      -0.394   1.826   2.311  0.00  0.00    +0.048 A 
ATOM     17  C   UNL     1      -1.211   1.762   3.422  0.00  0.00    +0.026 A 
ATOM     18  C   UNL     1      -2.454   1.150   3.334  0.00  0.00    +0.025 A 
ATOM     19  C   UNL     1      -2.878   0.607   2.128  0.00  0.00    +0.026 A 
ATOM     20  C   UNL     1      -2.062   0.676   1.016  0.00  0.00    +0.048 A 
BRANCH  18  21
ATOM     21  N   UNL     1      -3.280   1.080   4.461  0.00  0.00    -0.358 N 
ATOM     22  H   UNL     1      -4.149   0.652   4.400  0.00  0.00    +0.142 HD
ATOM     23  H   UNL     1      -2.985   1.460   5.303  0.00  0.00    +0.142 HD
ENDBRANCH  18  21
ENDBRANCH  14  15
ENDBRANCH   9  14
TORSDOF 3
