REMARK  Name = ZINC65694802
REMARK  4 active torsions:
REMARK  status: ('A' for Active; 'I' for Inactive)
REMARK    1  A    between atoms: C_1  and  C_2
REMARK    2  A    between atoms: C_2  and  C_15
REMARK    3  A    between atoms: N_5  and  C_9
REMARK    4  A    between atoms: C_9  and  C_10
REMARK                            x       y       z     vdW  Elec       q    Type
REMARK                         _______ _______ _______ _____ _____    ______ ____
ROOT
ATOM      1  C   UNL     1      -0.019   1.526   0.010  0.00  0.00    +0.047 C 
ATOM      2  C   UNL     1       0.002  -0.004   0.002  0.00  0.00    +0.138 C 
ATOM      3  C   UNL     1       0.815  -0.520  -1.169  0.00  0.00    +0.251 C 
ATOM      4  O   UNL     1       0.595  -0.342  -2.348  0.00  0.00    -0.272 OA
ATOM      5  N   UNL     1       1.833  -1.217  -0.627  0.00  0.00    -0.216 N 
ATOM      6  C   UNL     1       1.777  -1.214   0.710  0.00  0.00    +0.310 C 
ATOM      7  O   UNL     1       2.586  -1.776   1.421  0.00  0.00    -0.252 OA
ATOM      8  N   UNL     1       0.724  -0.519   1.178  0.00  0.00    -0.281 N 
ATOM      9  H   UNL     1       0.487  -0.383   2.109  0.00  0.00    +0.152 HD
ENDROOT
BRANCH   2  10
ATOM     10  C   UNL     1      -1.401  -0.551  -0.040  0.00  0.00    +0.020 A 
ATOM     11  C   UNL     1      -1.863  -1.350   0.990  0.00  0.00    +0.009 A 
ATOM     12  C   UNL     1      -3.150  -1.852   0.951  0.00  0.00    +0.001 A 
ATOM     13  C   UNL     1      -3.977  -1.557  -0.117  0.00  0.00    +0.003 A 
ATOM     14  C   UNL     1      -3.518  -0.758  -1.147  0.00  0.00    +0.039 A 
ATOM     15  C   UNL     1      -2.231  -0.250  -1.107  0.00  0.00    +0.129 A 
ATOM     16  F   UNL     1      -1.782   0.534  -2.111  0.00  0.00    -0.205 F 
ENDBRANCH   2  10
BRANCH   5  17
ATOM     17  C   UNL     1       2.871  -1.896  -1.406  0.00  0.00    +0.195 C 
BRANCH  17  18
ATOM     18  C   UNL     1       4.020  -0.950  -1.644  0.00  0.00    +0.155 A 
ATOM     19  C   UNL     1       5.096  -0.796  -0.849  0.00  0.00    +0.069 A 
ATOM     20  C   UNL     1       5.929   0.180  -1.425  0.00  0.00    +0.157 A 
ATOM     21  N   UNL     1       5.367   0.593  -2.526  0.00  0.00    -0.086 NA
ATOM     22  O   UNL     1       4.153  -0.118  -2.688  0.00  0.00    -0.358 OA
ENDBRANCH  17  18
ENDBRANCH   5  17
TORSDOF 3
