REMARK  Name = ZINC09135741
REMARK  10 active torsions:
REMARK  status: ('A' for Active; 'I' for Inactive)
REMARK    1  A    between atoms: C_1  and  C_2
REMARK    2  A    between atoms: C_2  and  O_3
REMARK    3  A    between atoms: O_3  and  C_4
REMARK    4  A    between atoms: C_9  and  N_10
REMARK    5  A    between atoms: C_11  and  C_13
REMARK    6  A    between atoms: N_15  and  C_16
REMARK    7  A    between atoms: C_16  and  C_17
REMARK    8  A    between atoms: C_17  and  C_19
REMARK    9  A    between atoms: C_17  and  N_67
REMARK   10  A    between atoms: N_28  and  C_29
REMARK                            x       y       z     vdW  Elec       q    Type
REMARK                         _______ _______ _______ _____ _____    ______ ____
ROOT
ATOM      1  C   UNL     1       2.278  -2.110   5.240  0.00  0.00    +0.094 C 
ENDROOT
BRANCH   1   4
ATOM      2  C   UNL     1       1.385  -0.398   6.726  0.00  0.00    +0.299 C 
ATOM      3  O   UNL     1       1.211  -1.258   7.565  0.00  0.00    -0.265 OA
ATOM      4  N   UNL     1       1.913  -0.721   5.529  0.00  0.00    -0.309 N 
ATOM      5  H   UNL     1       2.052  -0.034   4.859  0.00  0.00    +0.149 HD
BRANCH   2   7
ATOM      6  N   UNL     1       0.484   1.341   8.217  0.00  0.00    -0.275 N 
ATOM      7  C   UNL     1       1.013   1.018   7.021  0.00  0.00    +0.303 C 
ATOM      8  O   UNL     1       1.186   1.878   6.182  0.00  0.00    -0.265 OA
ATOM      9  H   UNL     1       0.416   0.670   8.915  0.00  0.00    +0.155 HD
BRANCH   6  15
ATOM     10  C   UNL     1      -0.116   3.105   9.761  0.00  0.00    +0.142 A 
ATOM     11  C   UNL     1      -0.563   4.396   9.989  0.00  0.00    +0.047 A 
ATOM     12  C   UNL     1      -0.860   5.224   8.922  0.00  0.00    +0.004 A 
ATOM     13  C   UNL     1      -0.713   4.767   7.625  0.00  0.00    +0.002 A 
ATOM     14  C   UNL     1      -0.263   3.482   7.389  0.00  0.00    +0.027 A 
ATOM     15  C   UNL     1       0.033   2.643   8.454  0.00  0.00    +0.076 A 
BRANCH  10  16
ATOM     16  O   UNL     1       0.177   2.290  10.809  0.00  0.00    -0.490 OA
BRANCH  16  18
ATOM     17  C   UNL     1       0.377   1.775  13.162  0.00  0.00    +0.048 C 
ATOM     18  C   UNL     1       0.001   2.830  12.120  0.00  0.00    +0.226 C 
ENDBRANCH  16  18
ENDBRANCH  10  16
ENDBRANCH   6  15
ENDBRANCH   2   7
ENDBRANCH   1   4
BRANCH   1  19
ATOM     19  C   UNL     1       2.727  -2.227   3.782  0.00  0.00    -0.020 C 
BRANCH  19  20
ATOM     20  C   UNL     1       1.554  -1.962   2.873  0.00  0.00    -0.059 A 
ATOM     21  C   UNL     1       0.627  -2.959   2.631  0.00  0.00    +0.004 A 
ATOM     22  C   UNL     1      -0.443  -2.716   1.797  0.00  0.00    +0.023 A 
ATOM     23  C   UNL     1      -0.599  -1.467   1.194  0.00  0.00    +0.033 A 
ATOM     24  C   UNL     1       0.329  -0.471   1.444  0.00  0.00    -0.026 A 
ATOM     25  C   UNL     1       1.404  -0.725   2.281  0.00  0.00    +0.007 A 
ATOM     26  C   UNL     1       0.209   0.904   0.837  0.00  0.00    +0.038 C 
ATOM     27  C   UNL     1      -0.788   0.869  -0.324  0.00  0.00    +0.024 C 
ATOM     28  C   UNL     1      -2.041   0.123   0.152  0.00  0.00    +0.105 C 
ATOM     29  N   UNL     1      -1.698  -1.286   0.356  0.00  0.00    -0.333 N 
ATOM     30  C   UNL     1      -2.859  -2.045   0.839  0.00  0.00    +0.129 C 
ENDBRANCH  19  20
BRANCH  19  35
ATOM     31  C   UNL     1       3.658  -3.741   2.118  0.00  0.00    -0.078 C 
ATOM     32  C   UNL     1       4.619  -4.955   2.167  0.00  0.00    -0.020 C 
ATOM     33  C   UNL     1       5.370  -4.749   3.502  0.00  0.00    -0.020 C 
ATOM     34  C   UNL     1       4.454  -3.841   4.343  0.00  0.00    -0.078 C 
ATOM     35  N   UNL     1       3.262  -3.598   3.528  0.00  0.00    +0.385 N 
ATOM     36  H   UNL     1       2.539  -4.290   3.757  0.00  0.00    -0.081 HD
ENDBRANCH  19  35
ENDBRANCH   1  19
TORSDOF 8
