REMARK  Name = ZINC09670674
REMARK  6 active torsions:
REMARK  status: ('A' for Active; 'I' for Inactive)
REMARK    1  A    between atoms: C_10  and  C_13
REMARK    2  A    between atoms: C_13  and  C_14
REMARK    3  A    between atoms: N_16  and  C_17
REMARK    4  A    between atoms: N_16  and  C_30
REMARK    5  A    between atoms: C_17  and  C_18
REMARK    6  A    between atoms: C_21  and  C_23
REMARK                            x       y       z     vdW  Elec       q    Type
REMARK                         _______ _______ _______ _____ _____    ______ ____
ROOT
ATOM      1  C   UNL     1      -2.492   2.328   2.581  0.00  0.00    +0.220 C 
ATOM      2  O   UNL     1      -1.399   2.744   2.259  0.00  0.00    -0.275 OA
ATOM      3  N   UNL     1      -2.791   2.161   3.884  0.00  0.00    -0.289 N 
ENDROOT
BRANCH   3   4
ATOM      4  C   UNL     1      -1.848   2.602   4.915  0.00  0.00    +0.077 C 
ATOM      5  C   UNL     1      -0.744   3.574   4.493  0.00  0.00    +0.024 C 
ATOM      6  C   UNL     1      -0.402   2.115   4.805  0.00  0.00    +0.024 C 
ENDBRANCH   3   4
BRANCH   1   7
ATOM      7  C   UNL     1      -3.515   1.999   1.525  0.00  0.00    +0.150 C 
BRANCH   7  17
ATOM      8  C   UNL     1      -6.222   6.094  -0.338  0.00  0.00    +0.002 A 
ATOM      9  C   UNL     1      -5.148   6.587   0.379  0.00  0.00    +0.004 A 
ATOM     10  C   UNL     1      -4.006   5.824   0.536  0.00  0.00    +0.047 A 
ATOM     11  C   UNL     1      -3.937   4.561  -0.027  0.00  0.00    +0.143 A 
ATOM     12  C   UNL     1      -5.024   4.059  -0.740  0.00  0.00    +0.076 A 
ATOM     13  C   UNL     1      -6.164   4.831  -0.898  0.00  0.00    +0.027 A 
ATOM     14  N   UNL     1      -4.960   2.765  -1.276  0.00  0.00    -0.280 N 
ATOM     15  C   UNL     1      -3.943   1.954  -0.918  0.00  0.00    +0.259 C 
ATOM     16  O   UNL     1      -3.810   0.873  -1.453  0.00  0.00    -0.271 OA
ATOM     17  C   UNL     1      -2.973   2.394   0.149  0.00  0.00    +0.268 C 
ATOM     18  O   UNL     1      -2.808   3.813   0.094  0.00  0.00    -0.477 OA
ATOM     19  H   UNL     1      -5.638   2.457  -1.896  0.00  0.00    +0.155 HD
ENDBRANCH   7  17
ENDBRANCH   1   7
BRANCH   3  20
ATOM     20  C   UNL     1      -4.060   1.538   4.270  0.00  0.00    +0.205 C 
BRANCH  20  21
ATOM     21  C   UNL     1      -3.873   0.046   4.381  0.00  0.00    +0.235 A 
ATOM     22  N   UNL     1      -3.517  -0.607   5.451  0.00  0.00    -0.110 NA
ATOM     23  N   UNL     1      -3.459  -1.865   5.188  0.00  0.00    -0.107 NA
ATOM     24  C   UNL     1      -3.771  -2.058   3.927  0.00  0.00    +0.248 A 
ATOM     25  O   UNL     1      -4.039  -0.850   3.393  0.00  0.00    -0.419 OA
BRANCH  24  26
ATOM     26  C   UNL     1      -3.819  -3.358   3.225  0.00  0.00    +0.039 A 
ATOM     27  C   UNL     1      -4.175  -3.413   1.876  0.00  0.00    +0.014 A 
ATOM     28  C   UNL     1      -4.211  -4.627   1.224  0.00  0.00    +0.021 A 
ATOM     29  C   UNL     1      -3.908  -5.793   1.908  0.00  0.00    +0.041 A 
ATOM     30  C   UNL     1      -3.560  -5.745   3.248  0.00  0.00    +0.021 A 
ATOM     31  C   UNL     1      -3.514  -4.536   3.909  0.00  0.00    +0.014 A 
ATOM     32 CL   UNL     1      -3.964  -7.319   1.083  0.00  0.00    -0.084 Cl
ENDBRANCH  24  26
ENDBRANCH  20  21
ENDBRANCH   3  20
TORSDOF 6
