REMARK  Name = ZINC03595232
REMARK  9 active torsions:
REMARK  status: ('A' for Active; 'I' for Inactive)
REMARK    1  A    between atoms: C_1  and  C_2
REMARK    2  A    between atoms: C_2  and  C_3
REMARK    3  A    between atoms: C_3  and  C_21
REMARK    4  A    between atoms: N_6  and  C_10
REMARK    5  A    between atoms: C_10  and  C_11
REMARK    6  A    between atoms: N_16  and  C_17
REMARK    7  A    between atoms: C_17  and  C_18
REMARK    8  A    between atoms: C_17  and  C_19
REMARK    9  A    between atoms: C_17  and  C_20
REMARK                            x       y       z     vdW  Elec       q    Type
REMARK                         _______ _______ _______ _____ _____    ______ ____
ROOT
ATOM      1  C   UNL     1      -5.872   6.801   0.701  0.00  0.00    +0.138 C 
ATOM      2  C   UNL     1      -4.508   6.337   1.173  0.00  0.00    +0.251 C 
ATOM      3  O   UNL     1      -4.136   6.205   2.319  0.00  0.00    -0.272 OA
ATOM      4  N   UNL     1      -3.797   6.101   0.053  0.00  0.00    -0.215 N 
ATOM      5  C   UNL     1      -4.512   6.353  -1.049  0.00  0.00    +0.310 C 
ATOM      6  O   UNL     1      -4.083   6.218  -2.178  0.00  0.00    -0.252 OA
ATOM      7  N   UNL     1      -5.760   6.769  -0.767  0.00  0.00    -0.281 N 
ATOM      8  H   UNL     1      -6.450   7.007  -1.407  0.00  0.00    +0.152 HD
ENDROOT
BRANCH   1   9
ATOM      9  C   UNL     1      -6.152   8.201   1.184  0.00  0.00    -0.015 A 
ATOM     10  C   UNL     1      -6.794   8.399   2.393  0.00  0.00    +0.007 A 
ATOM     11  C   UNL     1      -7.046   9.683   2.839  0.00  0.00    +0.020 A 
ATOM     12  C   UNL     1      -6.666  10.769   2.071  0.00  0.00    +0.041 A 
ATOM     13  C   UNL     1      -6.029  10.570   0.859  0.00  0.00    +0.020 A 
ATOM     14  C   UNL     1      -5.772   9.286   0.417  0.00  0.00    +0.007 A 
ATOM     15 CL   UNL     1      -6.989  12.382   2.627  0.00  0.00    -0.084 Cl
ENDBRANCH   1   9
BRANCH   1  17
ATOM     16  C   UNL     1      -6.684   4.439   0.631  0.00  0.00    +0.007 C 
ATOM     17  C   UNL     1      -6.963   5.840   1.178  0.00  0.00    +0.037 C 
ENDBRANCH   1  17
BRANCH   4  18
ATOM     18  C   UNL     1      -2.409   5.631   0.044  0.00  0.00    +0.214 C 
BRANCH  18  19
ATOM     19  C   UNL     1      -2.389   4.124   0.036  0.00  0.00    +0.238 C 
ATOM     20  O   UNL     1      -3.430   3.504   0.037  0.00  0.00    -0.274 OA
ATOM     21  N   UNL     1      -1.212   3.466   0.027  0.00  0.00    -0.239 N 
ATOM     22  C   UNL     1      -1.194   2.119   0.019  0.00  0.00    +0.306 C 
ATOM     23  O   UNL     1      -2.238   1.497   0.021  0.00  0.00    -0.252 OA
ATOM     24  N   UNL     1      -0.018   1.461   0.010  0.00  0.00    -0.294 N 
ATOM     25  H   UNL     1      -0.379   3.963   0.025  0.00  0.00    +0.159 HD
ATOM     26  H   UNL     1       0.816   1.957   0.005  0.00  0.00    +0.151 HD
BRANCH  24  27
ATOM     27  C   UNL     1       0.002  -0.004   0.002  0.00  0.00    +0.028 C 
ATOM     28  C   UNL     1      -0.724  -0.517  -1.243  0.00  0.00    +0.031 C 
ATOM     29  C   UNL     1       1.451  -0.494  -0.015  0.00  0.00    +0.031 C 
ATOM     30  C   UNL     1      -0.700  -0.530   1.255  0.00  0.00    +0.031 C 
ENDBRANCH  24  27
ENDBRANCH  18  19
ENDBRANCH   4  18
TORSDOF 5
