REMARK  Name = ZINC35375293
REMARK  7 active torsions:
REMARK  status: ('A' for Active; 'I' for Inactive)
REMARK    1  A    between atoms: C_1  and  C_2
REMARK    2  A    between atoms: C_2  and  C_3
REMARK    3  A    between atoms: C_3  and  C_5
REMARK    4  A    between atoms: C_3  and  N_6
REMARK    5  A    between atoms: C_27  and  C_29
REMARK    6  A    between atoms: C_29  and  C_31
REMARK    7  A    between atoms: C_29  and  O_32
REMARK                            x       y       z     vdW  Elec       q    Type
REMARK                         _______ _______ _______ _____ _____    ______ ____
ROOT
ATOM      1  N   UNL     1       2.148  -0.104   1.172  0.00  0.00    -0.239 N 
ATOM      2  C   UNL     1       2.959  -0.473   0.174  0.00  0.00    +0.228 C 
ATOM      3  O   UNL     1       2.641  -1.168  -0.767  0.00  0.00    -0.275 OA
ATOM      4  C   UNL     1       4.334   0.114   0.401  0.00  0.00    +0.109 C 
ATOM      5  C   UNL     1       4.171   0.904   1.729  0.00  0.00    +0.123 C 
ATOM      6  C   UNL     1       2.723   0.672   2.098  0.00  0.00    +0.228 C 
ATOM      7  O   UNL     1       2.171   1.117   3.081  0.00  0.00    -0.275 OA
ATOM      8  C   UNL     1       5.100   0.194   2.720  0.00  0.00    +0.136 C 
ATOM      9  C   UNL     1       4.346  -0.759   3.602  0.00  0.00    +0.004 A 
ATOM     10  C   UNL     1       3.558  -1.861   3.353  0.00  0.00    +0.023 A 
ATOM     11  C   UNL     1       2.985  -2.555   4.404  0.00  0.00    +0.018 A 
ATOM     12  C   UNL     1       3.205  -2.139   5.705  0.00  0.00    +0.017 A 
ATOM     13  C   UNL     1       3.993  -1.035   5.959  0.00  0.00    +0.025 A 
ATOM     14  C   UNL     1       4.574  -0.331   4.907  0.00  0.00    +0.039 A 
ATOM     15  N   UNL     1       5.396   0.798   4.908  0.00  0.00    -0.283 N 
ATOM     16  C   UNL     1       5.749   1.171   3.663  0.00  0.00    +0.243 C 
ATOM     17  O   UNL     1       6.453   2.111   3.360  0.00  0.00    -0.273 OA
ATOM     18 BR   UNL     1       1.902  -4.067   4.064  0.00  0.00    -0.050 Br
ATOM     19  N   UNL     1       6.104  -0.509   1.900  0.00  0.00    -0.293 NA
ATOM     20  C   UNL     1       5.324  -1.027   0.721  0.00  0.00    +0.096 C 
ATOM     21  H   UNL     1       5.679   1.260   5.712  0.00  0.00    +0.155 HD
ATOM     22  H   UNL     1       6.835   0.121   1.604  0.00  0.00    +0.124 HD
ENDROOT
BRANCH   1  23
ATOM     23  C   UNL     1       0.742  -0.511   1.242  0.00  0.00    +0.081 C 
ATOM     24  C   UNL     1       0.655  -2.037   1.299  0.00  0.00    +0.028 C 
BRANCH  23  26
ATOM     25  C   UNL     1      -0.019   1.526   0.010  0.00  0.00    +0.006 C 
ATOM     26  C   UNL     1       0.002  -0.004   0.002  0.00  0.00    +0.019 C 
ENDBRANCH  23  26
ENDBRANCH   1  23
BRANCH  20  27
ATOM     27  C   UNL     1       6.255  -1.273  -0.467  0.00  0.00    +0.129 C 
ATOM     28  C   UNL     1       7.227  -2.405  -0.128  0.00  0.00    +0.039 C 
BRANCH  27  29
ATOM     29  O   UNL     1       5.481  -1.637  -1.612  0.00  0.00    -0.390 OA
ATOM     30  H   UNL     1       4.954  -2.438  -1.492  0.00  0.00    +0.210 HD
ENDBRANCH  27  29
ENDBRANCH  20  27
TORSDOF 4
