REMARK  Name = ZINC54476123
REMARK  10 active torsions:
REMARK  status: ('A' for Active; 'I' for Inactive)
REMARK    1  A    between atoms: C_1  and  C_2
REMARK    2  A    between atoms: C_2  and  C_3
REMARK    3  A    between atoms: C_3  and  N_4
REMARK    4  A    between atoms: C_5  and  C_7
REMARK    5  A    between atoms: C_10  and  N_14
REMARK    6  A    between atoms: N_17  and  C_18
REMARK    7  A    between atoms: C_18  and  C_19
REMARK    8  A    between atoms: C_19  and  C_20
REMARK    9  A    between atoms: C_19  and  C_21
REMARK   10  A    between atoms: C_19  and  N_22
REMARK                            x       y       z     vdW  Elec       q    Type
REMARK                         _______ _______ _______ _____ _____    ______ ____
ROOT
ATOM      1  N   UNL     1       1.389  -8.285  -2.275  0.00  0.00    -0.269 N 
ATOM      2  C   UNL     1       1.879  -8.936  -3.348  0.00  0.00    +0.304 C 
ATOM      3  O   UNL     1       2.380  -8.309  -4.262  0.00  0.00    -0.253 OA
ATOM      4  N   UNL     1       1.816 -10.281  -3.409  0.00  0.00    -0.300 N 
ATOM      5  H   UNL     1       1.044  -8.787  -1.519  0.00  0.00    +0.156 HD
ATOM      6  H   UNL     1       1.417 -10.780  -2.679  0.00  0.00    +0.150 HD
ENDROOT
BRANCH   1  10
ATOM      7  C   UNL     1       1.349  -4.120  -2.199  0.00  0.00    +0.055 A 
ATOM      8  C   UNL     1       0.310  -4.842  -1.604  0.00  0.00    +0.016 A 
ATOM      9  C   UNL     1       0.327  -6.218  -1.632  0.00  0.00    +0.024 A 
ATOM     10  C   UNL     1       1.376  -6.891  -2.250  0.00  0.00    +0.036 A 
ATOM     11  C   UNL     1       2.412  -6.178  -2.842  0.00  0.00    +0.044 A 
ATOM     12  C   UNL     1       2.399  -4.799  -2.825  0.00  0.00    +0.055 A 
ATOM     13 CL   UNL     1       3.689  -3.908  -3.571  0.00  0.00    -0.083 Cl
BRANCH   7  15
ATOM     14  N   UNL     1       0.322  -1.992  -1.568  0.00  0.00    -0.311 N 
ATOM     15  C   UNL     1       1.335  -2.645  -2.171  0.00  0.00    +0.245 C 
ATOM     16  O   UNL     1       2.237  -2.018  -2.693  0.00  0.00    -0.270 OA
ATOM     17  H   UNL     1      -0.398  -2.492  -1.152  0.00  0.00    +0.149 HD
BRANCH  14  18
ATOM     18  C   UNL     1       0.308  -0.527  -1.541  0.00  0.00    +0.104 C 
BRANCH  18  20
ATOM     19  C   UNL     1      -0.956   1.487  -0.772  0.00  0.00    +0.005 C 
ATOM     20  C   UNL     1      -0.941  -0.043  -0.801  0.00  0.00    +0.015 C 
ENDBRANCH  18  20
ENDBRANCH  14  18
ENDBRANCH   7  15
ENDBRANCH   1  10
BRANCH   4  21
ATOM     21  C   UNL     1       2.349 -10.988  -4.575  0.00  0.00    +0.093 C 
BRANCH  21  22
ATOM     22  C   UNL     1       2.043 -12.481  -4.451  0.00  0.00    -0.055 C 
ATOM     23  C   UNL     1       0.528 -12.688  -4.401  0.00  0.00    -0.008 C 
ATOM     24  C   UNL     1       2.619 -13.223  -5.659  0.00  0.00    -0.008 C 
BRANCH  22  25
ATOM     25  N   UNL     1       2.650 -13.005  -3.220  0.00  0.00    +0.384 N 
ATOM     26  C   UNL     1       4.086 -12.704  -3.218  0.00  0.00    -0.078 C 
ATOM     27  C   UNL     1       4.708 -13.176  -1.902  0.00  0.00    -0.019 C 
ATOM     28  C   UNL     1       4.501 -14.686  -1.758  0.00  0.00    -0.004 C 
ATOM     29  C   UNL     1       3.003 -14.996  -1.836  0.00  0.00    -0.019 C 
ATOM     30  C   UNL     1       2.444 -14.457  -3.154  0.00  0.00    -0.078 C 
ATOM     31  H   UNL     1       2.216 -12.568  -2.420  0.00  0.00    -0.081 HD
ENDBRANCH  22  25
ENDBRANCH  21  22
ENDBRANCH   4  21
TORSDOF 7
