REMARK  Name = ZINC41723520
REMARK  6 active torsions:
REMARK  status: ('A' for Active; 'I' for Inactive)
REMARK    1  A    between atoms: C_1  and  C_2
REMARK    2  A    between atoms: C_4  and  C_19
REMARK    3  A    between atoms: C_6  and  N_8
REMARK    4  A    between atoms: C_9  and  C_11
REMARK    5  A    between atoms: C_13  and  C_17
REMARK    6  A    between atoms: C_14  and  C_16
REMARK                            x       y       z     vdW  Elec       q    Type
REMARK                         _______ _______ _______ _____ _____    ______ ____
ROOT
ATOM      1  N   UNL     1       0.052  -2.797   2.392  0.00  0.00    -0.279 N 
ATOM      2  C   UNL     1       0.150  -2.134   3.561  0.00  0.00    +0.284 C 
ATOM      3  O   UNL     1       0.134  -0.917   3.574  0.00  0.00    -0.266 OA
ATOM      4  H   UNL     1      -0.013  -3.765   2.387  0.00  0.00    +0.155 HD
ENDROOT
BRANCH   1  10
ATOM      5  C   UNL     1      -1.515  -2.364  -2.248  0.00  0.00    +0.044 C 
ATOM      6  C   UNL     1      -0.708  -1.856  -1.080  0.00  0.00    -0.048 A 
ATOM      7  C   UNL     1       0.024  -0.690  -1.201  0.00  0.00    +0.006 A 
ATOM      8  C   UNL     1       0.765  -0.221  -0.132  0.00  0.00    -0.048 A 
ATOM      9  C   UNL     1       0.777  -0.917   1.061  0.00  0.00    +0.026 A 
ATOM     10  C   UNL     1       0.042  -2.089   1.186  0.00  0.00    +0.034 A 
ATOM     11  C   UNL     1      -0.706  -2.555   0.112  0.00  0.00    +0.026 A 
ATOM     12  C   UNL     1       1.562   1.051  -0.268  0.00  0.00    +0.044 C 
ENDBRANCH   1  10
BRANCH   2  13
ATOM     13  C   UNL     1       0.277  -2.879   4.818  0.00  0.00    +0.190 A 
ATOM     14  C   UNL     1       0.379  -2.336   6.066  0.00  0.00    +0.059 A 
ATOM     15  C   UNL     1       0.478  -3.408   6.966  0.00  0.00    +0.009 A 
ATOM     16  C   UNL     1       0.433  -4.545   6.237  0.00  0.00    +0.107 A 
ATOM     17  O   UNL     1       0.307  -4.222   4.944  0.00  0.00    -0.455 OA
ATOM     18  C   UNL     1       0.508  -5.945   6.790  0.00  0.00    +0.086 C 
BRANCH  15  19
ATOM     19  C   UNL     1       0.611  -3.310   8.464  0.00  0.00    +0.147 C 
ATOM     20 CL   UNL     1      -1.029  -3.301   9.214  0.00  0.00    -0.120 Cl
ENDBRANCH  15  19
ENDBRANCH   2  13
TORSDOF 3
