REMARK  Name = ZINC38984737
REMARK  7 active torsions:
REMARK  status: ('A' for Active; 'I' for Inactive)
REMARK    1  A    between atoms: C_6  and  C_7
REMARK    2  A    between atoms: C_9  and  C_13
REMARK    3  A    between atoms: C_17  and  S_21
REMARK    4  A    between atoms: N_19  and  N_20
REMARK    5  A    between atoms: S_21  and  C_22
REMARK    6  A    between atoms: C_22  and  C_23
REMARK    7  A    between atoms: N_25  and  C_26
REMARK                            x       y       z     vdW  Elec       q    Type
REMARK                         _______ _______ _______ _____ _____    ______ ____
ROOT
ATOM      1  C   UNL     1      -3.309  -3.102  -1.220  0.00  0.00    +0.185 C 
ATOM      2  N   UNL     1      -2.663  -4.441  -1.241  0.00  0.00    -0.234 NA
ATOM      3  N   UNL     1      -3.560  -5.229  -2.101  0.00  0.00    -0.228 NA
ATOM      4  C   UNL     1      -4.919  -4.757  -1.750  0.00  0.00    +0.214 C 
ATOM      5  N   UNL     1      -4.761  -3.396  -1.190  0.00  0.00    -0.197 NA
ATOM      6  H   UNL     1      -2.615  -4.833  -0.313  0.00  0.00    +0.143 HD
ATOM      7  H   UNL     1      -3.362  -5.065  -3.077  0.00  0.00    +0.143 HD
ENDROOT
BRANCH   1  10
ATOM      8  C   UNL     1      -1.310  -0.718   0.021  0.00  0.00    +0.091 C 
ATOM      9  C   UNL     1      -1.399  -2.062   0.028  0.00  0.00    +0.034 C 
ATOM     10  C   UNL     1      -2.894  -2.327   0.032  0.00  0.00    +0.187 C 
ATOM     11  N   UNL     1      -3.475  -0.974   0.026  0.00  0.00    -0.176 NA
ATOM     12  N   UNL     1      -2.549  -0.160   0.026  0.00  0.00    -0.154 NA
BRANCH   8  18
ATOM     13  C   UNL     1      -0.058   1.439   0.013  0.00  0.00    +0.011 A 
ATOM     14  C   UNL     1       1.128   2.144   0.007  0.00  0.00    +0.020 A 
ATOM     15  C   UNL     1       2.337   1.470   0.003  0.00  0.00    +0.041 A 
ATOM     16  C   UNL     1       2.363   0.086   0.004  0.00  0.00    +0.020 A 
ATOM     17  C   UNL     1       1.182  -0.629   0.009  0.00  0.00    +0.011 A 
ATOM     18  C   UNL     1      -0.037   0.045   0.014  0.00  0.00    +0.002 A 
ATOM     19 CL   UNL     1       3.825   2.363  -0.004  0.00  0.00    -0.084 Cl
ENDBRANCH   8  18
ENDBRANCH   1  10
BRANCH   5  20
ATOM     20  N   UNL     1      -5.507  -2.420  -1.968  0.00  0.00    -0.264 NA
ATOM     21  H   UNL     1      -6.495  -2.620  -1.948  0.00  0.00    +0.137 HD
ATOM     22  H   UNL     1      -5.321  -1.482  -1.645  0.00  0.00    +0.137 HD
ENDBRANCH   5  20
BRANCH   4  23
ATOM     23  S   UNL     1      -5.960  -4.700  -3.234  0.00  0.00    -0.115 S 
BRANCH  23  24
ATOM     24  C   UNL     1      -5.079  -3.569  -4.346  0.00  0.00    +0.168 C 
BRANCH  24  25
ATOM     25  C   UNL     1      -5.848  -3.431  -5.634  0.00  0.00    +0.227 C 
ATOM     26  O   UNL     1      -6.888  -4.035  -5.788  0.00  0.00    -0.275 OA
ATOM     27  N   UNL     1      -5.379  -2.635  -6.616  0.00  0.00    -0.283 N 
ATOM     28  H   UNL     1      -4.582  -2.102  -6.470  0.00  0.00    +0.155 HD
BRANCH  27  29
ATOM     29  C   UNL     1      -6.043  -2.579  -7.849  0.00  0.00    +0.069 A 
ATOM     30  C   UNL     1      -7.426  -2.688  -7.899  0.00  0.00    +0.029 A 
ATOM     31  C   UNL     1      -8.080  -2.632  -9.115  0.00  0.00    +0.040 A 
ATOM     32  C   UNL     1      -7.357  -2.467 -10.284  0.00  0.00    +0.126 A 
ATOM     33  C   UNL     1      -5.977  -2.358 -10.239  0.00  0.00    +0.078 A 
ATOM     34  C   UNL     1      -5.319  -2.408  -9.023  0.00  0.00    +0.147 A 
ATOM     35  F   UNL     1      -3.974  -2.295  -8.977  0.00  0.00    -0.203 F 
ATOM     36  F   UNL     1      -7.998  -2.412 -11.472  0.00  0.00    -0.205 F 
ENDBRANCH  27  29
ENDBRANCH  24  25
ENDBRANCH  23  24
ENDBRANCH   4  23
TORSDOF 7
