REMARK  Name = ZINC05226402
REMARK  2 active torsions:
REMARK  status: ('A' for Active; 'I' for Inactive)
REMARK    1  A    between atoms: C_1  and  C_2
REMARK    2  A    between atoms: N_4  and  N_5
REMARK                            x       y       z     vdW  Elec       q    Type
REMARK                         _______ _______ _______ _____ _____    ______ ____
ROOT
ATOM      1  N   UNL     1      -1.234   1.650   0.017  0.00  0.00    -0.243 N 
ATOM      2  C   UNL     1      -2.416   0.946   0.019  0.00  0.00    +0.166 C 
ATOM      3  N   UNL     1      -2.557  -0.342   0.012  0.00  0.00    -0.256 NA
ATOM      4  C   UNL     1      -3.863  -0.973   0.039  0.00  0.00    +0.144 C 
ATOM      5  C   UNL     1      -3.935  -1.930   1.253  0.00  0.00    +0.193 C 
ATOM      6  S   UNL     1      -5.698  -1.760   1.767  0.00  0.00    -0.028 S 
ATOM      7  O   UNL     1      -6.506  -2.609   0.963  0.00  0.00    -0.174 OA
ATOM      8  O   UNL     1      -5.785  -1.837   3.183  0.00  0.00    -0.174 OA
ATOM      9  C   UNL     1      -5.932  -0.008   1.233  0.00  0.00    +0.182 C 
ATOM     10  C   UNL     1      -5.009   0.048   0.001  0.00  0.00    +0.101 C 
ATOM     11  S   UNL     1      -4.066   1.619   0.038  0.00  0.00    -0.082 S 
ATOM     12  H   UNL     1      -1.247   2.620   0.022  0.00  0.00    +0.172 HD
ENDROOT
BRANCH   1  16
ATOM     13  C   UNL     1       2.462   0.920  -0.017  0.00  0.00    +0.110 C 
ATOM     14  C   UNL     1       1.147   1.655   0.000  0.00  0.00    +0.226 C 
ATOM     15  O   UNL     1       1.130   2.868   0.007  0.00  0.00    -0.275 OA
ATOM     16  N   UNL     1      -0.011   0.966   0.007  0.00  0.00    -0.235 N 
ATOM     17  H   UNL     1       0.002  -0.004   0.002  0.00  0.00    +0.173 HD
ENDBRANCH   1  16
TORSDOF 1
