REMARK  Name = ZINC29049477
REMARK  4 active torsions:
REMARK  status: ('A' for Active; 'I' for Inactive)
REMARK    1  A    between atoms: C_3  and  O_27
REMARK    2  A    between atoms: C_8  and  C_10
REMARK    3  A    between atoms: C_10  and  C_11
REMARK    4  A    between atoms: C_18  and  C_23
REMARK                            x       y       z     vdW  Elec       q    Type
REMARK                         _______ _______ _______ _____ _____    ______ ____
ROOT
ATOM      1  C   UNL     1       3.800   6.165  -0.002  0.00  0.00    +0.146 C 
ATOM      2  C   UNL     1       3.806   7.666   0.129  0.00  0.00    +0.231 C 
ATOM      3  O   UNL     1       4.003   8.149   1.224  0.00  0.00    -0.274 OA
ATOM      4  N   UNL     1       3.604   8.487  -0.896  0.00  0.00    -0.284 N 
ATOM      5  C   UNL     1       3.478   8.129  -2.235  0.00  0.00    +0.047 A 
ATOM      6  C   UNL     1       2.935   9.042  -3.134  0.00  0.00    +0.036 A 
ATOM      7  C   UNL     1       2.791   8.707  -4.465  0.00  0.00    +0.057 A 
ATOM      8  C   UNL     1       3.182   7.461  -4.921  0.00  0.00    +0.013 A 
ATOM      9  C   UNL     1       3.726   6.545  -4.040  0.00  0.00    +0.017 A 
ATOM     10  C   UNL     1       3.878   6.878  -2.704  0.00  0.00    +0.030 A 
ATOM     11  S   UNL     1       4.594   5.722  -1.577  0.00  0.00    -0.110 S 
ATOM     12  H   UNL     1       3.521   9.571  -0.725  0.00  0.00    +0.155 HD
ENDROOT
BRANCH   7  13
ATOM     13  C   UNL     1       2.202   9.705  -5.429  0.00  0.00    +0.417 C 
ATOM     14  F   UNL     1       2.155   9.145  -6.710  0.00  0.00    -0.166 F 
ATOM     15  F   UNL     1       0.908  10.041  -5.019  0.00  0.00    -0.166 F 
ATOM     16  F   UNL     1       2.998  10.855  -5.452  0.00  0.00    -0.166 F 
ENDBRANCH   7  13
BRANCH   1  17
ATOM     17  C   UNL     1       2.358   5.654   0.009  0.00  0.00    +0.120 C 
BRANCH  17  25
ATOM     18  C   UNL     1       1.232  -0.649  -0.002  0.00  0.00    +0.021 A 
ATOM     19  C   UNL     1       0.002  -0.004   0.008  0.00  0.00    +0.050 A 
ATOM     20  C   UNL     1      -0.017   1.383   0.010  0.00  0.00    +0.155 A 
ATOM     21  C   UNL     1       1.194   2.076   0.002  0.00  0.00    +0.145 A 
ATOM     22  N   UNL     1       2.343   1.422  -0.007  0.00  0.00    -0.347 N 
ATOM     23  C   UNL     1       2.390   0.103  -0.009  0.00  0.00    +0.084 A 
ATOM     24  N   UNL     1       1.193   3.472   0.009  0.00  0.00    -0.269 N 
ATOM     25  C   UNL     1       2.359   4.147   0.001  0.00  0.00    +0.220 C 
ATOM     26  O   UNL     1       3.410   3.542  -0.011  0.00  0.00    -0.275 OA
ATOM     27  H   UNL     1       0.240   4.021   0.021  0.00  0.00    +0.156 HD
ATOM     28  H   UNL     1       3.292   1.977  -0.013  0.00  0.00    +0.167 HD
BRANCH  20  29
ATOM     29  O   UNL     1      -1.198   2.058   0.019  0.00  0.00    -0.503 OA
ATOM     30  H   UNL     1      -2.147   1.503   0.025  0.00  0.00    +0.292 HD
ENDBRANCH  20  29
ENDBRANCH  17  25
ENDBRANCH   1  17
TORSDOF 4
