REMARK  Name = ZINC46368182
REMARK  9 active torsions:
REMARK  status: ('A' for Active; 'I' for Inactive)
REMARK    1  A    between atoms: C_1  and  C_2
REMARK    2  A    between atoms: N_7  and  C_9
REMARK    3  A    between atoms: C_9  and  C_11
REMARK    4  A    between atoms: C_9  and  C_12
REMARK    5  A    between atoms: C_12  and  N_13
REMARK    6  A    between atoms: N_16  and  N_17
REMARK    7  A    between atoms: C_18  and  C_20
REMARK    8  A    between atoms: C_20  and  O_21
REMARK    9  A    between atoms: O_21  and  C_22
REMARK                            x       y       z     vdW  Elec       q    Type
REMARK                         _______ _______ _______ _____ _____    ______ ____
ROOT
ATOM      1  N   UNL     1       1.995  -4.565   1.353  0.00  0.00    -0.300 N 
ATOM      2  C   UNL     1       1.953  -5.895   1.139  0.00  0.00    +0.316 C 
ATOM      3  O   UNL     1       1.355  -6.617   1.913  0.00  0.00    -0.251 OA
ATOM      4  N   UNL     1       2.574  -6.424   0.067  0.00  0.00    -0.218 N 
ATOM      5  H   UNL     1       2.472  -3.989   0.736  0.00  0.00    +0.150 HD
ATOM      6  H   UNL     1       2.544  -7.382  -0.087  0.00  0.00    +0.174 HD
ENDROOT
BRANCH   4   7
ATOM      7  N   UNL     1       3.264  -5.592  -0.825  0.00  0.00    -0.230 N 
ATOM      8  C   UNL     1       3.885  -6.122  -1.898  0.00  0.00    +0.267 C 
ATOM      9  O   UNL     1       3.847  -7.319  -2.090  0.00  0.00    -0.271 OA
ATOM     10  H   UNL     1       3.293  -4.635  -0.671  0.00  0.00    +0.173 HD
BRANCH   8  11
ATOM     11  C   UNL     1       4.626  -5.227  -2.857  0.00  0.00    +0.326 C 
BRANCH  11  12
ATOM     12  O   UNL     1       5.195  -6.018  -3.903  0.00  0.00    -0.480 OA
BRANCH  12  13
ATOM     13  C   UNL     1       5.902  -5.359  -4.859  0.00  0.00    +0.156 A 
ATOM     14  C   UNL     1       6.050  -3.982  -4.790  0.00  0.00    +0.048 A 
ATOM     15  C   UNL     1       6.769  -3.315  -5.763  0.00  0.00    +0.004 A 
ATOM     16  C   UNL     1       7.341  -4.018  -6.807  0.00  0.00    +0.003 A 
ATOM     17  C   UNL     1       7.195  -5.391  -6.881  0.00  0.00    +0.042 A 
ATOM     18  C   UNL     1       6.482  -6.065  -5.906  0.00  0.00    +0.165 A 
ATOM     19  F   UNL     1       6.345  -7.407  -5.974  0.00  0.00    -0.202 F 
ENDBRANCH  12  13
ENDBRANCH  11  12
ENDBRANCH   8  11
ENDBRANCH   4   7
BRANCH   1  20
ATOM     20  C   UNL     1       1.320  -3.989   2.519  0.00  0.00    +0.090 C 
BRANCH  20  21
ATOM     21  C   UNL     1       1.403  -2.463   2.455  0.00  0.00    -0.054 C 
ATOM     22  C   UNL     1       0.598  -1.859   3.607  0.00  0.00    -0.012 C 
BRANCH  21  28
ATOM     23  C   UNL     1      -2.636  -2.213  -0.299  0.00  0.00    +0.005 C 
ATOM     24  C   UNL     1      -1.141  -1.893  -0.244  0.00  0.00    -0.031 C 
ATOM     25  C   UNL     1      -0.932  -0.389  -0.444  0.00  0.00    -0.001 C 
ATOM     26  C   UNL     1       0.559  -0.068  -0.309  0.00  0.00    -0.018 C 
ATOM     27  C   UNL     1       1.057  -0.547   1.057  0.00  0.00    -0.078 C 
ATOM     28  N   UNL     1       0.854  -1.996   1.175  0.00  0.00    +0.383 N 
ATOM     29  C   UNL     1      -0.580  -2.305   1.118  0.00  0.00    -0.075 C 
ATOM     30  H   UNL     1       1.327  -2.464   0.417  0.00  0.00    -0.081 HD
ENDBRANCH  21  28
ENDBRANCH  20  21
ENDBRANCH   1  20
TORSDOF 7
