REMARK  Name = ZINC44981909
REMARK  4 active torsions:
REMARK  status: ('A' for Active; 'I' for Inactive)
REMARK    1  A    between atoms: C_2  and  N_21
REMARK    2  A    between atoms: C_3  and  N_12
REMARK    3  A    between atoms: N_12  and  C_13
REMARK    4  A    between atoms: C_13  and  C_14
REMARK                            x       y       z     vdW  Elec       q    Type
REMARK                         _______ _______ _______ _____ _____    ______ ____
ROOT
ATOM      1  C   UNL     1      -0.017   1.380   0.010  0.00  0.00    +0.072 A 
ATOM      2  C   UNL     1       1.176   2.088   0.002  0.00  0.00    +0.049 A 
ATOM      3  C   UNL     1       2.393   1.407  -0.013  0.00  0.00    +0.050 A 
ATOM      4  C   UNL     1       2.410   0.020  -0.020  0.00  0.00    +0.051 A 
ATOM      5  C   UNL     1       1.218  -0.685  -0.012  0.00  0.00    +0.078 A 
ATOM      6  C   UNL     1       0.002  -0.004   0.002  0.00  0.00    +0.144 A 
ATOM      7  O   UNL     1      -1.161  -0.712   0.007  0.00  0.00    -0.481 OA
ATOM      8  C   UNL     1      -1.158  -1.958  -0.695  0.00  0.00    +0.325 C 
ATOM      9  C   UNL     1       0.076  -2.742  -0.328  0.00  0.00    +0.255 C 
ATOM     10  O   UNL     1       0.044  -3.955  -0.311  0.00  0.00    -0.272 OA
ATOM     11  N   UNL     1       1.217  -2.090  -0.018  0.00  0.00    -0.280 N 
ATOM     12  H   UNL     1       2.024  -2.583   0.197  0.00  0.00    +0.155 HD
ENDROOT
BRANCH   2  13
ATOM     13  N   UNL     1       1.159   3.490   0.009  0.00  0.00    -0.356 N 
ATOM     14  H   UNL     1       0.313   3.965   0.020  0.00  0.00    +0.142 HD
ATOM     15  H   UNL     1       1.993   3.986   0.004  0.00  0.00    +0.142 HD
ENDBRANCH   2  13
BRANCH   3  16
ATOM     16  N   UNL     1       3.598   2.124  -0.022  0.00  0.00    -0.342 N 
ATOM     17  H   UNL     1       3.585   3.094  -0.018  0.00  0.00    +0.146 HD
BRANCH  16  18
ATOM     18  C   UNL     1       4.876   1.408  -0.038  0.00  0.00    +0.107 C 
BRANCH  18  19
ATOM     19  C   UNL     1       6.026   2.418  -0.046  0.00  0.00    +0.032 C 
ATOM     20  C   UNL     1       7.361   1.674   0.060  0.00  0.00    +0.009 C 
ATOM     21  C   UNL     1       8.506   2.687  -0.026  0.00  0.00    +0.028 C 
ATOM     22  C   UNL     1       8.382   3.475  -1.333  0.00  0.00    +0.160 C 
ATOM     23  O   UNL     1       7.106   4.117  -1.381  0.00  0.00    -0.379 OA
ATOM     24  C   UNL     1       5.997   3.217  -1.351  0.00  0.00    +0.164 C 
ENDBRANCH  18  19
ENDBRANCH  16  18
ENDBRANCH   3  16
TORSDOF 4
