REMARK  Name = ZINC11737109
REMARK  4 active torsions:
REMARK  status: ('A' for Active; 'I' for Inactive)
REMARK    1  A    between atoms: C_10  and  S_11
REMARK    2  A    between atoms: S_11  and  O_14
REMARK    3  A    between atoms: O_14  and  C_15
REMARK    4  A    between atoms: C_20  and  N_21
REMARK                            x       y       z     vdW  Elec       q    Type
REMARK                         _______ _______ _______ _____ _____    ______ ____
ROOT
ATOM      1  S   UNL     1      -2.484   5.635   0.053  0.00  0.00    +0.152 S 
ATOM      2  O   UNL     1      -3.773   6.021   0.508  0.00  0.00    -0.131 OA
ATOM      3  O   UNL     1      -1.290   6.054   0.701  0.00  0.00    -0.131 OA
ENDROOT
BRANCH   1  13
ATOM      4  C   UNL     1       1.149   1.776  -0.174  0.00  0.00    +0.001 A 
ATOM      5  C   UNL     1       1.150   3.170  -0.168  0.00  0.00    +0.001 A 
ATOM      6  C   UNL     1      -0.015   3.872  -0.098  0.00  0.00    +0.010 A 
ATOM      7  C   UNL     1      -1.238   3.183  -0.029  0.00  0.00    +0.010 A 
ATOM      8  C   UNL     1      -1.239   1.766  -0.041  0.00  0.00    -0.016 A 
ATOM      9  C   UNL     1      -0.017   1.076  -0.109  0.00  0.00    +0.008 A 
ATOM     10  C   UNL     1      -2.462   1.078   0.034  0.00  0.00    +0.008 A 
ATOM     11  C   UNL     1      -3.626   1.779   0.105  0.00  0.00    +0.003 A 
ATOM     12  C   UNL     1      -3.626   3.172   0.110  0.00  0.00    +0.031 A 
ATOM     13  C   UNL     1      -2.460   3.873   0.045  0.00  0.00    +0.136 A 
ENDBRANCH   1  13
BRANCH   1  14
ATOM     14  O   UNL     1      -2.377   6.093  -1.394  0.00  0.00    -0.340 OA
BRANCH  14  15
ATOM     15  C   UNL     1      -3.523   5.938  -2.110  0.00  0.00    +0.177 A 
ATOM     16  C   UNL     1      -3.755   4.761  -2.802  0.00  0.00    +0.050 A 
ATOM     17  C   UNL     1      -4.923   4.602  -3.525  0.00  0.00    +0.004 A 
ATOM     18  C   UNL     1      -5.858   5.620  -3.568  0.00  0.00    +0.002 A 
ATOM     19  C   UNL     1      -5.631   6.799  -2.884  0.00  0.00    +0.026 A 
ATOM     20  C   UNL     1      -4.464   6.964  -2.153  0.00  0.00    +0.070 A 
BRANCH  20  21
ATOM     21  N   UNL     1      -4.233   8.158  -1.460  0.00  0.00    -0.355 N 
ATOM     22  H   UNL     1      -3.416   8.271  -0.949  0.00  0.00    +0.142 HD
ATOM     23  H   UNL     1      -4.889   8.871  -1.491  0.00  0.00    +0.142 HD
ENDBRANCH  20  21
ENDBRANCH  14  15
ENDBRANCH   1  14
TORSDOF 4
