REMARK  Name = ZINC15007088
REMARK  8 active torsions:
REMARK  status: ('A' for Active; 'I' for Inactive)
REMARK    1  A    between atoms: C_6  and  C_7
REMARK    2  A    between atoms: C_7  and  O_21
REMARK    3  A    between atoms: C_12  and  C_13
REMARK    4  A    between atoms: C_12  and  N_63
REMARK    5  A    between atoms: C_18  and  O_19
REMARK    6  A    between atoms: C_23  and  C_25
REMARK    7  A    between atoms: N_27  and  C_28
REMARK    8  A    between atoms: C_28  and  C_29
REMARK                            x       y       z     vdW  Elec       q    Type
REMARK                         _______ _______ _______ _____ _____    ______ ____
ROOT
ATOM      1  C   UNL     1       5.265   4.152  -5.515  0.00  0.00    +0.010 A 
ATOM      2  C   UNL     1       5.814   4.009  -6.771  0.00  0.00    +0.047 A 
ATOM      3  C   UNL     1       5.356   4.798  -7.820  0.00  0.00    +0.136 A 
ATOM      4  C   UNL     1       4.330   5.731  -7.579  0.00  0.00    +0.021 A 
ATOM      5  C   UNL     1       3.784   5.856  -6.300  0.00  0.00    +0.018 A 
ATOM      6  C   UNL     1       4.250   5.070  -5.284  0.00  0.00    -0.015 A 
ATOM      7  C   UNL     1       4.082   6.387  -8.862  0.00  0.00    +0.063 A 
ATOM      8  C   UNL     1       4.944   5.822  -9.747  0.00  0.00    +0.190 A 
ATOM      9  O   UNL     1       5.690   4.887  -9.122  0.00  0.00    -0.450 OA
ENDROOT
BRANCH   6  10
ATOM     10  C   UNL     1       3.663   5.205  -3.903  0.00  0.00    +0.088 C 
ATOM     11  C   UNL     1       4.727   4.858  -2.858  0.00  0.00    +0.021 C 
ATOM     12  C   UNL     1       4.108   4.938  -1.461  0.00  0.00    -0.075 C 
ATOM     13  C   UNL     1       1.926   4.340  -2.331  0.00  0.00    -0.075 C 
ATOM     14  C   UNL     1       2.480   4.243  -3.754  0.00  0.00    +0.021 C 
ATOM     15  N   UNL     1       2.992   3.972  -1.375  0.00  0.00    +0.383 N 
ATOM     16  H   UNL     1       3.343   3.036  -1.611  0.00  0.00    -0.081 HD
BRANCH  10  17
ATOM     17  O   UNL     1       3.215   6.547  -3.702  0.00  0.00    -0.384 OA
ATOM     18  H   UNL     1       2.538   6.834  -4.330  0.00  0.00    +0.211 HD
ENDBRANCH  10  17
BRANCH  15  19
ATOM     19  C   UNL     1       2.451   3.947  -0.000  0.00  0.00    -0.039 C 
BRANCH  19  20
ATOM     20  C   UNL     1       1.158   3.173   0.008  0.00  0.00    -0.021 A 
ATOM     21  C   UNL     1      -0.050   3.844   0.022  0.00  0.00    +0.025 A 
ATOM     22  C   UNL     1      -1.237   3.134   0.030  0.00  0.00    +0.041 A 
ATOM     23  C   UNL     1      -1.218   1.751   0.017  0.00  0.00    +0.023 A 
ATOM     24  C   UNL     1      -0.013   1.076   0.008  0.00  0.00    +0.047 A 
ATOM     25  C   UNL     1       1.179   1.786   0.000  0.00  0.00    +0.118 A 
ATOM     26 CL   UNL     1      -2.753   3.980   0.048  0.00  0.00    -0.084 Cl
BRANCH  25  27
ATOM     27  O   UNL     1       2.366   1.124  -0.015  0.00  0.00    -0.507 OA
ATOM     28  H   UNL     1       2.701   0.937  -0.902  0.00  0.00    +0.292 HD
ENDBRANCH  25  27
ENDBRANCH  19  20
ENDBRANCH  15  19
ENDBRANCH   6  10
BRANCH   8  29
ATOM     29  C   UNL     1       5.048   6.176 -11.169  0.00  0.00    +0.279 C 
ATOM     30  O   UNL     1       4.327   7.036 -11.637  0.00  0.00    -0.267 OA
ATOM     31  N   UNL     1       5.944   5.546 -11.956  0.00  0.00    -0.306 N 
ATOM     32  H   UNL     1       6.519   4.860 -11.583  0.00  0.00    +0.149 HD
BRANCH  31  33
ATOM     33  C   UNL     1       6.048   5.898 -13.374  0.00  0.00    +0.136 C 
BRANCH  33  34
ATOM     34  C   UNL     1       7.131   5.043 -14.034  0.00  0.00    +0.135 C 
ATOM     35  C   UNL     1       7.346   5.483 -15.499  0.00  0.00    +0.035 C 
ATOM     36  C   UNL     1       7.607   4.160 -16.254  0.00  0.00    +0.031 C 
ATOM     37  C   UNL     1       7.519   3.078 -15.156  0.00  0.00    +0.160 C 
ATOM     38  O   UNL     1       6.701   3.667 -14.121  0.00  0.00    -0.375 OA
ENDBRANCH  33  34
ENDBRANCH  31  33
ENDBRANCH   8  29
TORSDOF 8
