REMARK  Name = ZINC08765150
REMARK  13 active torsions:
REMARK  status: ('A' for Active; 'I' for Inactive)
REMARK    1  A    between atoms: C_1  and  C_2
REMARK    2  A    between atoms: C_6  and  O_27
REMARK    3  A    between atoms: C_12  and  C_13
REMARK    4  A    between atoms: C_13  and  C_14
REMARK    5  A    between atoms: C_14  and  C_15
REMARK    6  A    between atoms: N_17  and  C_18
REMARK    7  A    between atoms: C_20  and  C_25
REMARK    8  A    between atoms: C_20  and  C_26
REMARK    9  A    between atoms: C_21  and  C_23
REMARK   10  A    between atoms: C_21  and  C_24
REMARK   11  A    between atoms: O_27  and  C_28
REMARK   12  A    between atoms: C_28  and  C_29
REMARK   13  A    between atoms: C_29  and  C_31
REMARK                            x       y       z     vdW  Elec       q    Type
REMARK                         _______ _______ _______ _____ _____    ______ ____
ROOT
ATOM      1  C   UNL     1      -0.234   7.694  -3.790  0.00  0.00    +0.052 C 
ENDROOT
BRANCH   1  13
ATOM      2  C   UNL     1       2.183   9.153  -4.398  0.00  0.00    +0.045 C 
ATOM      3  C   UNL     1       0.898   9.883  -4.102  0.00  0.00    -0.030 A 
ATOM      4  C   UNL     1       0.843  11.346  -4.116  0.00  0.00    +0.021 A 
ATOM      5  C   UNL     1       1.982  12.107  -4.404  0.00  0.00    +0.015 A 
ATOM      6  C   UNL     1       1.904  13.469  -4.410  0.00  0.00    +0.046 A 
ATOM      7  C   UNL     1       0.697  14.108  -4.132  0.00  0.00    +0.124 A 
ATOM      8  C   UNL     1      -0.440  13.371  -3.845  0.00  0.00    +0.092 A 
ATOM      9  C   UNL     1      -0.378  11.986  -3.835  0.00  0.00    +0.143 A 
ATOM     10  O   UNL     1      -1.475  11.248  -3.559  0.00  0.00    -0.422 OA
ATOM     11  C   UNL     1      -1.433   9.906  -3.549  0.00  0.00    +0.341 A 
ATOM     12  O   UNL     1      -2.449   9.283  -3.300  0.00  0.00    -0.245 OA
ATOM     13  C   UNL     1      -0.242   9.201  -3.816  0.00  0.00    +0.041 A 
BRANCH   7  14
ATOM     14  O   UNL     1       0.635  15.464  -4.142  0.00  0.00    -0.488 OA
BRANCH  14  15
ATOM     15  C   UNL     1       1.842  16.167  -4.444  0.00  0.00    +0.259 C 
BRANCH  15  16
ATOM     16  C   UNL     1       1.583  17.651  -4.409  0.00  0.00    -0.043 C 
ATOM     17  C   UNL     1       0.384  18.099  -4.129  0.00  0.00    +0.011 C 
ATOM     18  C   UNL     1       2.702  18.619  -4.695  0.00  0.00    +0.042 C 
ENDBRANCH  15  16
ENDBRANCH  14  15
ENDBRANCH   7  14
ENDBRANCH   1  13
BRANCH   1  19
ATOM     19  C   UNL     1       0.105   7.210  -2.379  0.00  0.00    +0.100 C 
BRANCH  19  20
ATOM     20  C   UNL     1       0.113   5.703  -2.353  0.00  0.00    +0.214 C 
ATOM     21  O   UNL     1      -0.129   5.078  -3.364  0.00  0.00    -0.276 OA
ATOM     22  N   UNL     1       0.389   5.051  -1.207  0.00  0.00    -0.313 N 
ATOM     23  H   UNL     1       0.582   5.550  -0.398  0.00  0.00    +0.149 HD
BRANCH  22  24
ATOM     24  C   UNL     1       0.396   3.583  -1.181  0.00  0.00    +0.070 C 
ATOM     25  C   UNL     1       1.298   3.104  -0.042  0.00  0.00    +0.009 C 
ATOM     26  C   UNL     1       1.320   1.577  -0.002  0.00  0.00    -0.072 C 
ATOM     27  C   UNL     1      -1.042   1.551  -0.852  0.00  0.00    -0.072 C 
ATOM     28  C   UNL     1      -1.022   3.076  -0.918  0.00  0.00    +0.009 C 
ATOM     29  C   UNL     1      -0.944   0.975  -2.269  0.00  0.00    -0.010 C 
ATOM     30  C   UNL     1      -2.415   1.129  -0.282  0.00  0.00    -0.010 C 
ATOM     31  C   UNL     1       2.035   1.156   1.301  0.00  0.00    -0.010 C 
ATOM     32  C   UNL     1       2.151   1.041  -1.172  0.00  0.00    -0.010 C 
ATOM     33  N   UNL     1      -0.027   0.947   0.053  0.00  0.00    +0.386 N 
ATOM     34  H   UNL     1      -0.375   1.022   1.016  0.00  0.00    -0.084 HD
ATOM     35  H   UNL     1       0.074  -0.044  -0.199  0.00  0.00    -0.084 HD
ENDBRANCH  22  24
ENDBRANCH  19  20
ENDBRANCH   1  19
TORSDOF 7
