REMARK  Name = ZINC41343543
REMARK  4 active torsions:
REMARK  status: ('A' for Active; 'I' for Inactive)
REMARK    1  A    between atoms: C_4  and  O_8
REMARK    2  A    between atoms: O_8  and  C_9
REMARK    3  A    between atoms: C_9  and  C_10
REMARK    4  A    between atoms: C_12  and  N_15
REMARK                            x       y       z     vdW  Elec       q    Type
REMARK                         _______ _______ _______ _____ _____    ______ ____
ROOT
ATOM      1  O   UNL     1       3.586  -0.633  -0.037  0.00  0.00    -0.484 OA
ENDROOT
BRANCH   1   5
ATOM      2  C   UNL     1      -0.017   1.379   0.010  0.00  0.00    +0.021 A 
ATOM      3  C   UNL     1       1.170   2.089   0.002  0.00  0.00    +0.025 A 
ATOM      4  C   UNL     1       2.378   1.418  -0.013  0.00  0.00    +0.083 A 
ATOM      5  C   UNL     1       2.400   0.029  -0.021  0.00  0.00    +0.141 A 
ATOM      6  C   UNL     1       1.208  -0.680  -0.013  0.00  0.00    +0.067 A 
ATOM      7  C   UNL     1       0.002  -0.004   0.002  0.00  0.00    +0.045 A 
ATOM      8 CL   UNL     1      -1.490  -0.892   0.012  0.00  0.00    -0.083 Cl
ATOM      9 CL   UNL     1       3.867   2.310  -0.024  0.00  0.00    -0.080 Cl
ENDBRANCH   1   5
BRANCH   1  10
ATOM     10  C   UNL     1       3.532  -2.061  -0.044  0.00  0.00    +0.288 C 
BRANCH  10  11
ATOM     11  C   UNL     1       4.933  -2.616  -0.062  0.00  0.00    +0.123 A 
ATOM     12  C   UNL     1       6.115  -1.864  -0.064  0.00  0.00    +0.095 A 
ATOM     13  C   UNL     1       7.164  -2.728  -0.081  0.00  0.00    +0.216 A 
ATOM     14  O   UNL     1       6.667  -3.977  -0.089  0.00  0.00    -0.340 OA
ATOM     15  N   UNL     1       5.254  -3.881  -0.071  0.00  0.00    -0.078 NA
BRANCH  13  16
ATOM     16  N   UNL     1       8.503  -2.384  -0.089  0.00  0.00    -0.327 N 
ATOM     17  H   UNL     1       8.764  -1.450  -0.083  0.00  0.00    +0.145 HD
ATOM     18  H   UNL     1       9.182  -3.077  -0.101  0.00  0.00    +0.145 HD
ENDBRANCH  13  16
ENDBRANCH  10  11
ENDBRANCH   1  10
TORSDOF 4
