REMARK  Name = ZINC36371068
REMARK  7 active torsions:
REMARK  status: ('A' for Active; 'I' for Inactive)
REMARK    1  A    between atoms: C_1  and  C_2
REMARK    2  A    between atoms: C_2  and  C_4
REMARK    3  A    between atoms: C_4  and  O_31
REMARK    4  A    between atoms: C_9  and  C_30
REMARK    5  A    between atoms: C_11  and  O_29
REMARK    6  A    between atoms: C_21  and  C_28
REMARK    7  A    between atoms: C_24  and  O_27
REMARK                            x       y       z     vdW  Elec       q    Type
REMARK                         _______ _______ _______ _____ _____    ______ ____
ROOT
ATOM      1  C   UNL     1      -1.293  -0.775   0.010  0.00  0.00    +0.129 C 
ATOM      2  C   UNL     1      -1.714  -1.131  -1.437  0.00  0.00    +0.043 C 
ATOM      3  C   UNL     1      -1.671  -2.680  -1.538  0.00  0.00    +0.008 C 
ATOM      4  C   UNL     1      -0.682  -3.068  -0.433  0.00  0.00    +0.002 C 
ATOM      5  C   UNL     1      -1.106  -2.114   0.717  0.00  0.00    +0.009 C 
ATOM      6  C   UNL     1      -0.025  -2.175   1.778  0.00  0.00    +0.041 C 
ATOM      7  C   UNL     1      -0.013  -3.607   2.338  0.00  0.00    +0.119 C 
ATOM      8  C   UNL     1       0.219  -4.635   1.235  0.00  0.00    +0.027 C 
ATOM      9  C   UNL     1      -0.792  -4.490   0.085  0.00  0.00    -0.001 C 
ATOM     10  C   UNL     1      -0.459  -5.489  -1.024  0.00  0.00    +0.004 C 
ATOM     11  C   UNL     1      -0.527  -6.911  -0.463  0.00  0.00    +0.004 C 
ATOM     12  C   UNL     1      -0.908  -6.856   1.018  0.00  0.00    -0.002 C 
ATOM     13  C   UNL     1       0.125  -6.048   1.812  0.00  0.00    -0.024 C 
ATOM     14  C   UNL     1      -0.251  -5.972   3.293  0.00  0.00    +0.010 C 
ATOM     15  C   UNL     1      -0.342  -7.387   3.869  0.00  0.00    +0.032 C 
ATOM     16  C   UNL     1      -1.409  -8.179   3.111  0.00  0.00    +0.115 C 
ATOM     17  C   UNL     1      -0.985  -8.277   1.580  0.00  0.00    +0.035 C 
ATOM     18  C   UNL     1       1.478  -6.748   1.666  0.00  0.00    +0.012 C 
ATOM     19  C   UNL     1      -2.438  -2.577   1.309  0.00  0.00    +0.015 C 
ENDROOT
BRANCH   1  21
ATOM     20  C   UNL     1      -0.018   1.503   0.010  0.00  0.00    +0.089 C 
ATOM     21  C   UNL     1       0.002  -0.004   0.002  0.00  0.00    +0.162 C 
ATOM     22  O   UNL     1       1.056  -0.594  -0.011  0.00  0.00    -0.295 OA
ENDBRANCH   1  21
BRANCH  16  23
ATOM     23  O   UNL     1      -2.673  -7.527   3.248  0.00  0.00    -0.392 OA
ATOM     24  H   UNL     1      -2.976  -7.444   4.162  0.00  0.00    +0.210 HD
ENDBRANCH  16  23
BRANCH   7  25
ATOM     25  O   UNL     1       1.030  -3.721   3.308  0.00  0.00    -0.391 OA
ATOM     26  H   UNL     1       0.937  -3.118   4.058  0.00  0.00    +0.210 HD
ENDBRANCH   7  25
BRANCH   1  27
ATOM     27  O   UNL     1      -2.317  -0.015   0.654  0.00  0.00    -0.381 OA
ATOM     28  H   UNL     1      -2.494   0.839   0.236  0.00  0.00    +0.211 HD
ENDBRANCH   1  27
TORSDOF 4
