REMARK  Name = ZINC01198794
REMARK  7 active torsions:
REMARK  status: ('A' for Active; 'I' for Inactive)
REMARK    1  A    between atoms: C_4  and  C_7
REMARK    2  A    between atoms: C_10  and  N_30
REMARK    3  A    between atoms: C_16  and  C_17
REMARK    4  A    between atoms: N_19  and  N_20
REMARK    5  A    between atoms: C_21  and  C_22
REMARK    6  A    between atoms: C_25  and  O_29
REMARK    7  A    between atoms: C_27  and  O_28
REMARK                            x       y       z     vdW  Elec       q    Type
REMARK                         _______ _______ _______ _____ _____    ______ ____
ROOT
ATOM      1  C   UNL     1       1.172   3.566   0.009  0.00  0.00    +0.020 A 
ATOM      2  C   UNL     1       1.656   4.454  -1.054  0.00  0.00    +0.010 A 
ATOM      3  C   UNL     1       2.235   4.232  -2.305  0.00  0.00    +0.043 A 
ATOM      4  C   UNL     1       2.590   5.294  -3.088  0.00  0.00    +0.127 A 
ATOM      5  C   UNL     1       2.380   6.594  -2.648  0.00  0.00    +0.035 A 
ATOM      6  C   UNL     1       1.802   6.837  -1.422  0.00  0.00    +0.028 A 
ATOM      7  C   UNL     1       1.437   5.769  -0.605  0.00  0.00    +0.048 A 
ATOM      8  N   UNL     1       0.869   5.702   0.646  0.00  0.00    -0.350 N 
ATOM      9  H   UNL     1       0.619   6.468   1.185  0.00  0.00    +0.166 HD
ATOM     10  C   UNL     1       0.706   4.385   1.022  0.00  0.00    +0.112 A 
ENDROOT
BRANCH   1  14
ATOM     11  C   UNL     1       1.208  -0.682  -0.013  0.00  0.00    +0.000 A 
ATOM     12  C   UNL     1       0.002  -0.004   0.002  0.00  0.00    +0.001 A 
ATOM     13  C   UNL     1      -0.017   1.375   0.010  0.00  0.00    +0.008 A 
ATOM     14  C   UNL     1       1.184   2.087   0.002  0.00  0.00    -0.015 A 
ATOM     15  C   UNL     1       2.397   1.396  -0.012  0.00  0.00    +0.008 A 
ATOM     16  C   UNL     1       2.402   0.017  -0.020  0.00  0.00    +0.001 A 
ENDBRANCH   1  14
BRANCH  10  17
ATOM     17  C   UNL     1       0.132   3.927   2.292  0.00  0.00    +0.280 C 
ATOM     18  O   UNL     1       0.036   2.735   2.522  0.00  0.00    -0.267 OA
ATOM     19  N   UNL     1      -0.288   4.825   3.205  0.00  0.00    -0.202 N 
ATOM     20  H   UNL     1      -0.211   5.775   3.022  0.00  0.00    +0.178 HD
BRANCH  19  21
ATOM     21  N   UNL     1      -0.836   4.388   4.417  0.00  0.00    -0.187 NA
ATOM     22  C   UNL     1      -1.241   5.253   5.297  0.00  0.00    +0.142 C 
BRANCH  22  23
ATOM     23  C   UNL     1      -1.817   4.793   6.572  0.00  0.00    +0.036 A 
ATOM     24  C   UNL     1      -2.254   5.722   7.520  0.00  0.00    +0.016 A 
ATOM     25  C   UNL     1      -2.793   5.288   8.711  0.00  0.00    +0.046 A 
ATOM     26  C   UNL     1      -2.904   3.927   8.974  0.00  0.00    +0.120 A 
ATOM     27  C   UNL     1      -2.474   2.997   8.039  0.00  0.00    +0.091 A 
ATOM     28  C   UNL     1      -1.935   3.421   6.837  0.00  0.00    +0.129 A 
BRANCH  28  29
ATOM     29  O   UNL     1      -1.518   2.512   5.918  0.00  0.00    -0.506 OA
ATOM     30  H   UNL     1      -0.593   2.249   6.017  0.00  0.00    +0.292 HD
ENDBRANCH  28  29
BRANCH  26  31
ATOM     31  O   UNL     1      -3.438   3.507  10.150  0.00  0.00    -0.507 OA
ATOM     32  H   UNL     1      -4.396   3.381  10.125  0.00  0.00    +0.292 HD
ENDBRANCH  26  31
ENDBRANCH  22  23
ENDBRANCH  19  21
ENDBRANCH  10  17
BRANCH   4  33
ATOM     33  N   UNL     1       3.203   5.056  -4.414  0.00  0.00    +0.056 N 
ATOM     34  O   UNL     1       3.390   3.918  -4.804  0.00  0.00    -0.126 OA
ATOM     35  O   UNL     1       3.521   6.000  -5.115  0.00  0.00    -0.126 OA
ENDBRANCH   4  33
TORSDOF 7
