REMARK  Name = ZINC66705017
REMARK  10 active torsions:
REMARK  status: ('A' for Active; 'I' for Inactive)
REMARK    1  A    between atoms: C_1  and  C_2
REMARK    2  A    between atoms: C_2  and  C_7
REMARK    3  A    between atoms: C_7  and  N_8
REMARK    4  A    between atoms: N_11  and  C_12
REMARK    5  A    between atoms: C_12  and  C_13
REMARK    6  A    between atoms: C_13  and  C_14
REMARK    7  A    between atoms: C_14  and  C_15
REMARK    8  A    between atoms: C_16  and  C_27
REMARK    9  A    between atoms: C_17  and  N_26
REMARK   10  A    between atoms: N_18  and  C_20
REMARK                            x       y       z     vdW  Elec       q    Type
REMARK                         _______ _______ _______ _____ _____    ______ ____
ROOT
ATOM      1  C   UNL     1      -7.354  -0.089  -4.370  0.00  0.00    +0.060 C 
ENDROOT
BRANCH   1   2
ATOM      2  C   UNL     1      -7.823   0.545  -5.653  0.00  0.00    +0.083 A 
ATOM      3  C   UNL     1      -8.435   1.815  -5.774  0.00  0.00    +0.114 A 
ATOM      4  C   UNL     1      -8.707   2.009  -7.126  0.00  0.00    +0.138 A 
ATOM      5  N   UNL     1      -8.277   0.905  -7.780  0.00  0.00    -0.217 N 
ATOM      6  N   UNL     1      -7.731   0.021  -6.843  0.00  0.00    -0.168 NA
BRANCH   5   7
ATOM      7  C   UNL     1      -8.359   0.688  -9.162  0.00  0.00    +0.067 A 
ATOM      8  C   UNL     1      -9.444   1.173  -9.879  0.00  0.00    +0.028 A 
ATOM      9  C   UNL     1      -9.523   0.957 -11.241  0.00  0.00    +0.002 A 
ATOM     10  C   UNL     1      -8.522   0.258 -11.890  0.00  0.00    +0.000 A 
ATOM     11  C   UNL     1      -7.440  -0.227 -11.178  0.00  0.00    +0.002 A 
ATOM     12  C   UNL     1      -7.353  -0.009  -9.817  0.00  0.00    +0.028 A 
ENDBRANCH   5   7
BRANCH   4  13
ATOM     13  N   UNL     1      -9.304   3.118  -7.693  0.00  0.00    -0.342 N 
ATOM     14  H   UNL     1      -9.577   3.861  -7.132  0.00  0.00    +0.144 HD
ATOM     15  H   UNL     1      -9.449   3.154  -8.651  0.00  0.00    +0.144 HD
ENDBRANCH   4  13
BRANCH   3  16
ATOM     16  C   UNL     1      -8.721   2.728  -4.709  0.00  0.00    +0.104 C 
ATOM     17  N   UNL     1      -8.948   3.452  -3.864  0.00  0.00    -0.191 NA
ENDBRANCH   3  16
ENDBRANCH   1   2
BRANCH   1  18
ATOM     18  C   UNL     1      -5.900   0.310  -4.105  0.00  0.00    +0.025 C 
BRANCH  18  19
ATOM     19  C   UNL     1      -5.423  -0.335  -2.802  0.00  0.00    +0.106 C 
BRANCH  19  23
ATOM     20  N   UNL     1      -2.117  -0.054  -1.217  0.00  0.00    -0.299 N 
ATOM     21  C   UNL     1      -3.397  -0.406  -1.450  0.00  0.00    +0.300 C 
ATOM     22  O   UNL     1      -3.980  -1.132  -0.668  0.00  0.00    -0.253 OA
ATOM     23  N   UNL     1      -4.032   0.047  -2.549  0.00  0.00    -0.299 N 
ATOM     24  H   UNL     1      -1.653   0.525  -1.841  0.00  0.00    +0.150 HD
ATOM     25  H   UNL     1      -3.567   0.627  -3.173  0.00  0.00    +0.150 HD
BRANCH  20  26
ATOM     26  C   UNL     1      -1.428  -0.547  -0.022  0.00  0.00    +0.112 C 
BRANCH  26  28
ATOM     27  C   UNL     1      -0.019   1.526   0.010  0.00  0.00    +0.013 C 
ATOM     28  C   UNL     1       0.002  -0.004   0.002  0.00  0.00    -0.016 C 
ATOM     29  C   UNL     1       0.783  -0.515  -1.226  0.00  0.00    +0.008 C 
ATOM     30  C   UNL     1       2.213  -0.768  -0.688  0.00  0.00    +0.001 C 
ATOM     31  C   UNL     1       1.950  -1.339   0.728  0.00  0.00    +0.001 C 
ATOM     32  C   UNL     1       0.744  -0.528   1.244  0.00  0.00    +0.008 C 
ENDBRANCH  26  28
ENDBRANCH  20  26
ENDBRANCH  19  23
ENDBRANCH  18  19
ENDBRANCH   1  18
TORSDOF 9
