REMARK  Name = ZINC13995422
REMARK  7 active torsions:
REMARK  status: ('A' for Active; 'I' for Inactive)
REMARK    1  A    between atoms: C_1  and  C_2
REMARK    2  A    between atoms: C_9  and  C_19
REMARK    3  A    between atoms: N_11  and  C_12
REMARK    4  A    between atoms: C_20  and  C_23
REMARK    5  A    between atoms: C_26  and  O_29
REMARK    6  A    between atoms: O_29  and  C_30
REMARK    7  A    between atoms: C_30  and  C_31
REMARK                            x       y       z     vdW  Elec       q    Type
REMARK                         _______ _______ _______ _____ _____    ______ ____
ROOT
ATOM      1  C   UNL     1       1.499  -1.148   0.345  0.00  0.00    +0.029 C 
ATOM      2  C   UNL     1       1.703  -2.458   1.108  0.00  0.00    +0.132 C 
ATOM      3  C   UNL     1       0.482  -3.280   0.976  0.00  0.00    +0.251 C 
ATOM      4  O   UNL     1       0.522  -4.124   0.101  0.00  0.00    -0.272 OA
ATOM      5  N   UNL     1      -0.612  -3.239   1.640  0.00  0.00    -0.163 NA
ATOM      6  C   UNL     1      -1.078  -2.568   2.664  0.00  0.00    +0.141 C 
ATOM      7  C   UNL     1      -0.508  -1.570   3.466  0.00  0.00    +0.027 C 
ATOM      8  C   UNL     1      -1.422  -1.211   4.413  0.00  0.00    +0.027 C 
ATOM      9  N   UNL     1      -2.554  -1.941   4.240  0.00  0.00    -0.262 N 
ATOM     10  N   UNL     1      -2.362  -2.788   3.147  0.00  0.00    -0.206 N 
ATOM     11  C   UNL     1      -1.208  -0.171   5.482  0.00  0.00    +0.062 C 
ATOM     12  C   UNL     1       0.848  -0.937   3.385  0.00  0.00    +0.112 C 
ATOM     13  S   UNL     1       2.112  -2.074   2.816  0.00  0.00    -0.135 S 
ATOM     14  H   UNL     1      -3.357  -1.883   4.781  0.00  0.00    +0.170 HD
ENDROOT
BRANCH  10  15
ATOM     15  C   UNL     1      -3.294  -3.695   2.632  0.00  0.00    +0.055 A 
ATOM     16  C   UNL     1      -3.989  -4.539   3.487  0.00  0.00    +0.028 A 
ATOM     17  C   UNL     1      -4.909  -5.434   2.976  0.00  0.00    +0.040 A 
ATOM     18  C   UNL     1      -5.138  -5.488   1.611  0.00  0.00    +0.124 A 
ATOM     19  C   UNL     1      -4.446  -4.647   0.756  0.00  0.00    +0.040 A 
ATOM     20  C   UNL     1      -3.529  -3.748   1.264  0.00  0.00    +0.028 A 
ATOM     21  F   UNL     1      -6.038  -6.364   1.113  0.00  0.00    -0.205 F 
ENDBRANCH  10  15
BRANCH  12  22
ATOM     22  C   UNL     1       1.230  -0.431   4.752  0.00  0.00    -0.030 A 
ATOM     23  C   UNL     1       1.346  -1.316   5.808  0.00  0.00    +0.008 A 
ATOM     24  C   UNL     1       1.696  -0.855   7.062  0.00  0.00    +0.046 A 
ATOM     25  C   UNL     1       1.932   0.498   7.262  0.00  0.00    +0.121 A 
ATOM     26  C   UNL     1       1.816   1.384   6.200  0.00  0.00    +0.046 A 
ATOM     27  C   UNL     1       1.471   0.917   4.947  0.00  0.00    +0.008 A 
BRANCH  25  28
ATOM     28  O   UNL     1       2.276   0.954   8.495  0.00  0.00    -0.483 OA
BRANCH  28  29
ATOM     29  C   UNL     1       2.505   2.358   8.626  0.00  0.00    +0.324 C 
BRANCH  29  30
ATOM     30  C   UNL     1       2.873   2.676  10.053  0.00  0.00    +0.248 C 
ATOM     31  O   UNL     1       2.934   1.787  10.876  0.00  0.00    -0.272 OA
ATOM     32  N   UNL     1       3.135   3.948  10.414  0.00  0.00    -0.327 N 
ATOM     33  H   UNL     1       3.086   4.659   9.756  0.00  0.00    +0.145 HD
ATOM     34  H   UNL     1       3.372   4.152  11.332  0.00  0.00    +0.145 HD
ENDBRANCH  29  30
ENDBRANCH  28  29
ENDBRANCH  25  28
ENDBRANCH  12  22
TORSDOF 5
