REMARK  Name = ZINC60267099
REMARK  12 active torsions:
REMARK  status: ('A' for Active; 'I' for Inactive)
REMARK    1  A    between atoms: C_1  and  C_2
REMARK    2  A    between atoms: C_2  and  N_3
REMARK    3  A    between atoms: C_7  and  C_9
REMARK    4  A    between atoms: C_9  and  N_10
REMARK    5  A    between atoms: N_10  and  C_11
REMARK    6  A    between atoms: C_11  and  C_12
REMARK    7  A    between atoms: C_12  and  C_13
REMARK    8  A    between atoms: C_13  and  O_15
REMARK    9  A    between atoms: O_15  and  C_16
REMARK   10  A    between atoms: C_16  and  C_17
REMARK   11  A    between atoms: C_18  and  C_20
REMARK   12  A    between atoms: C_23  and  C_28
REMARK                            x       y       z     vdW  Elec       q    Type
REMARK                         _______ _______ _______ _____ _____    ______ ____
ROOT
ATOM      1  N   UNL     1      -1.332  -1.617  -2.742  0.00  0.00    -0.298 N 
ATOM      2  C   UNL     1      -2.490  -2.065  -2.217  0.00  0.00    +0.252 C 
ATOM      3  O   UNL     1      -2.534  -3.158  -1.685  0.00  0.00    -0.270 OA
ENDROOT
BRANCH   2   4
ATOM      4  C   UNL     1      -3.700  -1.233  -2.289  0.00  0.00    +0.101 A 
ATOM      5  C   UNL     1      -4.507  -1.257  -3.426  0.00  0.00    +0.020 A 
ATOM      6  C   UNL     1      -5.646  -0.459  -3.464  0.00  0.00    +0.029 A 
ATOM      7  C   UNL     1      -5.962   0.342  -2.385  0.00  0.00    +0.068 A 
ATOM      8  N   UNL     1      -5.169   0.364  -1.275  0.00  0.00    -0.320 N 
ATOM      9  H   UNL     1      -5.408   0.934  -0.527  0.00  0.00    +0.169 HD
ATOM     10  C   UNL     1      -4.063  -0.399  -1.200  0.00  0.00    +0.261 A 
ATOM     11  O   UNL     1      -3.370  -0.371  -0.198  0.00  0.00    -0.267 OA
BRANCH   7  12
ATOM     12  C   UNL     1      -7.174   1.187  -2.434  0.00  0.00    +0.087 A 
ATOM     13  C   UNL     1      -7.493   2.003  -1.347  0.00  0.00    +0.030 A 
ATOM     14  C   UNL     1      -8.631   2.789  -1.408  0.00  0.00    +0.004 A 
ATOM     15  C   UNL     1      -9.413   2.735  -2.553  0.00  0.00    +0.020 A 
ATOM     16  C   UNL     1      -9.037   1.903  -3.594  0.00  0.00    +0.111 A 
ATOM     17  N   UNL     1      -7.947   1.169  -3.513  0.00  0.00    -0.254 NA
ENDBRANCH   7  12
ENDBRANCH   2   4
BRANCH   1  18
ATOM     18  C   UNL     1      -0.105  -2.402  -2.586  0.00  0.00    +0.093 C 
BRANCH  18  23
ATOM     19  N   UNL     1      -1.029  -4.174  -4.020  0.00  0.00    +0.382 N 
ATOM     20  C   UNL     1      -0.536  -5.566  -3.942  0.00  0.00    -0.078 C 
ATOM     21  C   UNL     1       0.964  -5.476  -4.318  0.00  0.00    -0.020 C 
ATOM     22  C   UNL     1       1.373  -4.134  -3.656  0.00  0.00    -0.016 C 
ATOM     23  C   UNL     1       0.113  -3.260  -3.833  0.00  0.00    -0.051 C 
ATOM     24  H   UNL     1      -1.712  -4.017  -3.294  0.00  0.00    -0.081 HD
BRANCH  19  26
ATOM     25  C   UNL     1      -2.898  -4.800  -5.473  0.00  0.00    -0.017 C 
ATOM     26  C   UNL     1      -1.640  -3.939  -5.335  0.00  0.00    -0.082 C 
ENDBRANCH  19  26
ENDBRANCH  18  23
ENDBRANCH   1  18
BRANCH   1  27
ATOM     27  C   UNL     1      -1.300  -0.345  -3.467  0.00  0.00    +0.119 C 
BRANCH  27  28
ATOM     28  C   UNL     1      -1.690  -0.581  -4.928  0.00  0.00    +0.139 C 
BRANCH  28  29
ATOM     29  C   UNL     1      -1.657   0.728  -5.674  0.00  0.00    +0.309 C 
ATOM     30  O   UNL     1      -1.353   1.745  -5.097  0.00  0.00    -0.251 OA
BRANCH  29  31
ATOM     31  O   UNL     1      -1.965   0.764  -6.980  0.00  0.00    -0.465 OA
BRANCH  31  32
ATOM     32  C   UNL     1      -1.913   2.039  -7.624  0.00  0.00    +0.229 C 
ATOM     33  C   UNL     1      -2.293   1.881  -9.098  0.00  0.00    +0.048 C 
ENDBRANCH  31  32
ENDBRANCH  29  31
ENDBRANCH  28  29
ENDBRANCH  27  28
ENDBRANCH   1  27
TORSDOF 10
