REMARK  Name = ZINC46701606
REMARK  5 active torsions:
REMARK  status: ('A' for Active; 'I' for Inactive)
REMARK    1  A    between atoms: C_2  and  C_25
REMARK    2  A    between atoms: C_3  and  N_24
REMARK    3  A    between atoms: C_5  and  S_7
REMARK    4  A    between atoms: S_7  and  C_8
REMARK    5  A    between atoms: C_8  and  C_9
REMARK                            x       y       z     vdW  Elec       q    Type
REMARK                         _______ _______ _______ _____ _____    ______ ____
ROOT
ATOM      1  C   UNL     1      -0.843  -4.330  -0.013  0.00  0.00    +0.121 A 
ATOM      2  N   UNL     1      -2.096  -4.851  -0.010  0.00  0.00    -0.310 N 
ATOM      3  H   UNL     1      -2.860  -4.253  -0.003  0.00  0.00    +0.170 HD
ATOM      4  C   UNL     1      -2.302  -6.181  -0.015  0.00  0.00    +0.260 A 
ATOM      5  O   UNL     1      -3.433  -6.634  -0.013  0.00  0.00    -0.267 OA
ATOM      6  C   UNL     1      -1.167  -7.057  -0.025  0.00  0.00    +0.075 A 
ATOM      7  C   UNL     1      -1.148  -8.520  -0.031  0.00  0.00    -0.023 A 
ATOM      8  C   UNL     1       0.063  -9.116  -0.040  0.00  0.00    -0.004 A 
ATOM      9  S   UNL     1       1.232  -7.783  -0.041  0.00  0.00    -0.073 S 
ATOM     10  C   UNL     1       0.087  -6.426  -0.028  0.00  0.00    +0.116 A 
ATOM     11  N   UNL     1       0.211  -5.102  -0.027  0.00  0.00    -0.226 NA
ATOM     12  C   UNL     1       0.351 -10.586  -0.047  0.00  0.00    +0.043 C 
ATOM     13  C   UNL     1      -0.936 -11.333   0.334  0.00  0.00    +0.005 C 
ATOM     14  C   UNL     1      -2.094 -10.770  -0.495  0.00  0.00    +0.005 C 
ATOM     15  C   UNL     1      -2.427  -9.352  -0.027  0.00  0.00    +0.037 C 
ENDROOT
BRANCH   1  16
ATOM     16  C   UNL     1      -0.664  -2.833  -0.007  0.00  0.00    +0.151 C 
BRANCH  16  17
ATOM     17  S   UNL     1       1.106  -2.436  -0.022  0.00  0.00    -0.078 S 
BRANCH  17  22
ATOM     18  C   UNL     1      -0.016   1.316   0.009  0.00  0.00    +0.136 A 
ATOM     19  C   UNL     1       1.198   2.013   0.001  0.00  0.00    +0.109 A 
ATOM     20  C   UNL     1       2.395   1.266  -0.014  0.00  0.00    +0.138 A 
ATOM     21  N   UNL     1       2.322  -0.060  -0.020  0.00  0.00    -0.206 NA
ATOM     22  C   UNL     1       1.148  -0.675  -0.013  0.00  0.00    +0.190 A 
ATOM     23  N   UNL     1       0.002  -0.004   0.002  0.00  0.00    -0.229 NA
BRANCH  20  24
ATOM     24  N   UNL     1       3.620   1.901  -0.023  0.00  0.00    -0.342 N 
ATOM     25  H   UNL     1       3.663   2.870  -0.018  0.00  0.00    +0.144 HD
ATOM     26  H   UNL     1       4.438   1.379  -0.033  0.00  0.00    +0.144 HD
ENDBRANCH  20  24
BRANCH  19  27
ATOM     27  C   UNL     1       1.224   3.445   0.008  0.00  0.00    +0.104 C 
ATOM     28  N   UNL     1       1.245   4.580   0.014  0.00  0.00    -0.191 NA
ENDBRANCH  19  27
ENDBRANCH  17  22
ENDBRANCH  16  17
ENDBRANCH   1  16
TORSDOF 5
