REMARK  Name = ZINC54064502
REMARK  7 active torsions:
REMARK  status: ('A' for Active; 'I' for Inactive)
REMARK    1  A    between atoms: C_1  and  C_2
REMARK    2  A    between atoms: C_2  and  C_4
REMARK    3  A    between atoms: C_2  and  N_11
REMARK    4  A    between atoms: N_14  and  N_15
REMARK    5  A    between atoms: C_16  and  C_18
REMARK    6  A    between atoms: C_18  and  C_19
REMARK    7  A    between atoms: N_27  and  C_28
REMARK                            x       y       z     vdW  Elec       q    Type
REMARK                         _______ _______ _______ _____ _____    ______ ____
ROOT
ATOM      1  N   UNL     1      -1.367  -0.520  -0.079  0.00  0.00    -0.292 N 
ATOM      2  C   UNL     1      -1.943  -0.717  -1.281  0.00  0.00    +0.316 C 
ATOM      3  O   UNL     1      -1.327  -0.466  -2.299  0.00  0.00    -0.251 OA
ATOM      4  N   UNL     1      -3.202  -1.191  -1.355  0.00  0.00    -0.218 N 
ATOM      5  H   UNL     1      -1.858  -0.720   0.733  0.00  0.00    +0.151 HD
ATOM      6  H   UNL     1      -3.617  -1.333  -2.221  0.00  0.00    +0.174 HD
ENDROOT
BRANCH   4   7
ATOM      7  N   UNL     1      -3.912  -1.480  -0.183  0.00  0.00    -0.233 N 
ATOM      8  C   UNL     1      -5.171  -1.955  -0.257  0.00  0.00    +0.236 C 
ATOM      9  O   UNL     1      -5.690  -2.132  -1.339  0.00  0.00    -0.274 OA
ATOM     10  H   UNL     1      -3.497  -1.339   0.683  0.00  0.00    +0.173 HD
BRANCH   8  11
ATOM     11  C   UNL     1      -5.935  -2.266   1.005  0.00  0.00    +0.171 C 
BRANCH  11  12
ATOM     12  C   UNL     1      -7.307  -2.778   0.648  0.00  0.00    +0.119 A 
ATOM     13  N   UNL     1      -8.361  -2.034   0.484  0.00  0.00    -0.232 NA
ATOM     14  C   UNL     1      -9.427  -2.814   0.170  0.00  0.00    +0.089 A 
ATOM     15  C   UNL     1     -10.770  -2.546  -0.104  0.00  0.00    +0.030 A 
ATOM     16  C   UNL     1     -11.624  -3.572  -0.394  0.00  0.00    +0.002 A 
ATOM     17  C   UNL     1     -11.172  -4.884  -0.419  0.00  0.00    +0.002 A 
ATOM     18  C   UNL     1      -9.850  -5.172  -0.151  0.00  0.00    +0.028 A 
ATOM     19  C   UNL     1      -8.968  -4.142   0.145  0.00  0.00    +0.069 A 
ATOM     20  N   UNL     1      -7.622  -4.086   0.445  0.00  0.00    -0.330 N 
ATOM     21  C   UNL     1      -6.703  -5.224   0.533  0.00  0.00    +0.150 C 
ENDBRANCH  11  12
ENDBRANCH   8  11
ENDBRANCH   4   7
BRANCH   1  23
ATOM     22  C   UNL     1      -0.028   1.526  -0.017  0.00  0.00    +0.033 C 
ATOM     23  C   UNL     1       0.002  -0.004   0.002  0.00  0.00    +0.103 C 
BRANCH  23  24
ATOM     24  C   UNL     1       0.643  -0.479   1.281  0.00  0.00    -0.009 A 
ATOM     25  C   UNL     1      -0.141  -0.765   2.382  0.00  0.00    +0.007 A 
ATOM     26  C   UNL     1       0.447  -1.201   3.555  0.00  0.00    +0.000 A 
ATOM     27  C   UNL     1       1.820  -1.349   3.627  0.00  0.00    +0.001 A 
ATOM     28  C   UNL     1       2.605  -1.063   2.526  0.00  0.00    +0.020 A 
ATOM     29  C   UNL     1       2.016  -0.633   1.350  0.00  0.00    +0.046 A 
ATOM     30 CL   UNL     1       3.001  -0.279  -0.035  0.00  0.00    -0.083 Cl
ENDBRANCH  23  24
ENDBRANCH   1  23
TORSDOF 5
