REMARK  Name = ZINC35532586
REMARK  10 active torsions:
REMARK  status: ('A' for Active; 'I' for Inactive)
REMARK    1  A    between atoms: C_1  and  C_2
REMARK    2  A    between atoms: C_5  and  N_9
REMARK    3  A    between atoms: C_7  and  C_8
REMARK    4  A    between atoms: C_10  and  C_12
REMARK    5  A    between atoms: C_15  and  C_36
REMARK    6  A    between atoms: C_16  and  C_17
REMARK    7  A    between atoms: C_16  and  C_18
REMARK    8  A    between atoms: N_20  and  O_21
REMARK    9  A    between atoms: O_21  and  C_22
REMARK   10  A    between atoms: C_22  and  C_24
REMARK                            x       y       z     vdW  Elec       q    Type
REMARK                         _______ _______ _______ _____ _____    ______ ____
ROOT
ATOM      1  C   UNL     1      -0.134  -6.343  -1.187  0.00  0.00    +0.058 C 
ATOM      2  C   UNL     1      -1.376  -6.953  -0.466  0.00  0.00    +0.018 C 
ATOM      3  C   UNL     1      -1.482  -8.389  -1.029  0.00  0.00    +0.014 C 
ATOM      4  C   UNL     1      -0.300  -8.503  -2.039  0.00  0.00    +0.015 C 
ATOM      5  C   UNL     1      -0.246  -7.035  -2.592  0.00  0.00    -0.010 C 
ATOM      6  C   UNL     1       0.985  -6.774  -3.462  0.00  0.00    +0.013 C 
ATOM      7  C   UNL     1      -1.542  -6.663  -3.315  0.00  0.00    +0.013 C 
ATOM      8  C   UNL     1       0.959  -8.527  -1.161  0.00  0.00    +0.066 C 
ATOM      9  N   UNL     1       1.740  -9.518  -0.952  0.00  0.00    -0.083 NA
ATOM     10  C   UNL     1       1.092  -7.107  -0.599  0.00  0.00    +0.071 C 
ATOM     11  C   UNL     1      -0.422  -9.613  -3.086  0.00  0.00    +0.018 C 
ENDROOT
BRANCH   1  13
ATOM     12  N   UNL     1       0.059  -4.170  -0.021  0.00  0.00    -0.285 N 
ATOM     13  C   UNL     1      -0.040  -4.839  -1.187  0.00  0.00    +0.224 C 
ATOM     14  O   UNL     1      -0.054  -4.230  -2.236  0.00  0.00    -0.275 OA
ATOM     15  H   UNL     1       0.147  -4.658   0.812  0.00  0.00    +0.155 HD
BRANCH  12  20
ATOM     16  C   UNL     1      -0.041   1.502   0.014  0.00  0.00    +0.044 C 
ATOM     17  C   UNL     1      -0.015  -0.004   0.004  0.00  0.00    -0.047 A 
ATOM     18  C   UNL     1      -0.752  -0.702  -0.935  0.00  0.00    +0.005 A 
ATOM     19  C   UNL     1      -0.730  -2.082  -0.946  0.00  0.00    +0.023 A 
ATOM     20  C   UNL     1       0.034  -2.771  -0.013  0.00  0.00    +0.034 A 
ATOM     21  C   UNL     1       0.773  -2.068   0.929  0.00  0.00    +0.027 A 
ATOM     22  C   UNL     1       0.751  -0.686   0.932  0.00  0.00    -0.046 A 
ATOM     23  C   UNL     1       1.557   0.078   1.950  0.00  0.00    +0.044 C 
ENDBRANCH  12  20
ENDBRANCH   1  13
BRANCH   9  24
ATOM     24  O   UNL     1       1.480 -10.767  -1.566  0.00  0.00    -0.312 OA
BRANCH  24  25
ATOM     25  C   UNL     1       2.378 -11.725  -1.264  0.00  0.00    +0.373 C 
ATOM     26  O   UNL     1       3.308 -11.474  -0.522  0.00  0.00    -0.242 OA
BRANCH  25  27
ATOM     27  C   UNL     1       2.234 -13.075  -1.831  0.00  0.00    +0.146 A 
ATOM     28  C   UNL     1       3.140 -14.084  -1.533  0.00  0.00    +0.033 A 
ATOM     29  C   UNL     1       2.953 -15.351  -2.143  0.00  0.00    +0.018 A 
ATOM     30  C   UNL     1       3.709 -16.458  -1.732  0.00  0.00    +0.011 A 
ATOM     31  C   UNL     1       3.488 -17.680  -2.300  0.00  0.00    +0.001 A 
ATOM     32  C   UNL     1       2.525 -17.835  -3.288  0.00  0.00    +0.004 A 
ATOM     33  C   UNL     1       1.784 -16.756  -3.722  0.00  0.00    +0.047 A 
ATOM     34  C   UNL     1       1.996 -15.502  -3.164  0.00  0.00    +0.139 A 
ATOM     35  O   UNL     1       1.304 -14.427  -3.612  0.00  0.00    -0.422 OA
ATOM     36  C   UNL     1       1.118 -13.411  -2.734  0.00  0.00    +0.352 A 
ATOM     37  O   UNL     1       0.069 -12.796  -2.694  0.00  0.00    -0.244 OA
ENDBRANCH  25  27
ENDBRANCH  24  25
ENDBRANCH   9  24
TORSDOF 5
