REMARK  Name = ZINC05646531
REMARK  8 active torsions:
REMARK  status: ('A' for Active; 'I' for Inactive)
REMARK    1  A    between atoms: C_1  and  C_2
REMARK    2  A    between atoms: C_8  and  C_27
REMARK    3  A    between atoms: C_11  and  C_25
REMARK    4  A    between atoms: C_11  and  C_26
REMARK    5  A    between atoms: C_13  and  C_15
REMARK    6  A    between atoms: C_15  and  S_16
REMARK    7  A    between atoms: S_16  and  C_17
REMARK    8  A    between atoms: C_19  and  C_24
REMARK                            x       y       z     vdW  Elec       q    Type
REMARK                         _______ _______ _______ _____ _____    ______ ____
ROOT
ATOM      1  C   UNL     1       0.407   1.521  -0.026  0.00  0.00    +0.044 C 
ATOM      2  C   UNL     1       0.201   0.029  -0.004  0.00  0.00    -0.050 A 
ATOM      3  C   UNL     1      -0.174  -0.633  -1.159  0.00  0.00    +0.005 A 
ATOM      4  C   UNL     1      -0.363  -2.001  -1.138  0.00  0.00    +0.024 A 
ATOM      5  C   UNL     1      -0.176  -2.711   0.042  0.00  0.00    +0.040 A 
ATOM      6  C   UNL     1       0.203  -2.048   1.198  0.00  0.00    -0.023 A 
ATOM      7  C   UNL     1       0.394  -0.676   1.168  0.00  0.00    +0.009 A 
ATOM      8  C   UNL     1       0.425  -2.786   2.492  0.00  0.00    +0.020 C 
ATOM      9  C   UNL     1      -0.292  -4.136   2.469  0.00  0.00    +0.033 C 
ATOM     10  C   UNL     1       0.101  -4.884   1.188  0.00  0.00    +0.037 C 
ATOM     11  N   UNL     1      -0.378  -4.098   0.043  0.00  0.00    -0.265 N 
ATOM     12  C   UNL     1      -1.002  -4.700  -0.988  0.00  0.00    +0.231 C 
ATOM     13  O   UNL     1      -1.531  -4.032  -1.851  0.00  0.00    -0.274 OA
ATOM     14  C   UNL     1      -0.551  -6.268   1.176  0.00  0.00    +0.032 C 
ATOM     15  C   UNL     1       1.623  -5.027   1.118  0.00  0.00    +0.032 C 
ATOM     16  C   UNL     1      -0.117  -1.947   3.651  0.00  0.00    +0.012 C 
ENDROOT
BRANCH  12  17
ATOM     17  C   UNL     1      -1.043  -6.205  -1.070  0.00  0.00    +0.173 C 
BRANCH  17  18
ATOM     18  S   UNL     1      -1.735  -6.705  -2.670  0.00  0.00    -0.078 S 
BRANCH  18  19
ATOM     19  C   UNL     1      -1.716  -8.466  -2.610  0.00  0.00    +0.170 A 
ATOM     20  N   UNL     1      -1.259  -9.074  -1.532  0.00  0.00    -0.228 NA
ATOM     21  C   UNL     1      -1.228 -10.401  -1.447  0.00  0.00    +0.046 A 
ATOM     22  C   UNL     1      -1.673 -11.165  -2.487  0.00  0.00    +0.093 A 
ATOM     23  C   UNL     1      -2.163 -10.526  -3.639  0.00  0.00    +0.252 A 
ATOM     24  N   UNL     1      -2.179  -9.177  -3.676  0.00  0.00    -0.302 N 
ATOM     25  O   UNL     1      -2.568 -11.179  -4.587  0.00  0.00    -0.268 OA
ATOM     26  C   UNL     1      -0.699 -11.062  -0.200  0.00  0.00    +0.066 C 
ATOM     27  H   UNL     1      -2.515  -8.715  -4.460  0.00  0.00    +0.171 HD
ENDBRANCH  18  19
ENDBRANCH  17  18
ENDBRANCH  12  17
TORSDOF 3
