REMARK  Name = ZINC36526780
REMARK  22 active torsions:
REMARK  status: ('A' for Active; 'I' for Inactive)
REMARK    1  A    between atoms: C_1  and  C_2
REMARK    2  A    between atoms: C_2  and  C_3
REMARK    3  A    between atoms: C_3  and  C_4
REMARK    4  A    between atoms: C_4  and  C_5
REMARK    5  A    between atoms: C_5  and  C_7
REMARK    6  A    between atoms: C_5  and  C_9
REMARK    7  A    between atoms: C_7  and  C_8
REMARK    8  A    between atoms: N_11  and  C_12
REMARK    9  A    between atoms: N_11  and  C_13
REMARK   10  A    between atoms: C_13  and  C_15
REMARK   11  A    between atoms: C_13  and  C_24
REMARK   12  A    between atoms: C_16  and  O_23
REMARK   13  A    between atoms: C_18  and  O_22
REMARK   14  A    between atoms: C_20  and  O_21
REMARK   15  A    between atoms: N_26  and  C_27
REMARK   16  A    between atoms: C_27  and  C_28
REMARK   17  A    between atoms: C_27  and  C_29
REMARK   18  A    between atoms: C_27  and  C_30
REMARK   19  A    between atoms: C_30  and  C_31
REMARK   20  A    between atoms: C_31  and  C_32
REMARK   21  A    between atoms: C_31  and  C_33
REMARK   22  A    between atoms: C_31  and  C_34
REMARK                            x       y       z     vdW  Elec       q    Type
REMARK                         _______ _______ _______ _____ _____    ______ ____
ROOT
ATOM      1  C   UNL     1       2.795  -7.882  -5.168  0.00  0.00    +0.199 C 
ENDROOT
BRANCH   1   2
ATOM      2  C   UNL     1       3.833  -8.837  -5.701  0.00  0.00    +0.065 A 
ATOM      3  C   UNL     1       3.566  -9.587  -6.836  0.00  0.00    +0.129 A 
ATOM      4  C   UNL     1       4.521 -10.465  -7.327  0.00  0.00    +0.091 A 
ATOM      5  C   UNL     1       5.742 -10.593  -6.681  0.00  0.00    +0.124 A 
ATOM      6  C   UNL     1       6.009  -9.842  -5.547  0.00  0.00    +0.091 A 
ATOM      7  C   UNL     1       5.056  -8.960  -5.059  0.00  0.00    +0.129 A 
BRANCH   7   8
ATOM      8  O   UNL     1       5.319  -8.221  -3.950  0.00  0.00    -0.506 OA
ATOM      9  H   UNL     1       5.063  -8.650  -3.121  0.00  0.00    +0.292 HD
ENDBRANCH   7   8
BRANCH   5  10
ATOM     10  O   UNL     1       6.677 -11.454  -7.161  0.00  0.00    -0.507 OA
ATOM     11  H   UNL     1       7.282 -11.060  -7.805  0.00  0.00    +0.292 HD
ENDBRANCH   5  10
BRANCH   3  12
ATOM     12  O   UNL     1       2.370  -9.462  -7.468  0.00  0.00    -0.506 OA
ATOM     13  H   UNL     1       2.382  -8.847  -8.214  0.00  0.00    +0.292 HD
ENDBRANCH   3  12
ENDBRANCH   1   2
BRANCH   1  16
ATOM     14  C   UNL     1       3.434  -5.957  -3.818  0.00  0.00    +0.219 C 
ATOM     15  O   UNL     1       3.069  -6.561  -2.833  0.00  0.00    -0.275 OA
ATOM     16  N   UNL     1       3.385  -6.548  -5.028  0.00  0.00    -0.289 N 
ATOM     17  C   UNL     1       3.921  -5.858  -6.204  0.00  0.00    +0.133 C 
BRANCH  14  18
ATOM     18  C   UNL     1       3.942  -4.543  -3.691  0.00  0.00    +0.075 C 
BRANCH  18  19
ATOM     19  C   UNL     1       2.927  -3.579  -4.309  0.00  0.00    +0.009 C 
ATOM     20  C   UNL     1       1.610  -3.659  -3.534  0.00  0.00    +0.004 C 
ENDBRANCH  18  19
BRANCH  18  21
ATOM     21  C   UNL     1       4.134  -4.202  -2.212  0.00  0.00    +0.013 C 
BRANCH  21  22
ATOM     22  C   UNL     1       4.812  -2.836  -2.087  0.00  0.00    +0.000 C 
BRANCH  22  24
ATOM     23  C   UNL     1       5.585  -1.081  -0.487  0.00  0.00    +0.004 C 
ATOM     24  C   UNL     1       4.907  -2.447  -0.611  0.00  0.00    -0.003 C 
ENDBRANCH  22  24
ENDBRANCH  21  22
ENDBRANCH  18  21
ENDBRANCH  14  18
ENDBRANCH   1  16
BRANCH   1  25
ATOM     25  C   UNL     1       1.632  -7.819  -6.124  0.00  0.00    +0.239 C 
ATOM     26  O   UNL     1       1.634  -7.012  -7.029  0.00  0.00    -0.273 OA
ATOM     27  N   UNL     1       0.590  -8.661  -5.974  0.00  0.00    -0.308 N 
ATOM     28  H   UNL     1       0.628  -9.366  -5.309  0.00  0.00    +0.149 HD
BRANCH  27  29
ATOM     29  C   UNL     1      -0.600  -8.510  -6.814  0.00  0.00    +0.030 C 
ATOM     30  C   UNL     1      -1.128  -7.078  -6.700  0.00  0.00    +0.031 C 
ATOM     31  C   UNL     1      -0.236  -8.804  -8.271  0.00  0.00    +0.031 C 
BRANCH  29  32
ATOM     32  C   UNL     1      -1.680  -9.490  -6.351  0.00  0.00    +0.031 C 
BRANCH  32  33
ATOM     33  C   UNL     1      -2.180  -9.079  -4.964  0.00  0.00    -0.036 C 
ATOM     34  C   UNL     1      -3.119  -7.878  -5.097  0.00  0.00    +0.010 C 
ATOM     35  C   UNL     1      -2.933 -10.248  -4.327  0.00  0.00    +0.010 C 
ATOM     36  C   UNL     1      -0.988  -8.699  -4.084  0.00  0.00    +0.010 C 
ENDBRANCH  32  33
ENDBRANCH  29  32
ENDBRANCH  27  29
ENDBRANCH   1  25
TORSDOF 14
