REMARK  Name = ZINC60881330
REMARK  11 active torsions:
REMARK  status: ('A' for Active; 'I' for Inactive)
REMARK    1  A    between atoms: C_1  and  C_2
REMARK    2  A    between atoms: C_7  and  N_8
REMARK    3  A    between atoms: N_8  and  C_9
REMARK    4  A    between atoms: C_9  and  N_11
REMARK    5  A    between atoms: N_11  and  N_12
REMARK    6  A    between atoms: C_13  and  C_15
REMARK    7  A    between atoms: C_15  and  C_16
REMARK    8  A    between atoms: C_15  and  N_19
REMARK    9  A    between atoms: C_16  and  C_17
REMARK   10  A    between atoms: C_16  and  C_18
REMARK   11  A    between atoms: C_20  and  C_22
REMARK                            x       y       z     vdW  Elec       q    Type
REMARK                         _______ _______ _______ _____ _____    ______ ____
ROOT
ATOM      1  N   UNL     1       4.479   1.285   0.949  0.00  0.00    -0.234 N 
ATOM      2  C   UNL     1       5.811   1.471   1.045  0.00  0.00    +0.250 C 
ATOM      3  O   UNL     1       6.348   1.455   2.132  0.00  0.00    -0.272 OA
ATOM      4  H   UNL     1       4.039   1.366   0.089  0.00  0.00    +0.173 HD
ENDROOT
BRANCH   1   5
ATOM      5  N   UNL     1       3.731   0.976   2.093  0.00  0.00    -0.246 N 
ATOM      6  H   UNL     1       4.171   0.895   2.953  0.00  0.00    +0.172 HD
BRANCH   5   7
ATOM      7  C   UNL     1       2.399   0.790   1.997  0.00  0.00    +0.147 C 
ATOM      8  S   UNL     1       1.485   0.412   3.394  0.00  0.00    -0.017 S 
BRANCH   7   9
ATOM      9  N   UNL     1       1.788   0.902   0.801  0.00  0.00    -0.322 N 
ATOM     10  H   UNL     1       2.306   1.117   0.009  0.00  0.00    +0.148 HD
BRANCH   9  17
ATOM     11  C   UNL     1       0.104   2.947  -0.370  0.00  0.00    +0.009 C 
ATOM     12  C   UNL     1      -0.193   1.454  -0.523  0.00  0.00    +0.006 C 
ATOM     13  C   UNL     1       0.488   0.925  -1.787  0.00  0.00    +0.005 C 
ATOM     14  C   UNL     1       0.191  -0.568  -1.940  0.00  0.00    +0.000 C 
ATOM     15  C   UNL     1       0.724  -1.321  -0.720  0.00  0.00    +0.002 C 
ATOM     16  C   UNL     1       0.043  -0.792   0.544  0.00  0.00    +0.022 C 
ATOM     17  C   UNL     1       0.340   0.701   0.697  0.00  0.00    +0.075 C 
ENDBRANCH   9  17
ENDBRANCH   7   9
ENDBRANCH   5   7
ENDBRANCH   1   5
BRANCH   2  18
ATOM     18  C   UNL     1       6.631   1.698  -0.198  0.00  0.00    +0.163 C 
BRANCH  18  19
ATOM     19  N   UNL     1       7.832   2.465   0.143  0.00  0.00    -0.299 N 
ATOM     20  C   UNL     1       8.444   3.211  -0.797  0.00  0.00    +0.251 C 
ATOM     21  O   UNL     1       8.000   3.248  -1.930  0.00  0.00    -0.270 OA
ATOM     22  H   UNL     1       8.186   2.436   1.045  0.00  0.00    +0.150 HD
BRANCH  20  23
ATOM     23  C   UNL     1       9.646   3.979  -0.456  0.00  0.00    +0.074 A 
ATOM     24  C   UNL     1      10.415   4.804  -1.263  0.00  0.00    +0.021 A 
ATOM     25  C   UNL     1      11.495   5.395  -0.655  0.00  0.00    +0.008 A 
ATOM     26  C   UNL     1      11.734   5.143   0.656  0.00  0.00    +0.046 A 
ATOM     27  S   UNL     1      10.495   4.100   1.106  0.00  0.00    -0.092 S 
ENDBRANCH  20  23
ENDBRANCH  18  19
BRANCH  18  28
ATOM     28  C   UNL     1       7.039   0.349  -0.793  0.00  0.00    +0.012 C 
ATOM     29  C   UNL     1       7.757  -0.482   0.272  0.00  0.00    +0.009 C 
ATOM     30  C   UNL     1       5.791  -0.397  -1.268  0.00  0.00    +0.009 C 
ENDBRANCH  18  28
ENDBRANCH   2  18
TORSDOF 8
