REMARK  Name = ZINC43109634
REMARK  7 active torsions:
REMARK  status: ('A' for Active; 'I' for Inactive)
REMARK    1  A    between atoms: C_1  and  N_2
REMARK    2  A    between atoms: N_2  and  C_3
REMARK    3  A    between atoms: N_2  and  C_4
REMARK    4  A    between atoms: C_4  and  C_10
REMARK    5  A    between atoms: C_10  and  N_11
REMARK    6  A    between atoms: N_17  and  C_20
REMARK    7  A    between atoms: C_20  and  C_21
REMARK                            x       y       z     vdW  Elec       q    Type
REMARK                         _______ _______ _______ _____ _____    ______ ____
ROOT
ATOM      1  N   UNL     1      -3.014   0.608  -3.759  0.00  0.00    -0.301 N 
ATOM      2  C   UNL     1      -1.907  -0.152  -3.650  0.00  0.00    +0.302 C 
ATOM      3  O   UNL     1      -1.425  -0.371  -2.556  0.00  0.00    -0.253 OA
ATOM      4  N   UNL     1      -1.334  -0.671  -4.755  0.00  0.00    -0.283 N 
ATOM      5  C   UNL     1      -0.195  -1.596  -4.651  0.00  0.00    +0.124 C 
ATOM      6  C   UNL     1      -0.504  -2.844  -5.485  0.00  0.00    +0.104 C 
ATOM      7  N   UNL     1      -0.854  -2.440  -6.853  0.00  0.00    -0.291 NA
ATOM      8  C   UNL     1      -2.076  -1.624  -6.872  0.00  0.00    +0.104 C 
ATOM      9  C   UNL     1      -1.835  -0.331  -6.095  0.00  0.00    +0.124 C 
ATOM     10  H   UNL     1      -3.356   0.844  -4.636  0.00  0.00    +0.150 HD
ENDROOT
BRANCH   1  11
ATOM     11  C   UNL     1      -3.701   1.079  -2.554  0.00  0.00    +0.094 C 
BRANCH  11  12
ATOM     12  C   UNL     1      -4.918   1.915  -2.954  0.00  0.00    -0.050 C 
ATOM     13  C   UNL     1      -5.635   2.407  -1.696  0.00  0.00    -0.010 C 
ATOM     14  C   UNL     1      -4.678   3.265  -0.865  0.00  0.00    -0.001 C 
ATOM     15  C   UNL     1      -4.221   4.467  -1.694  0.00  0.00    -0.000 C 
ATOM     16  C   UNL     1      -3.504   3.975  -2.953  0.00  0.00    -0.001 C 
ATOM     17  C   UNL     1      -4.461   3.117  -3.783  0.00  0.00    -0.010 C 
BRANCH  12  19
ATOM     18  C   UNL     1      -6.276  -0.062  -2.955  0.00  0.00    -0.096 C 
ATOM     19  N   UNL     1      -5.837   1.092  -3.751  0.00  0.00    +0.381 N 
ATOM     20  C   UNL     1      -7.006   1.895  -4.136  0.00  0.00    -0.096 C 
ATOM     21  H   UNL     1      -5.364   0.768  -4.582  0.00  0.00    -0.082 HD
ENDBRANCH  12  19
ENDBRANCH  11  12
ENDBRANCH   1  11
BRANCH   7  22
ATOM     22  C   UNL     1      -0.990  -3.612  -7.729  0.00  0.00    +0.180 C 
BRANCH  22  23
ATOM     23  C   UNL     1      -1.105  -3.158  -9.161  0.00  0.00    +0.230 C 
ATOM     24  O   UNL     1      -1.076  -1.975  -9.426  0.00  0.00    -0.274 OA
ATOM     25  N   UNL     1      -1.239  -4.066 -10.148  0.00  0.00    -0.300 N 
ATOM     26  C   UNL     1      -1.282  -5.503  -9.841  0.00  0.00    +0.108 C 
ATOM     27  C   UNL     1      -2.543  -6.104 -10.471  0.00  0.00    +0.019 C 
ATOM     28  C   UNL     1      -2.566  -5.779 -11.966  0.00  0.00    +0.003 C 
ATOM     29  C   UNL     1      -2.605  -4.261 -12.160  0.00  0.00    +0.019 C 
ATOM     30  C   UNL     1      -1.352  -3.639 -11.549  0.00  0.00    +0.108 C 
ENDBRANCH  22  23
ENDBRANCH   7  22
TORSDOF 5
