REMARK  Name = ZINC42507299
REMARK  8 active torsions:
REMARK  status: ('A' for Active; 'I' for Inactive)
REMARK    1  A    between atoms: C_1  and  C_2
REMARK    2  A    between atoms: C_4  and  C_21
REMARK    3  A    between atoms: C_7  and  C_8
REMARK    4  A    between atoms: N_9  and  O_10
REMARK    5  A    between atoms: N_12  and  C_13
REMARK    6  A    between atoms: N_12  and  C_16
REMARK    7  A    between atoms: C_13  and  C_14
REMARK    8  A    between atoms: C_14  and  O_15
REMARK                            x       y       z     vdW  Elec       q    Type
REMARK                         _______ _______ _______ _____ _____    ______ ____
ROOT
ATOM      1  C   UNL     1      -2.645  -0.120  -0.876  0.00  0.00    +0.044 C 
ATOM      2  C   UNL     1      -1.298  -0.630  -0.432  0.00  0.00    -0.035 A 
ATOM      3  C   UNL     1      -0.152  -0.319  -1.144  0.00  0.00    +0.025 A 
ATOM      4  C   UNL     1       1.069  -0.801  -0.712  0.00  0.00    +0.015 A 
ATOM      5  N   UNL     1       1.163  -1.553   0.368  0.00  0.00    -0.346 N 
ATOM      6  C   UNL     1       0.099  -1.880   1.084  0.00  0.00    +0.110 A 
ATOM      7  C   UNL     1      -1.175  -1.423   0.712  0.00  0.00    +0.059 A 
ATOM      8  N   UNL     1       0.244  -2.673   2.211  0.00  0.00    -0.311 N 
ATOM      9  C   UNL     1       2.316  -0.461  -1.488  0.00  0.00    +0.063 C 
ATOM     10  H   UNL     1       2.035  -1.876   0.644  0.00  0.00    +0.167 HD
ENDROOT
BRANCH   7  11
ATOM     11  C   UNL     1      -2.365  -1.780   1.512  0.00  0.00    +0.166 C 
ATOM     12  N   UNL     1      -3.001  -2.891   1.273  0.00  0.00    -0.071 NA
ATOM     13  N   UNL     1      -2.805  -0.933   2.514  0.00  0.00    -0.340 N 
ATOM     14  H   UNL     1      -2.332  -0.105   2.692  0.00  0.00    +0.144 HD
ATOM     15  H   UNL     1      -3.587  -1.167   3.040  0.00  0.00    +0.144 HD
BRANCH  12  16
ATOM     16  O   UNL     1      -4.141  -3.233   2.040  0.00  0.00    -0.408 OA
ATOM     17  H   UNL     1      -4.545  -4.076   1.790  0.00  0.00    +0.328 HD
ENDBRANCH  12  16
ENDBRANCH   7  11
BRANCH   8  18
ATOM     18  C   UNL     1       0.295  -4.132   2.079  0.00  0.00    +0.075 C 
ATOM     19  C   UNL     1      -0.725  -4.784   3.035  0.00  0.00    +0.022 C 
ATOM     20  C   UNL     1      -0.013  -6.066   3.533  0.00  0.00    +0.002 C 
ATOM     21  C   UNL     1       1.457  -5.601   3.689  0.00  0.00    +0.002 C 
ATOM     22  C   UNL     1       1.682  -4.651   2.495  0.00  0.00    +0.022 C 
ENDBRANCH   8  18
BRANCH   8  23
ATOM     23  C   UNL     1       0.348  -2.054   3.534  0.00  0.00    +0.134 C 
BRANCH  23  24
ATOM     24  C   UNL     1       1.796  -1.630   3.787  0.00  0.00    +0.174 C 
BRANCH  24  25
ATOM     25  O   UNL     1       2.162  -0.608   2.858  0.00  0.00    -0.393 OA
ATOM     26  H   UNL     1       3.070  -0.290   2.960  0.00  0.00    +0.209 HD
ENDBRANCH  24  25
ENDBRANCH  23  24
ENDBRANCH   8  23
TORSDOF 6
