REMARK  Name = ZINC39441531
REMARK  4 active torsions:
REMARK  status: ('A' for Active; 'I' for Inactive)
REMARK    1  A    between atoms: C_1  and  C_2
REMARK    2  A    between atoms: C_2  and  C_4
REMARK    3  A    between atoms: C_2  and  S_17
REMARK    4  A    between atoms: S_17  and  C_18
REMARK                            x       y       z     vdW  Elec       q    Type
REMARK                         _______ _______ _______ _____ _____    ______ ____
ROOT
ATOM      1  C   UNL     1       0.799  -0.290   1.150  0.00  0.00    +0.230 C 
ATOM      2  O   UNL     1       1.879  -0.839   1.087  0.00  0.00    -0.274 OA
ATOM      3  N   UNL     1       0.119  -0.273   2.314  0.00  0.00    -0.285 N 
ATOM      4  C   UNL     1      -0.170  -1.406   2.925  0.00  0.00    +0.036 C 
ATOM      5  C   UNL     1       0.131  -2.688   2.277  0.00  0.00    +0.025 C 
ATOM      6  C   UNL     1      -0.161  -3.848   2.896  0.00  0.00    +0.032 C 
ATOM      7  C   UNL     1      -0.782  -3.837   4.224  0.00  0.00    +0.095 C 
ATOM      8  N   UNL     1      -1.178  -4.776   5.062  0.00  0.00    -0.190 NA
ATOM      9  C   UNL     1      -1.692  -4.200   6.162  0.00  0.00    +0.369 C 
ATOM     10  O   UNL     1      -2.189  -4.885   7.219  0.00  0.00    -0.243 OA
ATOM     11  N   UNL     1      -1.653  -2.891   6.082  0.00  0.00    -0.190 NA
ATOM     12  C   UNL     1      -1.090  -2.555   4.885  0.00  0.00    +0.097 C 
ATOM     13  C   UNL     1      -0.792  -1.384   4.267  0.00  0.00    +0.053 C 
ATOM     14  H   UNL     1      -0.158   0.572   2.701  0.00  0.00    +0.155 HD
ENDROOT
BRANCH   1  16
ATOM     15  C   UNL     1       0.567   1.862  -0.059  0.00  0.00    +0.029 C 
ATOM     16  C   UNL     1       0.218   0.372  -0.072  0.00  0.00    +0.134 C 
BRANCH  16  17
ATOM     17  S   UNL     1       0.907  -0.397  -1.563  0.00  0.00    -0.113 S 
BRANCH  17  18
ATOM     18  C   UNL     1      -0.101   0.223  -2.868  0.00  0.00    +0.011 A 
ATOM     19  C   UNL     1      -1.219   0.994  -2.577  0.00  0.00    +0.018 A 
ATOM     20  C   UNL     1      -2.009   1.480  -3.601  0.00  0.00    +0.042 A 
ATOM     21  C   UNL     1      -1.687   1.199  -4.918  0.00  0.00    +0.158 A 
ATOM     22  C   UNL     1      -0.572   0.429  -5.212  0.00  0.00    +0.159 A 
ATOM     23  C   UNL     1       0.225  -0.054  -4.190  0.00  0.00    +0.056 A 
ATOM     24  F   UNL     1      -0.261   0.155  -6.498  0.00  0.00    -0.202 F 
ATOM     25  F   UNL     1      -2.461   1.675  -5.918  0.00  0.00    -0.202 F 
ENDBRANCH  17  18
ENDBRANCH  16  17
ENDBRANCH   1  16
TORSDOF 3
