REMARK  Name = ZINC36682910
REMARK  7 active torsions:
REMARK  status: ('A' for Active; 'I' for Inactive)
REMARK    1  A    between atoms: C_3  and  N_12
REMARK    2  A    between atoms: C_5  and  O_7
REMARK    3  A    between atoms: O_7  and  C_8
REMARK    4  A    between atoms: C_8  and  C_9
REMARK    5  A    between atoms: C_9  and  N_11
REMARK    6  A    between atoms: N_12  and  S_13
REMARK    7  A    between atoms: S_13  and  N_16
REMARK                            x       y       z     vdW  Elec       q    Type
REMARK                         _______ _______ _______ _____ _____    ______ ____
ROOT
ATOM      1  C   UNL     1      -0.017   1.377   0.010  0.00  0.00    +0.005 A 
ATOM      2  C   UNL     1       1.169   2.087   0.002  0.00  0.00    +0.027 A 
ATOM      3  C   UNL     1       2.383   1.413  -0.013  0.00  0.00    +0.079 A 
ATOM      4  C   UNL     1       2.404   0.024  -0.021  0.00  0.00    +0.072 A 
ATOM      5  C   UNL     1       1.212  -0.684  -0.013  0.00  0.00    +0.123 A 
ATOM      6  C   UNL     1       0.002  -0.004   0.002  0.00  0.00    +0.046 A 
ENDROOT
BRANCH   5   7
ATOM      7  O   UNL     1       1.229  -2.042  -0.021  0.00  0.00    -0.486 OA
BRANCH   7   8
ATOM      8  C   UNL     1      -0.036  -2.707  -0.012  0.00  0.00    +0.287 C 
BRANCH   8   9
ATOM      9  C   UNL     1       0.180  -4.198  -0.022  0.00  0.00    +0.084 C 
ATOM     10  S   UNL     1       1.665  -4.791  -0.041  0.00  0.00    -0.037 S 
BRANCH   9  11
ATOM     11  N   UNL     1      -0.879  -5.032  -0.017  0.00  0.00    -0.353 N 
ATOM     12  H   UNL     1      -1.780  -4.673  -0.005  0.00  0.00    +0.143 HD
ATOM     13  H   UNL     1      -0.740  -5.992  -0.023  0.00  0.00    +0.143 HD
ENDBRANCH   9  11
ENDBRANCH   8   9
ENDBRANCH   7   8
ENDBRANCH   5   7
BRANCH   3  14
ATOM     14  N   UNL     1       3.582   2.130  -0.022  0.00  0.00    -0.087 NA
BRANCH  14  15
ATOM     15  S   UNL     1       3.556   3.785  -0.013  0.00  0.00    +0.131 S 
ATOM     16  O   UNL     1       2.986   4.189  -1.251  0.00  0.00    -0.136 OA
ATOM     17  O   UNL     1       3.011   4.177   1.239  0.00  0.00    -0.136 OA
BRANCH  15  18
ATOM     18  N   UNL     1       5.130   4.300  -0.027  0.00  0.00    -0.158 NA
ATOM     19  C   UNL     1       5.864   4.523   1.228  0.00  0.00    +0.139 C 
ATOM     20  C   UNL     1       7.202   3.779   1.145  0.00  0.00    +0.177 C 
ATOM     21  O   UNL     1       7.875   4.154  -0.060  0.00  0.00    -0.377 OA
ATOM     22  C   UNL     1       7.174   3.802  -1.255  0.00  0.00    +0.177 C 
ATOM     23  C   UNL     1       5.837   4.541  -1.294  0.00  0.00    +0.139 C 
ENDBRANCH  15  18
ENDBRANCH  14  15
ENDBRANCH   3  14
TORSDOF 7
