REMARK  Name = ZINC06818815
REMARK  7 active torsions:
REMARK  status: ('A' for Active; 'I' for Inactive)
REMARK    1  A    between atoms: C_1  and  C_2
REMARK    2  A    between atoms: C_5  and  N_9
REMARK    3  A    between atoms: C_10  and  C_12
REMARK    4  A    between atoms: C_13  and  C_22
REMARK    5  A    between atoms: C_14  and  C_19
REMARK    6  A    between atoms: C_17  and  C_18
REMARK    7  A    between atoms: C_19  and  C_21
REMARK                            x       y       z     vdW  Elec       q    Type
REMARK                         _______ _______ _______ _____ _____    ______ ____
ROOT
ATOM      1  N   UNL     1       0.058  -4.170  -0.023  0.00  0.00    -0.280 N 
ATOM      2  C   UNL     1      -0.041  -4.838  -1.189  0.00  0.00    +0.250 C 
ATOM      3  O   UNL     1      -0.054  -4.228  -2.240  0.00  0.00    -0.270 OA
ATOM      4  H   UNL     1       0.149  -4.659   0.810  0.00  0.00    +0.155 HD
ENDROOT
BRANCH   1   9
ATOM      5  C   UNL     1      -0.063   1.502   0.015  0.00  0.00    +0.044 C 
ATOM      6  C   UNL     1      -0.031  -0.005   0.006  0.00  0.00    -0.049 A 
ATOM      7  C   UNL     1      -0.622  -0.701  -1.033  0.00  0.00    +0.005 A 
ATOM      8  C   UNL     1      -0.594  -2.082  -1.045  0.00  0.00    +0.025 A 
ATOM      9  C   UNL     1       0.029  -2.772  -0.013  0.00  0.00    +0.048 A 
ATOM     10  C   UNL     1       0.622  -2.070   1.029  0.00  0.00    +0.039 A 
ATOM     11  C   UNL     1       0.595  -0.688   1.032  0.00  0.00    +0.020 A 
ATOM     12 BR   UNL     1       1.471  -3.003   2.437  0.00  0.00    -0.048 Br
ENDBRANCH   1   9
BRANCH   2  13
ATOM     13  C   UNL     1      -0.132  -6.310  -1.190  0.00  0.00    +0.061 A 
ATOM     14  C   UNL     1      -1.316  -7.075  -1.141  0.00  0.00    -0.010 A 
ATOM     15  C   UNL     1      -0.937  -8.400  -1.162  0.00  0.00    +0.086 A 
ATOM     16  N   UNL     1       0.441  -8.448  -1.222  0.00  0.00    -0.355 N 
ATOM     17  H   UNL     1       0.974  -9.258  -1.249  0.00  0.00    +0.166 HD
ATOM     18  C   UNL     1       0.927  -7.198  -1.245  0.00  0.00    +0.026 A 
ATOM     19  C   UNL     1       2.385  -6.824  -1.315  0.00  0.00    +0.064 C 
ATOM     20  C   UNL     1      -2.726  -6.545  -1.077  0.00  0.00    +0.047 C 
BRANCH  15  21
ATOM     21  C   UNL     1      -1.807  -9.515  -1.127  0.00  0.00    +0.176 C 
ATOM     22  O   UNL     1      -3.009  -9.346  -1.073  0.00  0.00    -0.291 OA
ATOM     23  C   UNL     1      -1.244 -10.912  -1.156  0.00  0.00    +0.093 C 
ENDBRANCH  15  21
ENDBRANCH   2  13
TORSDOF 3
