REMARK  Name = ZINC36569598
REMARK  8 active torsions:
REMARK  status: ('A' for Active; 'I' for Inactive)
REMARK    1  A    between atoms: C_1  and  C_2
REMARK    2  A    between atoms: C_2  and  C_34
REMARK    3  A    between atoms: C_3  and  C_21
REMARK    4  A    between atoms: C_12  and  O_19
REMARK    5  A    between atoms: C_13  and  O_17
REMARK    6  A    between atoms: O_17  and  C_18
REMARK    7  A    between atoms: O_19  and  C_20
REMARK    8  A    between atoms: C_21  and  N_23
REMARK                            x       y       z     vdW  Elec       q    Type
REMARK                         _______ _______ _______ _____ _____    ______ ____
ROOT
ATOM      1  C   UNL     1      -0.005   1.518   0.013  0.00  0.00    +0.025 C 
ATOM      2  C   UNL     1       0.023  -0.012  -0.002  0.00  0.00    +0.040 C 
ATOM      3  C   UNL     1       0.870  -0.540  -1.185  0.00  0.00    +0.181 C 
ATOM      4  N   UNL     1       1.925  -1.469  -0.777  0.00  0.00    -0.268 N 
ATOM      5  C   UNL     1       2.512  -1.075   0.538  0.00  0.00    +0.167 C 
ATOM      6  S   UNL     1       0.960  -0.670   1.446  0.00  0.00    -0.125 S 
ATOM      7  C   UNL     1       3.148  -2.321   1.083  0.00  0.00    -0.001 A 
ATOM      8  C   UNL     1       3.630  -2.679   2.319  0.00  0.00    +0.011 A 
ATOM      9  C   UNL     1       4.194  -3.930   2.513  0.00  0.00    +0.050 A 
ATOM     10  C   UNL     1       4.275  -4.829   1.463  0.00  0.00    +0.162 A 
ATOM     11  C   UNL     1       3.783  -4.484   0.208  0.00  0.00    +0.174 A 
ATOM     12  C   UNL     1       3.207  -3.223   0.013  0.00  0.00    +0.088 A 
ATOM     13  C   UNL     1       2.564  -2.599  -1.148  0.00  0.00    +0.252 C 
ATOM     14  O   UNL     1       2.619  -3.029  -2.284  0.00  0.00    -0.270 OA
ATOM     15  C   UNL     1      -1.395  -0.584  -0.043  0.00  0.00    +0.025 C 
ENDROOT
BRANCH  11  16
ATOM     16  O   UNL     1       3.861  -5.364  -0.822  0.00  0.00    -0.491 OA
ATOM     17  C   UNL     1       2.759  -6.257  -0.997  0.00  0.00    +0.277 C 
ENDBRANCH  11  16
BRANCH  10  18
ATOM     18  O   UNL     1       4.836  -6.053   1.659  0.00  0.00    -0.491 OA
ATOM     19  C   UNL     1       5.321  -6.341   2.971  0.00  0.00    +0.277 C 
ENDBRANCH  10  18
BRANCH   3  20
ATOM     20  C   UNL     1      -0.043  -1.246  -2.155  0.00  0.00    +0.261 C 
ATOM     21  O   UNL     1      -0.116  -2.460  -2.147  0.00  0.00    -0.271 OA
BRANCH  20  22
ATOM     22  N   UNL     1      -0.768  -0.542  -3.018  0.00  0.00    -0.145 NA
ATOM     23  C   UNL     1      -1.492  -1.167  -3.943  0.00  0.00    +0.198 A 
ATOM     24  N   UNL     1      -1.663  -2.512  -4.033  0.00  0.00    -0.326 N 
ATOM     25  H   UNL     1      -1.280  -3.174  -3.437  0.00  0.00    +0.169 HD
ATOM     26  C   UNL     1      -2.484  -2.775  -5.125  0.00  0.00    +0.065 A 
ATOM     27  C   UNL     1      -2.979  -3.948  -5.676  0.00  0.00    +0.028 A 
ATOM     28  C   UNL     1      -3.792  -3.894  -6.791  0.00  0.00    +0.002 A 
ATOM     29  C   UNL     1      -4.114  -2.675  -7.362  0.00  0.00    +0.002 A 
ATOM     30  C   UNL     1      -3.626  -1.502  -6.822  0.00  0.00    +0.028 A 
ATOM     31  C   UNL     1      -2.809  -1.545  -5.701  0.00  0.00    +0.065 A 
ATOM     32  N   UNL     1      -2.183  -0.560  -4.944  0.00  0.00    -0.326 N 
ATOM     33  H   UNL     1      -2.231   0.395  -5.103  0.00  0.00    +0.169 HD
ENDBRANCH  20  22
ENDBRANCH   3  20
TORSDOF 4
