REMARK  Name = ZINC13476600
REMARK  11 active torsions:
REMARK  status: ('A' for Active; 'I' for Inactive)
REMARK    1  A    between atoms: C_1  and  C_2
REMARK    2  A    between atoms: C_2  and  C_34
REMARK    3  A    between atoms: N_4  and  C_5
REMARK    4  A    between atoms: C_9  and  O_11
REMARK    5  A    between atoms: O_11  and  C_12
REMARK    6  A    between atoms: C_16  and  C_23
REMARK    7  A    between atoms: C_17  and  C_19
REMARK    8  A    between atoms: C_19  and  O_21
REMARK    9  A    between atoms: O_21  and  C_22
REMARK   10  A    between atoms: C_23  and  O_25
REMARK   11  A    between atoms: O_25  and  C_26
REMARK                            x       y       z     vdW  Elec       q    Type
REMARK                         _______ _______ _______ _____ _____    ______ ____
ROOT
ATOM      1  C   UNL     1       0.041   1.718   0.142  0.00  0.00    +0.038 C 
ATOM      2  C   UNL     1       0.054   0.251  -0.292  0.00  0.00    +0.069 C 
ATOM      3  C   UNL     1      -1.288  -0.370   0.003  0.00  0.00    +0.074 C 
ATOM      4  N   UNL     1      -2.372   0.376   0.010  0.00  0.00    -0.249 NA
ATOM      5  C   UNL     1      -1.380  -1.748   0.271  0.00  0.00    +0.028 C 
ATOM      6  C   UNL     1      -2.626  -2.363   0.410  0.00  0.00    +0.060 C 
ATOM      7  S   UNL     1      -3.144  -3.975  -0.128  0.00  0.00    -0.073 S 
ATOM      8  C   UNL     1      -4.830  -4.116   0.363  0.00  0.00    +0.118 C 
ATOM      9  C   UNL     1      -5.302  -3.014   1.001  0.00  0.00    +0.118 C 
ATOM     10  S   UNL     1      -4.102  -1.737   1.177  0.00  0.00    -0.073 S 
ATOM     11  C   UNL     1      -0.133  -2.537   0.404  0.00  0.00    +0.006 A 
ATOM     12  C   UNL     1      -0.165  -3.926   0.466  0.00  0.00    +0.010 A 
ATOM     13  C   UNL     1       1.017  -4.633   0.577  0.00  0.00    +0.001 A 
ATOM     14  C   UNL     1       2.228  -3.966   0.627  0.00  0.00    +0.002 A 
ATOM     15  C   UNL     1       2.271  -2.583   0.571  0.00  0.00    +0.023 A 
ATOM     16  C   UNL     1       1.095  -1.863   0.465  0.00  0.00    +0.036 A 
ATOM     17  N   UNL     1       1.105  -0.465   0.439  0.00  0.00    -0.333 N 
ATOM     18  C   UNL     1       0.331   0.167  -1.794  0.00  0.00    +0.038 C 
ATOM     19  H   UNL     1       1.802   0.028   0.899  0.00  0.00    +0.147 HD
ENDROOT
BRANCH   4  20
ATOM     20  C   UNL     1      -3.526  -0.090  -0.555  0.00  0.00    +0.068 A 
ATOM     21  C   UNL     1      -3.471  -1.024  -1.594  0.00  0.00    +0.028 A 
ATOM     22  C   UNL     1      -4.638  -1.492  -2.161  0.00  0.00    +0.006 A 
ATOM     23  C   UNL     1      -5.863  -1.040  -1.706  0.00  0.00    +0.046 A 
ATOM     24  C   UNL     1      -5.928  -0.112  -0.675  0.00  0.00    +0.122 A 
ATOM     25  C   UNL     1      -4.765   0.361  -0.093  0.00  0.00    +0.073 A 
BRANCH  24  26
ATOM     26  O   UNL     1      -7.136   0.328  -0.233  0.00  0.00    -0.495 OA
ATOM     27  C   UNL     1      -8.297  -0.268  -0.816  0.00  0.00    +0.277 C 
ENDBRANCH  24  26
ENDBRANCH   4  20
BRANCH   9  28
ATOM     28  C   UNL     1      -6.682  -2.901   1.503  0.00  0.00    +0.347 C 
ATOM     29  O   UNL     1      -7.439  -3.848   1.419  0.00  0.00    -0.244 OA
BRANCH  28  30
ATOM     30  O   UNL     1      -7.105  -1.746   2.055  0.00  0.00    -0.464 OA
ATOM     31  C   UNL     1      -8.456  -1.707   2.521  0.00  0.00    +0.280 C 
ENDBRANCH  28  30
ENDBRANCH   9  28
BRANCH   8  32
ATOM     32  C   UNL     1      -5.649  -5.313   0.106  0.00  0.00    +0.347 C 
ATOM     33  O   UNL     1      -6.218  -5.442  -0.960  0.00  0.00    -0.244 OA
BRANCH  32  34
ATOM     34  O   UNL     1      -5.766  -6.265   1.053  0.00  0.00    -0.464 OA
ATOM     35  C   UNL     1      -6.483  -7.449   0.697  0.00  0.00    +0.280 C 
ENDBRANCH  32  34
ENDBRANCH   8  32
TORSDOF 6
