REMARK  Name = ZINC05859200
REMARK  8 active torsions:
REMARK  status: ('A' for Active; 'I' for Inactive)
REMARK    1  A    between atoms: C_1  and  C_2
REMARK    2  A    between atoms: C_7  and  C_8
REMARK    3  A    between atoms: C_11  and  S_14
REMARK    4  A    between atoms: N_12  and  C_13
REMARK    5  A    between atoms: S_14  and  C_15
REMARK    6  A    between atoms: C_15  and  C_17
REMARK    7  A    between atoms: C_15  and  C_18
REMARK    8  A    between atoms: C_18  and  C_20
REMARK                            x       y       z     vdW  Elec       q    Type
REMARK                         _______ _______ _______ _____ _____    ______ ____
ROOT
ATOM      1  S   UNL     1      -0.192  -5.727   0.590  0.00  0.00    -0.075 S 
ENDROOT
BRANCH   1   5
ATOM      2  C   UNL     1       1.226  -2.176  -0.212  0.00  0.00    +0.165 A 
ATOM      3  N   UNL     1       2.301  -2.928  -0.240  0.00  0.00    -0.128 NA
ATOM      4  N   UNL     1       1.988  -4.149   0.011  0.00  0.00    -0.122 NA
ATOM      5  C   UNL     1       0.694  -4.252   0.214  0.00  0.00    +0.192 A 
ATOM      6  N   UNL     1       0.164  -2.999   0.085  0.00  0.00    -0.305 N 
ATOM      7  C   UNL     1      -1.242  -2.614   0.230  0.00  0.00    +0.153 C 
BRANCH   2  14
ATOM      8  C   UNL     1       3.111  -0.433   1.122  0.00  0.00    +0.044 C 
ATOM      9  C   UNL     1       2.072   0.133   0.189  0.00  0.00    -0.040 A 
ATOM     10  C   UNL     1       2.012   1.492  -0.037  0.00  0.00    +0.004 A 
ATOM     11  C   UNL     1       1.059   2.013  -0.893  0.00  0.00    +0.000 A 
ATOM     12  C   UNL     1       0.159   1.176  -1.528  0.00  0.00    +0.001 A 
ATOM     13  C   UNL     1       0.208  -0.186  -1.311  0.00  0.00    +0.012 A 
ATOM     14  C   UNL     1       1.167  -0.718  -0.449  0.00  0.00    +0.022 A 
ENDBRANCH   2  14
ENDBRANCH   1   5
BRANCH   1  15
ATOM     15  C   UNL     1       1.170  -6.919   0.595  0.00  0.00    +0.122 C 
ATOM     16  C   UNL     1       2.130  -6.592   1.741  0.00  0.00    +0.028 C 
BRANCH  15  17
ATOM     17  C   UNL     1       0.620  -8.310   0.782  0.00  0.00    +0.178 C 
ATOM     18  O   UNL     1      -0.447  -8.471   1.337  0.00  0.00    -0.291 OA
BRANCH  17  19
ATOM     19  C   UNL     1       1.350  -9.429   0.310  0.00  0.00    +0.043 A 
ATOM     20  C   UNL     1       2.568  -9.412  -0.335  0.00  0.00    +0.095 A 
ATOM     21  N   UNL     1       2.942 -10.671  -0.630  0.00  0.00    -0.360 N 
ATOM     22  H   UNL     1       3.765 -10.910  -1.085  0.00  0.00    +0.165 HD
ATOM     23  C   UNL     1       1.995 -11.576  -0.196  0.00  0.00    +0.047 A 
ATOM     24  C   UNL     1       0.961 -10.850   0.415  0.00  0.00    +0.010 A 
ATOM     25  C   UNL     1      -0.143 -11.513   0.943  0.00  0.00    +0.011 A 
ATOM     26  C   UNL     1      -0.210 -12.888   0.874  0.00  0.00    +0.001 A 
ATOM     27  C   UNL     1       0.813 -13.608   0.277  0.00  0.00    +0.002 A 
ATOM     28  C   UNL     1       1.909 -12.963  -0.256  0.00  0.00    +0.026 A 
ENDBRANCH  17  19
ENDBRANCH  15  17
ENDBRANCH   1  15
TORSDOF 5
