REMARK  Name = ZINC45454770
REMARK  9 active torsions:
REMARK  status: ('A' for Active; 'I' for Inactive)
REMARK    1  A    between atoms: C_1  and  C_2
REMARK    2  A    between atoms: C_3  and  N_9
REMARK    3  A    between atoms: N_9  and  N_10
REMARK    4  A    between atoms: N_13  and  C_14
REMARK    5  A    between atoms: C_14  and  C_15
REMARK    6  A    between atoms: C_15  and  C_16
REMARK    7  A    between atoms: C_16  and  N_17
REMARK    8  A    between atoms: C_19  and  C_26
REMARK    9  A    between atoms: C_22  and  C_25
REMARK                            x       y       z     vdW  Elec       q    Type
REMARK                         _______ _______ _______ _____ _____    ______ ____
ROOT
ATOM      1  N   UNL     1      -0.006  -0.687  -3.627  0.00  0.00    -0.220 N 
ATOM      2  C   UNL     1      -0.021  -0.009  -4.792  0.00  0.00    +0.316 C 
ATOM      3  O   UNL     1      -0.018  -0.613  -5.847  0.00  0.00    -0.251 OA
ATOM      4  N   UNL     1      -0.040   1.339  -4.787  0.00  0.00    -0.298 N 
ATOM      5  H   UNL     1       0.007  -1.657  -3.631  0.00  0.00    +0.174 HD
ATOM      6  H   UNL     1      -0.043   1.821  -3.945  0.00  0.00    +0.150 HD
ENDROOT
BRANCH   1   7
ATOM      7  N   UNL     1      -0.010   0.010  -2.411  0.00  0.00    -0.263 N 
ATOM      8  H   UNL     1      -0.023   0.980  -2.408  0.00  0.00    +0.170 HD
BRANCH   7  11
ATOM      9  C   UNL     1      -0.018   1.503   0.010  0.00  0.00    +0.047 C 
ATOM     10  C   UNL     1       0.002  -0.004   0.002  0.00  0.00    -0.010 A 
ATOM     11  C   UNL     1       0.006  -0.693  -1.204  0.00  0.00    +0.049 A 
ATOM     12  C   UNL     1       0.025  -2.082  -1.208  0.00  0.00    +0.025 A 
ATOM     13  C   UNL     1       0.040  -2.774  -0.012  0.00  0.00    +0.003 A 
ATOM     14  C   UNL     1       0.035  -2.087   1.187  0.00  0.00    +0.020 A 
ATOM     15  C   UNL     1       0.023  -0.702   1.194  0.00  0.00    +0.046 A 
ATOM     16 CL   UNL     1       0.026   0.157   2.703  0.00  0.00    -0.083 Cl
ENDBRANCH   7  11
ENDBRANCH   1   7
BRANCH   4  17
ATOM     17  C   UNL     1      -0.056   2.076  -6.053  0.00  0.00    +0.107 C 
BRANCH  17  18
ATOM     18  C   UNL     1      -0.076   3.579  -5.768  0.00  0.00    +0.034 C 
BRANCH  18  19
ATOM     19  C   UNL     1      -0.093   4.348  -7.090  0.00  0.00    +0.086 C 
BRANCH  19  20
ATOM     20  N   UNL     1      -0.112   5.792  -6.817  0.00  0.00    -0.297 NA
ATOM     21  C   UNL     1      -1.371   6.189  -6.172  0.00  0.00    +0.115 C 
ATOM     22  C   UNL     1      -1.324   7.686  -5.851  0.00  0.00    +0.130 C 
ATOM     23  O   UNL     1      -1.077   8.418  -7.055  0.00  0.00    -0.371 OA
ATOM     24  C   UNL     1       0.142   8.057  -7.709  0.00  0.00    +0.130 C 
ATOM     25  C   UNL     1       0.110   6.564  -8.048  0.00  0.00    +0.115 C 
ATOM     26  C   UNL     1       1.325   8.345  -6.781  0.00  0.00    +0.039 C 
ATOM     27  C   UNL     1      -2.663   8.122  -5.252  0.00  0.00    +0.039 C 
ENDBRANCH  19  20
ENDBRANCH  18  19
ENDBRANCH  17  18
ENDBRANCH   4  17
TORSDOF 6
