REMARK  Name = ZINC61450178
REMARK  5 active torsions:
REMARK  status: ('A' for Active; 'I' for Inactive)
REMARK    1  A    between atoms: C_1  and  C_2
REMARK    2  A    between atoms: C_4  and  C_21
REMARK    3  A    between atoms: N_5  and  C_12
REMARK    4  A    between atoms: C_8  and  C_9
REMARK    5  A    between atoms: C_12  and  C_13
REMARK                            x       y       z     vdW  Elec       q    Type
REMARK                         _______ _______ _______ _____ _____    ______ ____
ROOT
ATOM      1  C   UNL     1      -0.129   1.581  -0.726  0.00  0.00    +0.045 C 
ATOM      2  C   UNL     1      -0.084   0.088  -0.525  0.00  0.00    -0.029 A 
ATOM      3  C   UNL     1       0.034  -0.770  -1.617  0.00  0.00    +0.025 A 
ATOM      4  C   UNL     1       0.074  -2.115  -1.427  0.00  0.00    +0.020 A 
ATOM      5  N   UNL     1       0.002  -2.652  -0.186  0.00  0.00    -0.308 N 
ATOM      6  C   UNL     1      -0.113  -1.870   0.904  0.00  0.00    +0.266 A 
ATOM      7  O   UNL     1      -0.176  -2.372   2.013  0.00  0.00    -0.267 OA
ATOM      8  C   UNL     1      -0.152  -0.457   0.758  0.00  0.00    +0.130 A 
ATOM      9  C   UNL     1       0.201  -3.026  -2.620  0.00  0.00    +0.063 C 
ENDROOT
BRANCH   8  10
ATOM     10  C   UNL     1      -0.270   0.412   1.933  0.00  0.00    +0.392 C 
ATOM     11  O   UNL     1      -0.202   1.627   1.805  0.00  0.00    -0.240 OA
ATOM     12  O   UNL     1      -0.436  -0.078   3.043  0.00  0.00    -0.240 OA
ENDBRANCH   8  10
BRANCH   5  13
ATOM     13  C   UNL     1       0.048  -4.107  -0.027  0.00  0.00    +0.161 C 
BRANCH  13  14
ATOM     14  C   UNL     1      -1.152  -4.565   0.762  0.00  0.00    -0.014 A 
ATOM     15  C   UNL     1      -1.021  -4.868   2.104  0.00  0.00    +0.009 A 
ATOM     16  C   UNL     1      -2.121  -5.287   2.829  0.00  0.00    +0.039 A 
ATOM     17  C   UNL     1      -3.354  -5.404   2.210  0.00  0.00    +0.124 A 
ATOM     18  C   UNL     1      -3.485  -5.099   0.866  0.00  0.00    +0.054 A 
ATOM     19  C   UNL     1      -2.384  -4.675   0.144  0.00  0.00    +0.025 A 
ATOM     20 BR   UNL     1      -2.563  -4.253  -1.691  0.00  0.00    -0.050 Br
ATOM     21  F   UNL     1      -4.429  -5.814   2.918  0.00  0.00    -0.205 F 
ENDBRANCH  13  14
ENDBRANCH   5  13
TORSDOF 3
