REMARK  Name = ZINC43541114
REMARK  8 active torsions:
REMARK  status: ('A' for Active; 'I' for Inactive)
REMARK    1  A    between atoms: C_1  and  C_2
REMARK    2  A    between atoms: C_2  and  C_3
REMARK    3  A    between atoms: C_3  and  C_5
REMARK    4  A    between atoms: C_3  and  O_9
REMARK    5  A    between atoms: N_6  and  O_7
REMARK    6  A    between atoms: O_9  and  C_10
REMARK    7  A    between atoms: C_17  and  C_19
REMARK    8  A    between atoms: C_17  and  C_20
REMARK                            x       y       z     vdW  Elec       q    Type
REMARK                         _______ _______ _______ _____ _____    ______ ____
ROOT
ATOM      1  O   UNL     1       2.090  -0.101  -1.210  0.00  0.00    -0.478 OA
ENDROOT
BRANCH   1   2
ATOM      2  C   UNL     1       2.420   1.055  -1.847  0.00  0.00    +0.163 A 
ATOM      3  C   UNL     1       1.429   1.843  -2.405  0.00  0.00    +0.049 A 
ATOM      4  C   UNL     1       1.756   3.018  -3.054  0.00  0.00    +0.004 A 
ATOM      5  C   UNL     1       3.081   3.406  -3.149  0.00  0.00    +0.007 A 
ATOM      6  C   UNL     1       4.072   2.623  -2.597  0.00  0.00    +0.002 A 
ATOM      7  C   UNL     1       3.759   1.446  -1.930  0.00  0.00    +0.166 A 
ATOM      8  O   UNL     1       4.877   0.845  -1.439  0.00  0.00    -0.482 OA
ATOM      9  C   UNL     1       6.031   1.359  -2.125  0.00  0.00    +0.109 C 
ATOM     10  C   UNL     1       5.580   2.773  -2.549  0.00  0.00    +0.086 C 
ATOM     11  C   UNL     1       7.237   1.425  -1.185  0.00  0.00    +0.056 C 
ATOM     12  C   UNL     1       6.350   0.512  -3.359  0.00  0.00    +0.056 C 
ENDBRANCH   1   2
BRANCH   1  13
ATOM     13  C   UNL     1       0.720  -0.503  -1.264  0.00  0.00    +0.239 C 
BRANCH  13  14
ATOM     14  C   UNL     1       0.641  -1.997  -1.443  0.00  0.00    +0.173 C 
ATOM     15  N   UNL     1      -0.403  -2.528  -1.987  0.00  0.00    -0.073 NA
ATOM     16  N   UNL     1       1.683  -2.796  -1.027  0.00  0.00    -0.341 N 
ATOM     17  H   UNL     1       2.467  -2.397  -0.618  0.00  0.00    +0.144 HD
ATOM     18  H   UNL     1       1.632  -3.758  -1.142  0.00  0.00    +0.144 HD
BRANCH  15  19
ATOM     19  O   UNL     1      -0.477  -3.932  -2.155  0.00  0.00    -0.408 OA
ATOM     20  H   UNL     1      -1.296  -4.236  -2.571  0.00  0.00    +0.328 HD
ENDBRANCH  15  19
ENDBRANCH  13  14
BRANCH  13  22
ATOM     21  C   UNL     1      -0.008   1.417   0.159  0.00  0.00    +0.008 C 
ATOM     22  C   UNL     1       0.021  -0.107   0.038  0.00  0.00    +0.049 C 
ENDBRANCH  13  22
ENDBRANCH   1  13
TORSDOF 5
