REMARK  Name = ZINC50830580
REMARK  4 active torsions:
REMARK  status: ('A' for Active; 'I' for Inactive)
REMARK    1  A    between atoms: C_3  and  O_9
REMARK    2  A    between atoms: O_9  and  C_10
REMARK    3  A    between atoms: C_10  and  C_11
REMARK    4  A    between atoms: C_12  and  N_16
REMARK                            x       y       z     vdW  Elec       q    Type
REMARK                         _______ _______ _______ _____ _____    ______ ____
ROOT
ATOM      1  O   UNL     1       3.549   2.107  -0.021  0.00  0.00    -0.485 OA
ENDROOT
BRANCH   1   4
ATOM      2  C   UNL     1      -0.017   1.380   0.010  0.00  0.00    +0.042 A 
ATOM      3  C   UNL     1       1.170   2.088   0.002  0.00  0.00    +0.049 A 
ATOM      4  C   UNL     1       2.380   1.412  -0.013  0.00  0.00    +0.135 A 
ATOM      5  C   UNL     1       2.398   0.024  -0.021  0.00  0.00    +0.062 A 
ATOM      6  C   UNL     1       1.210  -0.681  -0.013  0.00  0.00    +0.057 A 
ATOM      7  C   UNL     1       0.002  -0.004   0.002  0.00  0.00    +0.125 A 
ATOM      8  F   UNL     1      -1.159  -0.695   0.010  0.00  0.00    -0.205 F 
ATOM      9 BR   UNL     1       4.047  -0.901  -0.042  0.00  0.00    -0.046 Br
ENDBRANCH   1   4
BRANCH   1  10
ATOM     10  C   UNL     1       3.454   3.533  -0.013  0.00  0.00    +0.288 C 
BRANCH  10  11
ATOM     11  C   UNL     1       4.839   4.128  -0.023  0.00  0.00    +0.130 A 
ATOM     12  C   UNL     1       5.515   4.402   1.132  0.00  0.00    +0.110 A 
ATOM     13  S   UNL     1       6.961   5.031   0.549  0.00  0.00    +0.051 S 
ATOM     14  N   UNL     1       6.648   4.920  -1.093  0.00  0.00    -0.108 NA
ATOM     15  N   UNL     1       5.466   4.407  -1.144  0.00  0.00    -0.141 NA
BRANCH  12  16
ATOM     16  N   UNL     1       5.110   4.210   2.450  0.00  0.00    -0.350 N 
ATOM     17  H   UNL     1       4.237   3.833   2.640  0.00  0.00    +0.143 HD
ATOM     18  H   UNL     1       5.702   4.454   3.179  0.00  0.00    +0.143 HD
ENDBRANCH  12  16
ENDBRANCH  10  11
ENDBRANCH   1  10
TORSDOF 4
