REMARK  Name = ZINC64517202
REMARK  6 active torsions:
REMARK  status: ('A' for Active; 'I' for Inactive)
REMARK    1  A    between atoms: C_1  and  C_2
REMARK    2  A    between atoms: C_4  and  C_9
REMARK    3  A    between atoms: C_5  and  C_8
REMARK    4  A    between atoms: N_14  and  C_15
REMARK    5  A    between atoms: C_15  and  C_16
REMARK    6  A    between atoms: C_21  and  C_22
REMARK                            x       y       z     vdW  Elec       q    Type
REMARK                         _______ _______ _______ _____ _____    ______ ____
ROOT
ATOM      1  C   UNL     1       0.681  -0.620  -2.772  0.00  0.00    +0.087 C 
ATOM      2  C   UNL     1       1.204   0.802  -3.063  0.00  0.00    +0.025 C 
ATOM      3  C   UNL     1       0.176   1.350  -4.086  0.00  0.00    +0.017 C 
ATOM      4  C   UNL     1      -1.141   0.712  -3.579  0.00  0.00    +0.085 C 
ATOM      5  N   UNL     1      -0.753  -0.640  -3.115  0.00  0.00    -0.295 NA
ENDROOT
BRANCH   1   8
ATOM      6  C   UNL     1       0.778  -3.436  -1.189  0.00  0.00    +0.045 C 
ATOM      7  C   UNL     1       1.529  -2.179  -0.748  0.00  0.00    +0.175 C 
ATOM      8  C   UNL     1       0.862  -0.945  -1.311  0.00  0.00    -0.001 C 
ATOM      9  C   UNL     1       0.469  -0.204  -0.296  0.00  0.00    +0.039 C 
ATOM     10  N   UNL     1       0.794  -0.797   0.910  0.00  0.00    -0.269 N 
ATOM     11  O   UNL     1       1.458  -2.029   0.677  0.00  0.00    -0.267 OA
ATOM     12  C   UNL     1      -0.242   1.118  -0.432  0.00  0.00    +0.065 C 
ATOM     13  H   UNL     1       0.599  -0.426   1.784  0.00  0.00    +0.194 HD
ENDBRANCH   1   8
BRANCH   5  14
ATOM     14  C   UNL     1      -1.565  -1.057  -1.964  0.00  0.00    +0.100 C 
BRANCH  14  15
ATOM     15  C   UNL     1      -2.979  -1.402  -2.435  0.00  0.00    +0.097 C 
ATOM     16  C   UNL     1      -3.709  -0.155  -2.893  0.00  0.00    +0.118 C 
ATOM     17  N   UNL     1      -4.734  -0.034  -2.115  0.00  0.00    -0.161 NA
ATOM     18  N   UNL     1      -4.807  -1.049  -1.167  0.00  0.00    -0.153 NA
ATOM     19  C   UNL     1      -3.821  -1.901  -1.277  0.00  0.00    +0.080 C 
BRANCH  19  20
ATOM     20  C   UNL     1      -3.577  -3.095  -0.452  0.00  0.00    -0.001 A 
ATOM     21  C   UNL     1      -2.463  -3.905  -0.699  0.00  0.00    +0.010 A 
ATOM     22  C   UNL     1      -2.242  -5.022   0.079  0.00  0.00    +0.001 A 
ATOM     23  C   UNL     1      -3.118  -5.342   1.101  0.00  0.00    +0.000 A 
ATOM     24  C   UNL     1      -4.222  -4.546   1.352  0.00  0.00    +0.001 A 
ATOM     25  C   UNL     1      -4.454  -3.422   0.587  0.00  0.00    +0.010 A 
ENDBRANCH  19  20
ENDBRANCH  14  15
ENDBRANCH   5  14
TORSDOF 4
