REMARK  Name = ZINC39559487
REMARK  7 active torsions:
REMARK  status: ('A' for Active; 'I' for Inactive)
REMARK    1  A    between atoms: C_1  and  C_2
REMARK    2  A    between atoms: C_4  and  C_15
REMARK    3  A    between atoms: C_5  and  C_14
REMARK    4  A    between atoms: N_6  and  C_7
REMARK    5  A    between atoms: N_17  and  C_18
REMARK    6  A    between atoms: C_18  and  C_19
REMARK    7  A    between atoms: N_21  and  C_22
REMARK                            x       y       z     vdW  Elec       q    Type
REMARK                         _______ _______ _______ _____ _____    ______ ____
ROOT
ATOM      1  C   UNL     1       0.050  -3.387  -1.449  0.00  0.00    +0.246 C 
ATOM      2  O   UNL     1       0.076  -4.482  -0.920  0.00  0.00    -0.270 OA
ATOM      3  N   UNL     1       0.036  -3.288  -2.793  0.00  0.00    -0.303 N 
ATOM      4  H   UNL     1       0.016  -2.415  -3.215  0.00  0.00    +0.150 HD
ENDROOT
BRANCH   1   8
ATOM      5  C   UNL     1      -0.035   1.502   0.011  0.00  0.00    +0.064 C 
ATOM      6  C   UNL     1      -0.005  -0.005   0.003  0.00  0.00    +0.022 A 
ATOM      7  C   UNL     1       0.002  -0.781  -1.095  0.00  0.00    +0.036 A 
ATOM      8  C   UNL     1       0.033  -2.169  -0.621  0.00  0.00    +0.058 A 
ATOM      9  C   UNL     1       0.044  -2.104   0.745  0.00  0.00    +0.033 A 
ATOM     10  N   UNL     1       0.027  -0.806   1.109  0.00  0.00    -0.317 N 
ATOM     11  C   UNL     1       0.075  -3.283   1.684  0.00  0.00    +0.064 C 
BRANCH  10  12
ATOM     12  C   UNL     1       0.036  -0.344   2.434  0.00  0.00    +0.047 A 
ATOM     13  C   UNL     1       1.144  -0.568   3.240  0.00  0.00    +0.029 A 
ATOM     14  C   UNL     1       1.152  -0.112   4.543  0.00  0.00    +0.040 A 
ATOM     15  C   UNL     1       0.056   0.567   5.047  0.00  0.00    +0.124 A 
ATOM     16  C   UNL     1      -1.050   0.791   4.244  0.00  0.00    +0.040 A 
ATOM     17  C   UNL     1      -1.060   0.343   2.938  0.00  0.00    +0.029 A 
ATOM     18  F   UNL     1       0.065   1.012   6.323  0.00  0.00    -0.205 F 
ENDBRANCH  10  12
ENDBRANCH   1   8
BRANCH   3  19
ATOM     19  C   UNL     1       0.053  -4.499  -3.617  0.00  0.00    +0.200 C 
BRANCH  19  20
ATOM     20  C   UNL     1       0.033  -4.116  -5.074  0.00  0.00    +0.234 C 
ATOM     21  O   UNL     1       0.007  -2.946  -5.393  0.00  0.00    -0.274 OA
ATOM     22  N   UNL     1       0.043  -5.074  -6.023  0.00  0.00    -0.284 N 
ATOM     23  H   UNL     1       0.132  -6.006  -5.770  0.00  0.00    +0.155 HD
BRANCH  22  24
ATOM     24  C   UNL     1      -0.073  -4.722  -7.374  0.00  0.00    +0.036 A 
ATOM     25  C   UNL     1      -0.768  -5.549  -8.248  0.00  0.00    +0.025 A 
ATOM     26  C   UNL     1      -0.886  -5.208  -9.581  0.00  0.00    +0.029 A 
ATOM     27  C   UNL     1      -0.310  -4.038 -10.049  0.00  0.00    +0.067 A 
ATOM     28  C   UNL     1       0.390  -3.205  -9.173  0.00  0.00    +0.069 A 
ATOM     29  C   UNL     1       0.501  -3.547  -7.835  0.00  0.00    +0.051 A 
ATOM     30  N   UNL     1       0.846  -2.123  -9.924  0.00  0.00    -0.306 N 
ATOM     31  H   UNL     1       1.365  -1.377  -9.586  0.00  0.00    +0.170 HD
ATOM     32  C   UNL     1       0.443  -2.290 -11.197  0.00  0.00    +0.325 A 
ATOM     33  O   UNL     1       0.676  -1.522 -12.112  0.00  0.00    -0.247 OA
ATOM     34  N   UNL     1      -0.256  -3.435 -11.306  0.00  0.00    -0.306 N 
ATOM     35  H   UNL     1      -0.655  -3.782 -12.120  0.00  0.00    +0.170 HD
ENDBRANCH  22  24
ENDBRANCH  19  20
ENDBRANCH   3  19
TORSDOF 5
