REMARK  Name = ZINC58950569
REMARK  9 active torsions:
REMARK  status: ('A' for Active; 'I' for Inactive)
REMARK    1  A    between atoms: C_1  and  C_2
REMARK    2  A    between atoms: C_4  and  C_26
REMARK    3  A    between atoms: C_5  and  C_9
REMARK    4  A    between atoms: C_6  and  C_8
REMARK    5  A    between atoms: C_12  and  C_25
REMARK    6  A    between atoms: C_18  and  N_24
REMARK    7  A    between atoms: C_19  and  C_20
REMARK    8  A    between atoms: C_20  and  O_22
REMARK    9  A    between atoms: O_22  and  C_23
REMARK                            x       y       z     vdW  Elec       q    Type
REMARK                         _______ _______ _______ _____ _____    ______ ____
ROOT
ATOM      1  C   UNL     1       1.119  -4.271  -0.525  0.00  0.00    +0.098 C 
ATOM      2  C   UNL     1       2.342  -4.461   0.335  0.00  0.00    +0.049 A 
ATOM      3  C   UNL     1       3.657  -4.093   0.085  0.00  0.00    +0.068 A 
ATOM      4  N   UNL     1       4.385  -4.458   1.114  0.00  0.00    -0.176 NA
ATOM      5  N   UNL     1       3.544  -5.074   2.055  0.00  0.00    -0.246 N 
ATOM      6  H   UNL     1       3.817  -5.439   2.911  0.00  0.00    +0.192 HD
ATOM      7  C   UNL     1       2.297  -5.067   1.559  0.00  0.00    +0.222 A 
ATOM      8  O   UNL     1       1.148  -5.548   2.097  0.00  0.00    -0.424 OA
ATOM      9  C   UNL     1       0.080  -5.666   1.284  0.00  0.00    +0.197 C 
ATOM     10  C   UNL     1       0.001  -5.102   0.054  0.00  0.00    +0.105 C 
ATOM     11  C   UNL     1       4.161  -3.395  -1.152  0.00  0.00    +0.068 C 
ENDROOT
BRANCH   1  16
ATOM     12  C   UNL     1      -0.408   1.303  -0.541  0.00  0.00    +0.044 C 
ATOM     13  C   UNL     1      -0.010  -0.150  -0.537  0.00  0.00    -0.050 A 
ATOM     14  C   UNL     1       0.097  -0.841  -1.729  0.00  0.00    +0.007 A 
ATOM     15  C   UNL     1       0.462  -2.175  -1.725  0.00  0.00    -0.046 A 
ATOM     16  C   UNL     1       0.722  -2.817  -0.529  0.00  0.00    -0.029 A 
ATOM     17  C   UNL     1       0.616  -2.126   0.663  0.00  0.00    -0.046 A 
ATOM     18  C   UNL     1       0.255  -0.791   0.659  0.00  0.00    +0.007 A 
ATOM     19  C   UNL     1       0.898  -2.826   1.968  0.00  0.00    +0.044 C 
ATOM     20  C   UNL     1       0.578  -2.928  -3.026  0.00  0.00    +0.044 C 
ENDBRANCH   1  16
BRANCH   9  21
ATOM     21  N   UNL     1      -0.988  -6.400   1.726  0.00  0.00    -0.329 N 
ATOM     22  H   UNL     1      -0.931  -6.883   2.565  0.00  0.00    +0.145 HD
ATOM     23  H   UNL     1      -1.802  -6.437   1.200  0.00  0.00    +0.145 HD
ENDBRANCH   9  21
BRANCH  10  24
ATOM     24  C   UNL     1      -1.160  -5.297  -0.707  0.00  0.00    +0.341 C 
ATOM     25  O   UNL     1      -1.150  -6.072  -1.647  0.00  0.00    -0.245 OA
BRANCH  24  26
ATOM     26  O   UNL     1      -2.290  -4.624  -0.399  0.00  0.00    -0.465 OA
ATOM     27  C   UNL     1      -3.436  -4.872  -1.216  0.00  0.00    +0.280 C 
ENDBRANCH  24  26
ENDBRANCH  10  24
TORSDOF 4
