REMARK  Name = ZINC19661880
REMARK  8 active torsions:
REMARK  status: ('A' for Active; 'I' for Inactive)
REMARK    1  A    between atoms: C_1  and  C_2
REMARK    2  A    between atoms: C_2  and  C_3
REMARK    3  A    between atoms: C_2  and  C_4
REMARK    4  A    between atoms: C_2  and  N_11
REMARK    5  A    between atoms: C_4  and  N_5
REMARK    6  A    between atoms: C_12  and  C_14
REMARK    7  A    between atoms: C_16  and  C_27
REMARK    8  A    between atoms: N_17  and  C_19
REMARK                            x       y       z     vdW  Elec       q    Type
REMARK                         _______ _______ _______ _____ _____    ______ ____
ROOT
ATOM      1  N   UNL     1       1.322  -1.977   3.604  0.00  0.00    -0.307 N 
ATOM      2  C   UNL     1       2.132  -2.202   4.657  0.00  0.00    +0.265 C 
ATOM      3  O   UNL     1       3.177  -2.803   4.503  0.00  0.00    -0.268 OA
ATOM      4  H   UNL     1       0.376  -1.433   3.743  0.00  0.00    +0.150 HD
ENDROOT
BRANCH   2   5
ATOM      5  C   UNL     1       1.749  -1.718   6.000  0.00  0.00    +0.147 A 
ATOM      6  C   UNL     1       2.489  -1.877   7.195  0.00  0.00    +0.058 A 
ATOM      7  C   UNL     1       1.752  -1.278   8.159  0.00  0.00    +0.043 A 
ATOM      8  N   UNL     1       0.639  -0.792   7.569  0.00  0.00    -0.263 N 
ATOM      9  N   UNL     1       0.654  -1.052   6.311  0.00  0.00    -0.166 NA
BRANCH   8  10
ATOM     10  C   UNL     1      -0.429  -0.067   8.261  0.00  0.00    +0.130 C 
ATOM     11  C   UNL     1      -1.763  -0.809   8.078  0.00  0.00    +0.051 C 
ATOM     12  C   UNL     1      -2.936   0.098   8.522  0.00  0.00    +0.168 C 
ATOM     13  S   UNL     1      -2.277   1.788   8.218  0.00  0.00    -0.029 S 
ATOM     14  O   UNL     1      -2.191   2.480   9.456  0.00  0.00    -0.174 OA
ATOM     15  O   UNL     1      -2.989   2.375   7.137  0.00  0.00    -0.174 OA
ATOM     16  C   UNL     1      -0.578   1.356   7.653  0.00  0.00    +0.192 C 
ENDBRANCH   8  10
BRANCH   7  17
ATOM     17  C   UNL     1       2.108  -1.172   9.620  0.00  0.00    +0.037 C 
ATOM     18  C   UNL     1       3.589  -1.033   9.978  0.00  0.00    +0.010 C 
ATOM     19  C   UNL     1       2.855  -2.348  10.252  0.00  0.00    +0.010 C 
ENDBRANCH   7  17
ENDBRANCH   2   5
BRANCH   1  21
ATOM     20  C   UNL     1       1.726  -3.986   2.269  0.00  0.00    +0.029 C 
ATOM     21  C   UNL     1       1.702  -2.456   2.272  0.00  0.00    +0.015 C 
ATOM     22  C   UNL     1       3.091  -1.923   1.916  0.00  0.00    +0.029 C 
BRANCH  21  23
ATOM     23  C   UNL     1       0.685  -1.960   1.242  0.00  0.00    -0.053 C 
BRANCH  23  24
ATOM     24  N   UNL     1       0.834  -0.509   1.067  0.00  0.00    +0.381 N 
ATOM     25  C   UNL     1       0.484   0.208   2.300  0.00  0.00    -0.079 C 
ATOM     26  C   UNL     1       0.789   1.698   2.129  0.00  0.00    -0.019 C 
ATOM     27  C   UNL     1      -0.020   2.247   0.950  0.00  0.00    -0.004 C 
ATOM     28  C   UNL     1       0.327   1.451  -0.311  0.00  0.00    -0.019 C 
ATOM     29  C   UNL     1       0.036  -0.031  -0.069  0.00  0.00    -0.079 C 
ATOM     30  H   UNL     1       1.891  -0.300   0.846  0.00  0.00    -0.082 HD
ENDBRANCH  23  24
ENDBRANCH  21  23
ENDBRANCH   1  21
TORSDOF 6
