REMARK  Name = ZINC43473340
REMARK  5 active torsions:
REMARK  status: ('A' for Active; 'I' for Inactive)
REMARK    1  A    between atoms: C_3  and  N_18
REMARK    2  A    between atoms: C_6  and  O_7
REMARK    3  A    between atoms: O_7  and  C_8
REMARK    4  A    between atoms: C_13  and  C_14
REMARK    5  A    between atoms: C_14  and  N_15
REMARK                            x       y       z     vdW  Elec       q    Type
REMARK                         _______ _______ _______ _____ _____    ______ ____
ROOT
ATOM      1  C   UNL     1      -1.101  -2.053  -0.103  0.00  0.00    +0.131 A 
ATOM      2  C   UNL     1       0.131  -2.692  -0.111  0.00  0.00    +0.061 A 
ATOM      3  C   UNL     1       0.193  -4.068  -0.225  0.00  0.00    +0.021 A 
ATOM      4  C   UNL     1      -0.972  -4.808  -0.332  0.00  0.00    +0.016 A 
ATOM      5  C   UNL     1      -2.200  -4.173  -0.324  0.00  0.00    +0.006 A 
ATOM      6  C   UNL     1      -2.267  -2.798  -0.204  0.00  0.00    -0.023 A 
ATOM      7 BR   UNL     1       1.871  -4.940  -0.237  0.00  0.00    -0.050 Br
ENDROOT
BRANCH   1   8
ATOM      8  O   UNL     1      -1.165  -0.700   0.010  0.00  0.00    -0.456 OA
BRANCH   8  14
ATOM      9  C   UNL     1       0.750   0.053  -1.184  0.00  0.00    +0.048 A 
ATOM     10  C   UNL     1       1.935   0.763  -1.211  0.00  0.00    +0.039 A 
ATOM     11  C   UNL     1       2.374   1.420  -0.077  0.00  0.00    +0.161 A 
ATOM     12  C   UNL     1       1.629   1.368   1.089  0.00  0.00    +0.157 A 
ATOM     13  C   UNL     1       0.442   0.657   1.120  0.00  0.00    +0.087 A 
ATOM     14  C   UNL     1       0.001  -0.002  -0.018  0.00  0.00    +0.131 A 
ATOM     15  F   UNL     1       2.061   2.010   2.197  0.00  0.00    -0.203 F 
BRANCH  11  16
ATOM     16  N   UNL     1       3.644   2.180  -0.109  0.00  0.00    +0.059 N 
ATOM     17  O   UNL     1       4.296   2.227  -1.126  0.00  0.00    -0.126 OA
ATOM     18  O   UNL     1       4.030   2.755   0.883  0.00  0.00    -0.126 OA
ENDBRANCH  11  16
ENDBRANCH   8  14
ENDBRANCH   1   8
BRANCH   6  19
ATOM     19  C   UNL     1      -3.606  -2.107  -0.189  0.00  0.00    -0.047 C 
BRANCH  19  20
ATOM     20  N   UNL     1      -3.887  -1.554  -1.520  0.00  0.00    +0.381 N 
ATOM     21  H   UNL     1      -3.169  -0.890  -1.767  0.00  0.00    -0.090 HD
ATOM     22  H   UNL     1      -3.902  -2.302  -2.198  0.00  0.00    -0.090 HD
ATOM     23  H   UNL     1      -4.784  -1.092  -1.510  0.00  0.00    -0.090 HD
ENDBRANCH  19  20
ENDBRANCH   6  19
TORSDOF 5
