REMARK  Name = ZINC62101692
REMARK  2 active torsions:
REMARK  status: ('A' for Active; 'I' for Inactive)
REMARK    1  A    between atoms: C_7  and  N_14
REMARK    2  A    between atoms: C_8  and  C_11
REMARK                            x       y       z     vdW  Elec       q    Type
REMARK                         _______ _______ _______ _____ _____    ______ ____
ROOT
ATOM      1  C   UNL     1      -0.040   1.316   0.312  0.00  0.00    +0.001 A 
ATOM      2  C   UNL     1       1.137   2.060   0.290  0.00  0.00    +0.002 A 
ATOM      3  C   UNL     1       2.350   1.451   0.172  0.00  0.00    +0.026 A 
ATOM      4  C   UNL     1       2.423   0.053   0.069  0.00  0.00    +0.048 A 
ATOM      5  C   UNL     1       1.225  -0.700   0.092  0.00  0.00    +0.020 A 
ATOM      6  C   UNL     1      -0.007  -0.043   0.215  0.00  0.00    +0.012 A 
ATOM      7  C   UNL     1       1.297  -2.110  -0.011  0.00  0.00    +0.055 A 
ATOM      8  C   UNL     1       2.570  -2.693  -0.132  0.00  0.00    +0.101 A 
ATOM      9  C   UNL     1       3.706  -1.865  -0.145  0.00  0.00    +0.100 A 
ATOM     10  N   UNL     1       3.607  -0.565  -0.048  0.00  0.00    -0.360 N 
ATOM     11  H   UNL     1       4.417  -0.030  -0.061  0.00  0.00    +0.165 HD
ENDROOT
BRANCH   7  12
ATOM     12  N   UNL     1       0.160  -2.884   0.007  0.00  0.00    -0.327 N 
ATOM     13  C   UNL     1      -0.504  -3.186  -1.260  0.00  0.00    +0.114 C 
ATOM     14  C   UNL     1      -1.905  -2.563  -1.266  0.00  0.00    +0.114 C 
ATOM     15  C   UNL     1      -2.836  -3.460  -0.481  0.00  0.00    +0.215 C 
ATOM     16  O   UNL     1      -3.682  -4.106  -1.063  0.00  0.00    -0.276 OA
ATOM     17  N   UNL     1      -2.732  -3.547   0.848  0.00  0.00    -0.314 N 
ATOM     18  C   UNL     1      -1.719  -2.768   1.573  0.00  0.00    +0.123 C 
ATOM     19  C   UNL     1      -0.335  -3.376   1.290  0.00  0.00    +0.124 C 
ATOM     20  H   UNL     1      -3.333  -4.129   1.340  0.00  0.00    +0.149 HD
ENDBRANCH   7  12
BRANCH   8  21
ATOM     21  C   UNL     1       2.712  -4.150  -0.242  0.00  0.00    +0.390 C 
ATOM     22  O   UNL     1       3.826  -4.658  -0.246  0.00  0.00    -0.240 OA
ATOM     23  O   UNL     1       1.717  -4.857  -0.329  0.00  0.00    -0.240 OA
ENDBRANCH   8  21
TORSDOF 2
