REMARK  Name = ZINC39361528
REMARK  9 active torsions:
REMARK  status: ('A' for Active; 'I' for Inactive)
REMARK    1  A    between atoms: C_1  and  C_2
REMARK    2  A    between atoms: C_5  and  C_34
REMARK    3  A    between atoms: C_6  and  N_8
REMARK    4  A    between atoms: C_9  and  C_11
REMARK    5  A    between atoms: C_11  and  S_12
REMARK    6  A    between atoms: S_12  and  C_13
REMARK    7  A    between atoms: C_16  and  C_25
REMARK    8  A    between atoms: N_18  and  C_19
REMARK    9  A    between atoms: C_25  and  C_26
REMARK                            x       y       z     vdW  Elec       q    Type
REMARK                         _______ _______ _______ _____ _____    ______ ____
ROOT
ATOM      1  C   UNL     1       0.532  -2.770   7.657  0.00  0.00    +0.180 C 
ATOM      2  N   UNL     1       0.554  -4.059   7.612  0.00  0.00    -0.162 NA
ATOM      3  N   UNL     1       0.683  -4.616   8.890  0.00  0.00    -0.246 N 
ATOM      4  C   UNL     1       0.748  -3.481   9.827  0.00  0.00    +0.187 C 
ATOM      5  N   UNL     1       0.649  -2.297   8.957  0.00  0.00    -0.258 N 
ATOM      6  H   UNL     1       0.723  -5.559   9.113  0.00  0.00    +0.170 HD
ENDROOT
BRANCH   5   7
ATOM      7  C   UNL     1       0.667  -0.960   9.361  0.00  0.00    +0.037 A 
ATOM      8  C   UNL     1      -0.237  -0.508  10.313  0.00  0.00    +0.023 A 
ATOM      9  C   UNL     1      -0.216   0.814  10.711  0.00  0.00    +0.002 A 
ATOM     10  C   UNL     1       0.703   1.688  10.161  0.00  0.00    +0.000 A 
ATOM     11  C   UNL     1       1.605   1.242   9.212  0.00  0.00    +0.002 A 
ATOM     12  C   UNL     1       1.593  -0.080   8.814  0.00  0.00    +0.023 A 
ENDBRANCH   5   7
BRANCH   1  13
ATOM     13  S   UNL     1       0.381  -1.735   6.240  0.00  0.00    -0.079 S 
BRANCH  13  14
ATOM     14  C   UNL     1       0.266  -2.900   4.855  0.00  0.00    +0.173 C 
BRANCH  14  16
ATOM     15  N   UNL     1       0.029  -2.798   2.395  0.00  0.00    -0.285 N 
ATOM     16  C   UNL     1       0.131  -2.135   3.564  0.00  0.00    +0.227 C 
ATOM     17  O   UNL     1       0.113  -0.922   3.577  0.00  0.00    -0.275 OA
ATOM     18  H   UNL     1      -0.038  -3.765   2.390  0.00  0.00    +0.155 HD
BRANCH  15  24
ATOM     19  C   UNL     1       1.231   1.228  -0.160  0.00  0.00    +0.044 C 
ATOM     20  C   UNL     1       0.596  -0.137  -0.079  0.00  0.00    -0.049 A 
ATOM     21  C   UNL     1       0.004  -0.690  -1.199  0.00  0.00    +0.004 A 
ATOM     22  C   UNL     1      -0.580  -1.942  -1.129  0.00  0.00    +0.005 A 
ATOM     23  C   UNL     1      -0.573  -2.643   0.061  0.00  0.00    -0.029 A 
ATOM     24  C   UNL     1       0.021  -2.090   1.188  0.00  0.00    +0.037 A 
ATOM     25  C   UNL     1       0.611  -0.835   1.113  0.00  0.00    +0.027 A 
ATOM     26  C   UNL     1      -1.210  -4.007   0.137  0.00  0.00    +0.045 C 
ENDBRANCH  15  24
ENDBRANCH  14  16
ENDBRANCH  13  14
ENDBRANCH   1  13
BRANCH   4  27
ATOM     27  C   UNL     1       2.080  -3.482  10.580  0.00  0.00    +0.097 C 
BRANCH  27  28
ATOM     28  C   UNL     1       2.201  -4.751  11.385  0.00  0.00    +0.029 A 
ATOM     29  N   UNL     1       1.642  -4.830  12.631  0.00  0.00    -0.311 N 
ATOM     30  C   UNL     1       1.744  -5.958  13.358  0.00  0.00    +0.327 A 
ATOM     31  O   UNL     1       1.239  -6.007  14.463  0.00  0.00    -0.247 OA
ATOM     32  N   UNL     1       2.396  -7.033  12.878  0.00  0.00    -0.275 N 
ATOM     33  C   UNL     1       2.961  -6.995  11.654  0.00  0.00    +0.254 A 
ATOM     34  O   UNL     1       3.551  -7.968  11.220  0.00  0.00    -0.268 OA
ATOM     35  C   UNL     1       2.857  -5.816  10.877  0.00  0.00    +0.091 A 
ATOM     36  H   UNL     1       2.460  -7.838  13.415  0.00  0.00    +0.173 HD
ATOM     37  H   UNL     1       1.167  -4.066  12.994  0.00  0.00    +0.170 HD
ENDBRANCH  27  28
ENDBRANCH   4  27
TORSDOF 7
