REMARK  Name = ZINC40953845
REMARK  9 active torsions:
REMARK  status: ('A' for Active; 'I' for Inactive)
REMARK    1  A    between atoms: C_1  and  C_2
REMARK    2  A    between atoms: C_7  and  O_10
REMARK    3  A    between atoms: O_10  and  C_11
REMARK    4  A    between atoms: C_11  and  C_13
REMARK    5  A    between atoms: C_13  and  C_15
REMARK    6  A    between atoms: C_13  and  N_24
REMARK    7  A    between atoms: C_15  and  C_16
REMARK    8  A    between atoms: C_19  and  O_23
REMARK    9  A    between atoms: C_20  and  O_22
REMARK                            x       y       z     vdW  Elec       q    Type
REMARK                         _______ _______ _______ _____ _____    ______ ____
ROOT
ATOM      1  C   UNL     1       2.853  -4.247   3.457  0.00  0.00    +0.040 C 
ENDROOT
BRANCH   1   2
ATOM      2  N   UNL     1       3.837  -5.230   2.987  0.00  0.00    +0.387 N 
ATOM      3  H   UNL     1       4.486  -4.782   2.357  0.00  0.00    -0.089 HD
ATOM      4  H   UNL     1       4.340  -5.607   3.776  0.00  0.00    -0.089 HD
ATOM      5  H   UNL     1       3.362  -5.977   2.503  0.00  0.00    -0.089 HD
ENDBRANCH   1   2
BRANCH   1   6
ATOM      6  C   UNL     1       2.101  -3.684   2.278  0.00  0.00    +0.293 C 
ATOM      7  O   UNL     1       2.082  -4.287   1.231  0.00  0.00    -0.253 OA
BRANCH   6   8
ATOM      8  O   UNL     1       1.454  -2.514   2.391  0.00  0.00    -0.462 OA
BRANCH   8  14
ATOM      9  C   UNL     1      -0.019   1.526   0.010  0.00  0.00    +0.007 C 
ATOM     10  C   UNL     1       0.002  -0.004   0.002  0.00  0.00    -0.011 C 
ATOM     11  C   UNL     1      -1.433  -0.534   0.013  0.00  0.00    +0.003 C 
ATOM     12  C   UNL     1      -1.413  -2.063   0.004  0.00  0.00    +0.004 C 
ATOM     13  C   UNL     1      -0.673  -2.570   1.244  0.00  0.00    +0.044 C 
ATOM     14  C   UNL     1       0.763  -2.041   1.233  0.00  0.00    +0.177 C 
ATOM     15  C   UNL     1       0.742  -0.511   1.242  0.00  0.00    +0.048 C 
ENDBRANCH   8  14
ENDBRANCH   6   8
ENDBRANCH   1   6
BRANCH   1  16
ATOM     16  C   UNL     1       1.869  -4.927   4.411  0.00  0.00    +0.030 C 
BRANCH  16  17
ATOM     17  C   UNL     1       2.601  -5.381   5.648  0.00  0.00    -0.045 A 
ATOM     18  C   UNL     1       3.165  -6.642   5.691  0.00  0.00    +0.007 A 
ATOM     19  C   UNL     1       3.838  -7.064   6.823  0.00  0.00    +0.049 A 
ATOM     20  C   UNL     1       3.947  -6.221   7.918  0.00  0.00    +0.158 A 
ATOM     21  C   UNL     1       3.380  -4.951   7.874  0.00  0.00    +0.158 A 
ATOM     22  C   UNL     1       2.711  -4.534   6.734  0.00  0.00    +0.052 A 
BRANCH  21  23
ATOM     23  O   UNL     1       3.485  -4.121   8.945  0.00  0.00    -0.503 OA
ATOM     24  H   UNL     1       4.268  -3.555   8.929  0.00  0.00    +0.292 HD
ENDBRANCH  21  23
BRANCH  20  25
ATOM     25  O   UNL     1       4.608  -6.634   9.032  0.00  0.00    -0.503 OA
ATOM     26  H   UNL     1       5.553  -6.428   9.028  0.00  0.00    +0.292 HD
ENDBRANCH  20  25
ENDBRANCH  16  17
ENDBRANCH   1  16
TORSDOF 8
