REMARK  Name = ZINC12159886
REMARK  11 active torsions:
REMARK  status: ('A' for Active; 'I' for Inactive)
REMARK    1  A    between atoms: C_1  and  C_2
REMARK    2  A    between atoms: C_2  and  C_3
REMARK    3  A    between atoms: C_2  and  C_4
REMARK    4  A    between atoms: C_4  and  C_5
REMARK    5  A    between atoms: C_5  and  C_7
REMARK    6  A    between atoms: C_5  and  N_63
REMARK    7  A    between atoms: C_10  and  N_63
REMARK    8  A    between atoms: N_21  and  C_24
REMARK    9  A    between atoms: C_24  and  C_25
REMARK   10  A    between atoms: C_25  and  C_26
REMARK   11  A    between atoms: C_26  and  C_27
REMARK                            x       y       z     vdW  Elec       q    Type
REMARK                         _______ _______ _______ _____ _____    ______ ____
ROOT
ATOM      1  C   UNL     1       0.280   8.326   0.143  0.00  0.00    -0.066 C 
ATOM      2  C   UNL     1      -0.986   8.144  -0.700  0.00  0.00    -0.011 C 
ATOM      3  C   UNL     1      -1.643   6.804  -0.369  0.00  0.00    +0.035 C 
ATOM      4  C   UNL     1      -0.599   5.698  -0.501  0.00  0.00    -0.023 A 
ATOM      5  C   UNL     1       0.719   5.990  -0.489  0.00  0.00    -0.006 A 
ATOM      6  S   UNL     1       1.537   4.427  -0.667  0.00  0.00    -0.073 S 
ATOM      7  C   UNL     1       0.103   3.385  -0.755  0.00  0.00    +0.116 A 
ATOM      8  C   UNL     1      -0.965   4.290  -0.644  0.00  0.00    +0.076 A 
ATOM      9  C   UNL     1      -2.275   3.711  -0.686  0.00  0.00    +0.262 A 
ATOM     10  O   UNL     1      -3.267   4.414  -0.598  0.00  0.00    -0.267 OA
ATOM     11  N   UNL     1      -2.393   2.377  -0.830  0.00  0.00    -0.299 N 
ATOM     12  C   UNL     1      -1.299   1.578  -0.924  0.00  0.00    +0.203 A 
ATOM     13  N   UNL     1      -0.092   2.076  -0.889  0.00  0.00    -0.230 NA
ATOM     14  C   UNL     1       1.348   7.343  -0.355  0.00  0.00    +0.027 C 
ENDROOT
BRANCH   1  15
ATOM     15  N   UNL     1       0.772   9.709  -0.004  0.00  0.00    +0.389 N 
ATOM     16  H   UNL     1       1.349   9.775  -0.851  0.00  0.00    -0.084 HD
ATOM     17  H   UNL     1      -0.029  10.347  -0.085  0.00  0.00    -0.084 HD
BRANCH  15  18
ATOM     18  C   UNL     1       1.582  10.092   1.168  0.00  0.00    +0.016 C 
BRANCH  18  19
ATOM     19  C   UNL     1       0.681  10.640   2.244  0.00  0.00    +0.196 C 
ATOM     20  O   UNL     1      -0.516  10.702   2.061  0.00  0.00    -0.278 OA
ATOM     21  N   UNL     1       1.207  11.063   3.411  0.00  0.00    -0.331 N 
ATOM     22  H   UNL     1       2.164  11.014   3.558  0.00  0.00    +0.145 HD
ATOM     23  H   UNL     1       0.627  11.416   4.104  0.00  0.00    +0.145 HD
ENDBRANCH  18  19
BRANCH  18  24
ATOM     24  C   UNL     1       2.592  11.164   0.752  0.00  0.00    -0.004 C 
BRANCH  24  26
ATOM     25  C   UNL     1       4.517  11.667  -0.759  0.00  0.00    +0.007 C 
ATOM     26  C   UNL     1       3.594  10.564  -0.236  0.00  0.00    -0.018 C 
ATOM     27  C   UNL     1       4.428   9.493   0.469  0.00  0.00    +0.007 C 
ENDBRANCH  24  26
ENDBRANCH  18  24
ENDBRANCH  15  18
ENDBRANCH   1  15
BRANCH  11  28
ATOM     28  C   UNL     1      -3.728   1.776  -0.879  0.00  0.00    +0.126 C 
BRANCH  28  29
ATOM     29  C   UNL     1      -4.178   1.417   0.538  0.00  0.00    +0.026 C 
BRANCH  29  30
ATOM     30  C   UNL     1      -5.572   0.788   0.487  0.00  0.00    +0.037 C 
BRANCH  30  31
ATOM     31  C   UNL     1      -6.016   0.435   1.883  0.00  0.00    -0.047 A 
ATOM     32  C   UNL     1      -5.731  -0.814   2.403  0.00  0.00    +0.003 A 
ATOM     33  C   UNL     1      -6.133  -1.136   3.686  0.00  0.00    +0.000 A 
ATOM     34  C   UNL     1      -6.830  -0.214   4.444  0.00  0.00    +0.000 A 
ATOM     35  C   UNL     1      -7.120   1.033   3.922  0.00  0.00    +0.000 A 
ATOM     36  C   UNL     1      -6.712   1.357   2.641  0.00  0.00    +0.003 A 
ENDBRANCH  30  31
ENDBRANCH  29  30
ENDBRANCH  28  29
ENDBRANCH  11  28
TORSDOF 9
