REMARK  Name = ZINC20532168
REMARK  13 active torsions:
REMARK  status: ('A' for Active; 'I' for Inactive)
REMARK    1  A    between atoms: C_1  and  C_2
REMARK    2  A    between atoms: C_2  and  O_3
REMARK    3  A    between atoms: O_3  and  C_4
REMARK    4  A    between atoms: C_7  and  N_10
REMARK    5  A    between atoms: N_13  and  C_14
REMARK    6  A    between atoms: C_14  and  C_16
REMARK    7  A    between atoms: C_14  and  C_21
REMARK    8  A    between atoms: C_16  and  C_17
REMARK    9  A    between atoms: C_17  and  C_18
REMARK   10  A    between atoms: C_18  and  C_19
REMARK   11  A    between atoms: C_18  and  C_20
REMARK   12  A    between atoms: C_25  and  N_26
REMARK   13  A    between atoms: N_32  and  C_35
REMARK                            x       y       z     vdW  Elec       q    Type
REMARK                         _______ _______ _______ _____ _____    ______ ____
ROOT
ATOM      1  C   UNL     1       0.944   0.753   5.068  0.00  0.00    +0.108 C 
ENDROOT
BRANCH   1   2
ATOM      2  C   UNL     1       1.050   1.233   3.643  0.00  0.00    +0.007 A 
ATOM      3  C   UNL     1       0.156   2.184   3.158  0.00  0.00    -0.034 A 
ATOM      4  C   UNL     1       0.313   2.565   1.860  0.00  0.00    -0.021 A 
ATOM      5  S   UNL     1       1.699   1.614   1.303  0.00  0.00    -0.077 S 
ATOM      6  C   UNL     1       2.018   0.738   2.827  0.00  0.00    +0.090 A 
ATOM      7  C   UNL     1      -0.514   3.559   1.112  0.00  0.00    -0.036 C 
ATOM      8  N   UNL     1      -1.745   3.810   1.886  0.00  0.00    +0.381 N 
ATOM      9  C   UNL     1      -1.425   4.085   3.293  0.00  0.00    -0.074 C 
ATOM     10  C   UNL     1      -0.963   2.804   3.992  0.00  0.00    +0.018 C 
ATOM     11  C   UNL     1      -2.522   4.909   1.298  0.00  0.00    -0.096 C 
ATOM     12  H   UNL     1      -2.369   2.905   1.849  0.00  0.00    -0.082 HD
BRANCH   6  13
ATOM     13  N   UNL     1       3.007  -0.212   3.107  0.00  0.00    -0.317 N 
ATOM     14  C   UNL     1       4.350  -0.040   2.928  0.00  0.00    +0.092 A 
ATOM     15  C   UNL     1       4.975  -1.172   3.313  0.00  0.00    +0.019 A 
ATOM     16  C   UNL     1       3.983  -2.080   3.736  0.00  0.00    +0.019 A 
ATOM     17  C   UNL     1       2.789  -1.467   3.600  0.00  0.00    +0.092 A 
ENDBRANCH   6  13
ENDBRANCH   1   2
BRANCH   1  21
ATOM     18  N   UNL     1      -1.963  -1.214   6.161  0.00  0.00    -0.269 N 
ATOM     19  C   UNL     1      -0.692  -0.847   5.904  0.00  0.00    +0.304 C 
ATOM     20  O   UNL     1       0.224  -1.599   6.172  0.00  0.00    -0.252 OA
ATOM     21  N   UNL     1      -0.437   0.354   5.348  0.00  0.00    -0.292 N 
ATOM     22  H   UNL     1      -2.797  -0.567   5.849  0.00  0.00    +0.156 HD
ATOM     23  H   UNL     1      -1.266   1.035   5.105  0.00  0.00    +0.151 HD
BRANCH  18  27
ATOM     24  C   UNL     1      -2.738  -4.801   8.141  0.00  0.00    +0.121 A 
ATOM     25  C   UNL     1      -3.555  -3.701   8.355  0.00  0.00    +0.047 A 
ATOM     26  C   UNL     1      -3.299  -2.513   7.699  0.00  0.00    +0.027 A 
ATOM     27  C   UNL     1      -2.224  -2.419   6.827  0.00  0.00    +0.035 A 
ATOM     28  C   UNL     1      -1.409  -3.522   6.609  0.00  0.00    +0.027 A 
ATOM     29  C   UNL     1      -1.663  -4.709   7.269  0.00  0.00    +0.047 A 
BRANCH  24  30
ATOM     30  O   UNL     1      -2.990  -5.971   8.787  0.00  0.00    -0.492 OA
BRANCH  30  32
ATOM     31  C   UNL     1      -2.548  -8.284   9.331  0.00  0.00    +0.048 C 
ATOM     32  C   UNL     1      -2.108  -7.063   8.520  0.00  0.00    +0.225 C 
ENDBRANCH  30  32
ENDBRANCH  24  30
ENDBRANCH  18  27
ENDBRANCH   1  21
BRANCH   1  33
ATOM     33  C   UNL     1       1.352   1.882   6.018  0.00  0.00    +0.027 C 
BRANCH  33  34
ATOM     34  C   UNL     1       1.365   1.359   7.455  0.00  0.00    +0.005 C 
BRANCH  34  35
ATOM     35  C   UNL     1       1.772   2.488   8.405  0.00  0.00    -0.017 C 
ATOM     36  C   UNL     1       0.704   3.583   8.382  0.00  0.00    +0.007 C 
ATOM     37  C   UNL     1       1.906   1.936   9.825  0.00  0.00    +0.007 C 
ENDBRANCH  34  35
ENDBRANCH  33  34
ENDBRANCH   1  33
TORSDOF 9
