REMARK  Name = ZINC53716155
REMARK  4 active torsions:
REMARK  status: ('A' for Active; 'I' for Inactive)
REMARK    1  A    between atoms: C_5  and  C_8
REMARK    2  A    between atoms: N_10  and  C_11
REMARK    3  A    between atoms: C_11  and  C_17
REMARK    4  A    between atoms: N_18  and  O_19
REMARK                            x       y       z     vdW  Elec       q    Type
REMARK                         _______ _______ _______ _____ _____    ______ ____
ROOT
ATOM      1  C   UNL     1       2.492  -2.800  -4.013  0.00  0.00    +0.093 C 
ATOM      2  C   UNL     1       3.700  -2.424  -4.874  0.00  0.00    +0.033 C 
ATOM      3  C   UNL     1       4.869  -2.030  -3.968  0.00  0.00    +0.002 C 
ATOM      4  C   UNL     1       5.234  -3.209  -3.065  0.00  0.00    +0.000 C 
ATOM      5  C   UNL     1       4.027  -3.586  -2.204  0.00  0.00    +0.002 C 
ATOM      6  C   UNL     1       2.858  -3.980  -3.109  0.00  0.00    +0.033 C 
ENDROOT
BRANCH   1   7
ATOM      7  C   UNL     1       1.341  -3.188  -4.905  0.00  0.00    +0.155 C 
ATOM      8  N   UNL     1       1.474  -4.162  -5.743  0.00  0.00    -0.075 NA
ATOM      9  N   UNL     1       0.148  -2.505  -4.826  0.00  0.00    -0.342 N 
ATOM     10  H   UNL     1       0.028  -1.815  -4.155  0.00  0.00    +0.144 HD
ATOM     11  H   UNL     1      -0.572  -2.714  -5.441  0.00  0.00    +0.144 HD
BRANCH   8  12
ATOM     12  O   UNL     1       2.650  -4.951  -5.732  0.00  0.00    -0.408 OA
ATOM     13  H   UNL     1       2.657  -5.655  -6.395  0.00  0.00    +0.328 HD
ENDBRANCH   8  12
ENDBRANCH   1   7
BRANCH   1  16
ATOM     14  C   UNL     1       1.785  -0.481  -3.769  0.00  0.00    +0.217 C 
ATOM     15  O   UNL     1       1.895  -0.350  -4.970  0.00  0.00    -0.275 OA
ATOM     16  N   UNL     1       2.105  -1.654  -3.187  0.00  0.00    -0.303 N 
ATOM     17  H   UNL     1       2.079  -1.739  -2.221  0.00  0.00    +0.150 HD
BRANCH  14  22
ATOM     18  C   UNL     1      -0.505   2.585  -1.453  0.00  0.00    +0.000 C 
ATOM     19  C   UNL     1       0.846   3.220  -1.643  0.00  0.00    +0.000 C 
ATOM     20  C   UNL     1       1.309   3.193  -3.111  0.00  0.00    +0.001 C 
ATOM     21  C   UNL     1       1.006   1.853  -3.809  0.00  0.00    +0.013 C 
ATOM     22  C   UNL     1       1.292   0.668  -2.928  0.00  0.00    +0.075 C 
ATOM     23  C   UNL     1      -0.013   0.263  -2.212  0.00  0.00    +0.013 C 
ATOM     24  C   UNL     1      -0.300   1.107  -1.062  0.00  0.00    +0.001 C 
ENDBRANCH  14  22
ENDBRANCH   1  16
TORSDOF 4
