REMARK  Name = ZINC00092153
REMARK  3 active torsions:
REMARK  status: ('A' for Active; 'I' for Inactive)
REMARK    1  A    between atoms: C_3  and  C_7
REMARK    2  A    between atoms: C_13  and  N_19
REMARK    3  A    between atoms: C_14  and  C_16
REMARK                            x       y       z     vdW  Elec       q    Type
REMARK                         _______ _______ _______ _____ _____    ______ ____
ROOT
ATOM      1  C   UNL     1       4.120   1.308   0.735  0.00  0.00    -0.000 A 
ATOM      2  C   UNL     1       5.190   0.821  -0.007  0.00  0.00    -0.018 A 
ATOM      3  C   UNL     1       6.369   1.542  -0.081  0.00  0.00    +0.046 A 
ATOM      4  N   UNL     1       6.485   2.698   0.553  0.00  0.00    -0.244 NA
ATOM      5  C   UNL     1       5.505   3.204   1.267  0.00  0.00    +0.112 A 
ATOM      6  C   UNL     1       4.257   2.558   1.408  0.00  0.00    +0.037 A 
ATOM      7  C   UNL     1       3.285   3.259   2.228  0.00  0.00    +0.054 A 
ATOM      8  C   UNL     1       3.648   4.468   2.782  0.00  0.00    +0.097 A 
ATOM      9  S   UNL     1       5.325   4.691   2.222  0.00  0.00    -0.062 S 
ATOM     10  C   UNL     1       7.369   0.799  -0.943  0.00  0.00    +0.056 C 
ATOM     11  C   UNL     1       6.835  -0.646  -1.026  0.00  0.00    +0.011 C 
ATOM     12  C   UNL     1       5.319  -0.453  -0.816  0.00  0.00    +0.038 C 
ENDROOT
BRANCH   1  15
ATOM     13  C   UNL     1       0.846  -0.298  -0.165  0.00  0.00    +0.020 A 
ATOM     14  C   UNL     1       2.018   0.427  -0.296  0.00  0.00    +0.011 A 
ATOM     15  C   UNL     1       2.853   0.544   0.819  0.00  0.00    +0.001 A 
ATOM     16  C   UNL     1       2.475  -0.072   2.012  0.00  0.00    +0.119 A 
ATOM     17  N   UNL     1       1.351  -0.753   2.087  0.00  0.00    -0.263 NA
ATOM     18  C   UNL     1       0.542  -0.879   1.053  0.00  0.00    +0.111 A 
ENDBRANCH   1  15
BRANCH   8  19
ATOM     19  C   UNL     1       2.877   5.324   3.607  0.00  0.00    +0.250 C 
ATOM     20  O   UNL     1       1.737   5.016   3.907  0.00  0.00    -0.270 OA
ATOM     21  N   UNL     1       3.404   6.479   4.060  0.00  0.00    -0.325 N 
ATOM     22  H   UNL     1       4.311   6.724   3.821  0.00  0.00    +0.145 HD
ATOM     23  H   UNL     1       2.875   7.064   4.625  0.00  0.00    +0.145 HD
ENDBRANCH   8  19
BRANCH   7  24
ATOM     24  N   UNL     1       2.022   2.726   2.449  0.00  0.00    -0.356 N 
ATOM     25  H   UNL     1       1.667   2.055   1.846  0.00  0.00    +0.142 HD
ATOM     26  H   UNL     1       1.495   3.025   3.207  0.00  0.00    +0.142 HD
ENDBRANCH   7  24
TORSDOF 3
