REMARK  Name = ZINC62497017
REMARK  7 active torsions:
REMARK  status: ('A' for Active; 'I' for Inactive)
REMARK    1  A    between atoms: C_1  and  C_2
REMARK    2  A    between atoms: C_2  and  C_3
REMARK    3  A    between atoms: C_2  and  C_4
REMARK    4  A    between atoms: C_9  and  C_10
REMARK    5  A    between atoms: C_10  and  C_11
REMARK    6  A    between atoms: N_15  and  C_24
REMARK    7  A    between atoms: C_19  and  N_23
REMARK                            x       y       z     vdW  Elec       q    Type
REMARK                         _______ _______ _______ _____ _____    ______ ____
ROOT
ATOM      1  C   UNL     1      -0.214  -2.781  -2.041  0.00  0.00    +0.263 C 
ATOM      2  C   UNL     1       0.459  -3.196  -3.325  0.00  0.00    +0.261 C 
ATOM      3  O   UNL     1      -0.071  -4.004  -4.057  0.00  0.00    -0.271 OA
ATOM      4  N   UNL     1       1.655  -2.665  -3.655  0.00  0.00    -0.268 N 
ATOM      5  C   UNL     1       2.311  -1.829  -2.737  0.00  0.00    +0.078 A 
ATOM      6  C   UNL     1       3.416  -1.090  -3.125  0.00  0.00    +0.029 A 
ATOM      7  C   UNL     1       4.045  -0.261  -2.215  0.00  0.00    +0.025 A 
ATOM      8  C   UNL     1       3.570  -0.167  -0.913  0.00  0.00    +0.028 A 
ATOM      9  C   UNL     1       2.465  -0.911  -0.520  0.00  0.00    +0.070 A 
ATOM     10  C   UNL     1       1.838  -1.746  -1.429  0.00  0.00    +0.145 A 
ATOM     11  O   UNL     1       0.775  -2.502  -1.048  0.00  0.00    -0.477 OA
ATOM     12  C   UNL     1       2.261  -2.956  -4.957  0.00  0.00    +0.138 C 
ENDROOT
BRANCH   8  13
ATOM     13  N   UNL     1       4.206   0.677   0.004  0.00  0.00    -0.358 N 
ATOM     14  H   UNL     1       4.978   1.196  -0.270  0.00  0.00    +0.142 HD
ATOM     15  H   UNL     1       3.874   0.743   0.913  0.00  0.00    +0.142 HD
ENDBRANCH   8  13
BRANCH   1  16
ATOM     16  C   UNL     1      -1.054  -1.526  -2.289  0.00  0.00    +0.089 C 
BRANCH  16  22
ATOM     17  C   UNL     1      -2.997  -1.820  -0.740  0.00  0.00    -0.041 A 
ATOM     18  C   UNL     1      -3.691  -1.501   0.412  0.00  0.00    +0.004 A 
ATOM     19  C   UNL     1      -3.201  -0.530   1.266  0.00  0.00    +0.000 A 
ATOM     20  C   UNL     1      -2.018   0.120   0.968  0.00  0.00    +0.000 A 
ATOM     21  C   UNL     1      -1.325  -0.200  -0.184  0.00  0.00    +0.004 A 
ATOM     22  C   UNL     1      -1.812  -1.173  -1.036  0.00  0.00    -0.040 A 
BRANCH  17  24
ATOM     23  C   UNL     1      -3.761  -4.175  -0.892  0.00  0.00    +0.012 C 
ATOM     24  C   UNL     1      -3.531  -2.878  -1.671  0.00  0.00    +0.013 C 
ATOM     25  C   UNL     1      -4.854  -2.405  -2.276  0.00  0.00    +0.012 C 
ENDBRANCH  17  24
ENDBRANCH  16  22
ENDBRANCH   1  16
TORSDOF 4
