REMARK  Name = ZINC05541651
REMARK  7 active torsions:
REMARK  status: ('A' for Active; 'I' for Inactive)
REMARK    1  A    between atoms: C_1  and  C_2
REMARK    2  A    between atoms: C_7  and  N_19
REMARK    3  A    between atoms: N_12  and  C_13
REMARK    4  A    between atoms: N_19  and  C_20
REMARK    5  A    between atoms: C_22  and  O_32
REMARK    6  A    between atoms: C_24  and  O_31
REMARK    7  A    between atoms: C_26  and  O_30
REMARK                            x       y       z     vdW  Elec       q    Type
REMARK                         _______ _______ _______ _____ _____    ______ ____
ROOT
ATOM      1  C   UNL     1       3.930   3.195   1.468  0.00  0.00    +0.086 C 
ATOM      2  C   UNL     1       3.882   1.723   1.152  0.00  0.00    +0.114 A 
ATOM      3  N   UNL     1       5.003   1.073   1.074  0.00  0.00    -0.233 NA
ATOM      4  C   UNL     1       5.038  -0.255   0.793  0.00  0.00    +0.078 A 
ATOM      5  C   UNL     1       6.245  -0.953   0.709  0.00  0.00    +0.030 A 
ATOM      6  C   UNL     1       6.240  -2.288   0.424  0.00  0.00    +0.025 A 
ATOM      7  C   UNL     1       5.043  -2.972   0.213  0.00  0.00    +0.030 A 
ATOM      8  C   UNL     1       3.833  -2.305   0.290  0.00  0.00    +0.038 A 
ATOM      9  C   UNL     1       3.822  -0.942   0.581  0.00  0.00    +0.067 A 
ATOM     10  C   UNL     1       2.569  -0.179   0.682  0.00  0.00    +0.266 A 
ATOM     11  O   UNL     1       1.488  -0.713   0.515  0.00  0.00    -0.267 OA
ATOM     12  N   UNL     1       2.665   1.142   0.963  0.00  0.00    -0.265 N 
ENDROOT
BRANCH  12  13
ATOM     13  C   UNL     1       1.503   1.916   1.065  0.00  0.00    +0.051 A 
ATOM     14  C   UNL     1       0.868   2.060   2.291  0.00  0.00    +0.026 A 
ATOM     15  C   UNL     1      -0.281   2.820   2.388  0.00  0.00    +0.002 A 
ATOM     16  C   UNL     1      -0.793   3.446   1.267  0.00  0.00    +0.000 A 
ATOM     17  C   UNL     1      -0.164   3.305   0.044  0.00  0.00    +0.002 A 
ATOM     18  C   UNL     1       0.983   2.542  -0.060  0.00  0.00    +0.026 A 
ENDBRANCH  12  13
BRANCH   7  19
ATOM     19  N   UNL     1       5.066  -4.339  -0.077  0.00  0.00    -0.317 N 
ATOM     20  H   UNL     1       4.234  -4.831  -0.162  0.00  0.00    +0.149 HD
BRANCH  19  21
ATOM     21  C   UNL     1       6.346  -5.029  -0.255  0.00  0.00    +0.235 C 
ATOM     22  C   UNL     1       6.113  -6.357  -0.980  0.00  0.00    +0.192 C 
ATOM     23  C   UNL     1       7.447  -7.100  -1.107  0.00  0.00    +0.178 C 
ATOM     24  C   UNL     1       8.046  -7.297   0.289  0.00  0.00    +0.171 C 
ATOM     25  C   UNL     1       8.203  -5.932   0.964  0.00  0.00    +0.196 C 
ATOM     26  O   UNL     1       6.932  -5.281   1.024  0.00  0.00    -0.354 OA
BRANCH  24  27
ATOM     27  O   UNL     1       7.176  -8.118   1.070  0.00  0.00    -0.387 OA
ATOM     28  H   UNL     1       7.491  -8.281   1.970  0.00  0.00    +0.210 HD
ENDBRANCH  24  27
BRANCH  23  29
ATOM     29  O   UNL     1       7.230  -8.374  -1.718  0.00  0.00    -0.386 OA
ATOM     30  H   UNL     1       8.033  -8.901  -1.824  0.00  0.00    +0.210 HD
ENDBRANCH  23  29
BRANCH  22  31
ATOM     31  O   UNL     1       5.581  -6.104  -2.281  0.00  0.00    -0.385 OA
ATOM     32  H   UNL     1       4.737  -5.631  -2.276  0.00  0.00    +0.210 HD
ENDBRANCH  22  31
ENDBRANCH  19  21
ENDBRANCH   7  19
TORSDOF 6
