REMARK  Name = ZINC14315805
REMARK  11 active torsions:
REMARK  status: ('A' for Active; 'I' for Inactive)
REMARK    1  A    between atoms: C_1  and  C_2
REMARK    2  A    between atoms: C_4  and  C_8
REMARK    3  A    between atoms: C_5  and  C_7
REMARK    4  A    between atoms: C_10  and  C_18
REMARK    5  A    between atoms: C_12  and  C_17
REMARK    6  A    between atoms: N_20  and  N_21
REMARK    7  A    between atoms: N_21  and  C_22
REMARK    8  A    between atoms: C_22  and  N_24
REMARK    9  A    between atoms: N_24  and  C_25
REMARK   10  A    between atoms: C_25  and  C_26
REMARK   11  A    between atoms: C_25  and  C_27
REMARK                            x       y       z     vdW  Elec       q    Type
REMARK                         _______ _______ _______ _____ _____    ______ ____
ROOT
ATOM      1  C   UNL     1       1.214   2.107  -0.542  0.00  0.00    +0.079 A 
ATOM      2  C   UNL     1       0.001   1.418  -0.635  0.00  0.00    +0.042 A 
ATOM      3  C   UNL     1      -0.009   0.038  -0.465  0.00  0.00    +0.054 A 
ATOM      4  C   UNL     1       1.220  -0.604  -0.204  0.00  0.00    +0.076 A 
ATOM      5  C   UNL     1       1.609  -1.994   0.027  0.00  0.00    +0.091 A 
ATOM      6  N   UNL     1       2.893  -2.011   0.218  0.00  0.00    -0.080 NA
ATOM      7  O   UNL     1       3.406  -0.697   0.130  0.00  0.00    -0.334 OA
ATOM      8  C   UNL     1       2.397   0.161  -0.126  0.00  0.00    +0.260 A 
ATOM      9  N   UNL     1       2.350   1.473  -0.295  0.00  0.00    -0.210 NA
ATOM     10  C   UNL     1       0.689  -3.188   0.040  0.00  0.00    +0.070 C 
ENDROOT
BRANCH   1  14
ATOM     11  C   UNL     1      -0.237   6.937  -1.358  0.00  0.00    +0.086 C 
ATOM     12  C   UNL     1       0.571   5.695  -1.084  0.00  0.00    +0.103 A 
ATOM     13  C   UNL     1       0.080   4.448  -1.001  0.00  0.00    +0.054 A 
ATOM     14  C   UNL     1       1.229   3.577  -0.723  0.00  0.00    +0.041 A 
ATOM     15  C   UNL     1       2.309   4.401  -0.661  0.00  0.00    +0.111 A 
ATOM     16  O   UNL     1       1.897   5.657  -0.884  0.00  0.00    -0.464 OA
ATOM     17  C   UNL     1       3.728   3.974  -0.391  0.00  0.00    +0.087 C 
ENDBRANCH   1  14
BRANCH   3  18
ATOM     18  C   UNL     1      -1.268  -0.734  -0.555  0.00  0.00    +0.261 C 
ATOM     19  O   UNL     1      -1.266  -1.847  -1.042  0.00  0.00    -0.269 OA
ATOM     20  N   UNL     1      -2.419  -0.202  -0.096  0.00  0.00    -0.231 N 
ATOM     21  H   UNL     1      -2.421   0.686   0.293  0.00  0.00    +0.173 HD
BRANCH  20  22
ATOM     22  N   UNL     1      -3.611  -0.932  -0.181  0.00  0.00    -0.246 N 
ATOM     23  H   UNL     1      -3.609  -1.821  -0.571  0.00  0.00    +0.172 HD
BRANCH  22  24
ATOM     24  C   UNL     1      -4.761  -0.400   0.278  0.00  0.00    +0.147 C 
ATOM     25  S   UNL     1      -6.219  -1.293   0.173  0.00  0.00    -0.017 S 
BRANCH  24  26
ATOM     26  N   UNL     1      -4.764   0.834   0.818  0.00  0.00    -0.323 N 
ATOM     27  H   UNL     1      -3.939   1.340   0.877  0.00  0.00    +0.148 HD
BRANCH  26  28
ATOM     28  C   UNL     1      -6.015   1.412   1.317  0.00  0.00    +0.066 C 
ATOM     29  C   UNL     1      -5.701   2.458   2.389  0.00  0.00    +0.027 C 
ATOM     30  C   UNL     1      -6.766   2.076   0.162  0.00  0.00    +0.027 C 
ENDBRANCH  26  28
ENDBRANCH  24  26
ENDBRANCH  22  24
ENDBRANCH  20  22
ENDBRANCH   3  18
TORSDOF 6
