REMARK  Name = ZINC33433989
REMARK  5 active torsions:
REMARK  status: ('A' for Active; 'I' for Inactive)
REMARK    1  A    between atoms: C_1  and  C_2
REMARK    2  A    between atoms: C_12  and  C_15
REMARK    3  A    between atoms: N_17  and  N_18
REMARK    4  A    between atoms: C_19  and  C_20
REMARK    5  A    between atoms: C_23  and  N_26
REMARK                            x       y       z     vdW  Elec       q    Type
REMARK                         _______ _______ _______ _____ _____    ______ ____
ROOT
ATOM      1  C   UNL     1      -0.731   1.579  -1.222  0.00  0.00    +0.252 C 
ATOM      2  O   UNL     1      -1.482   2.529  -1.145  0.00  0.00    -0.272 OA
ATOM      3  N   UNL     1      -0.537   0.966  -2.406  0.00  0.00    -0.206 N 
ATOM      4  H   UNL     1       0.144   0.106  -2.476  0.00  0.00    +0.177 HD
ENDROOT
BRANCH   1  15
ATOM      5  C   UNL     1       1.719  -1.376   5.323  0.00  0.00    +0.060 C 
ATOM      6  C   UNL     1       0.956  -0.466   4.395  0.00  0.00    +0.008 C 
ATOM      7  C   UNL     1      -0.240  -0.847   3.897  0.00  0.00    +0.087 C 
ATOM      8  C   UNL     1      -0.888  -0.029   2.943  0.00  0.00    +0.257 C 
ATOM      9  O   UNL     1      -2.059  -0.226   2.673  0.00  0.00    -0.269 OA
ATOM     10  N   UNL     1      -0.223   0.963   2.334  0.00  0.00    -0.203 N 
ATOM     11  C   UNL     1       1.103   1.398   2.798  0.00  0.00    +0.237 C 
ATOM     12  N   UNL     1       1.467   0.754   4.048  0.00  0.00    -0.320 N 
ATOM     13  S   UNL     1       2.286   0.984   1.478  0.00  0.00    -0.116 S 
ATOM     14  C   UNL     1       1.427   1.611  -0.003  0.00  0.00    +0.102 C 
ATOM     15  C   UNL     1      -0.013   1.086   0.008  0.00  0.00    +0.170 C 
ATOM     16  N   UNL     1      -0.726   1.554   1.204  0.00  0.00    -0.223 NA
ATOM     17  H   UNL     1       2.168   1.248   4.738  0.00  0.00    +0.148 HD
ATOM     18  H   UNL     1      -0.690   2.560   1.276  0.00  0.00    +0.145 HD
ENDBRANCH   1  15
BRANCH   3  19
ATOM     19  N   UNL     1      -1.205   1.425  -3.550  0.00  0.00    -0.188 NA
ATOM     20  C   UNL     1      -1.019   0.835  -4.690  0.00  0.00    +0.138 C 
BRANCH  20  21
ATOM     21  C   UNL     1      -1.721   1.318  -5.894  0.00  0.00    -0.005 A 
ATOM     22  C   UNL     1      -2.592   2.407  -5.808  0.00  0.00    +0.012 A 
ATOM     23  C   UNL     1      -3.241   2.857  -6.939  0.00  0.00    +0.033 A 
ATOM     24  C   UNL     1      -3.041   2.225  -8.153  0.00  0.00    +0.126 A 
ATOM     25  C   UNL     1      -2.184   1.142  -8.244  0.00  0.00    +0.033 A 
ATOM     26  C   UNL     1      -1.524   0.685  -7.123  0.00  0.00    +0.012 A 
BRANCH  24  27
ATOM     27  N   UNL     1      -3.747   2.709  -9.361  0.00  0.00    +0.056 N 
ATOM     28  O   UNL     1      -3.572   2.155 -10.431  0.00  0.00    -0.126 OA
ATOM     29  O   UNL     1      -4.502   3.662  -9.284  0.00  0.00    -0.126 OA
ENDBRANCH  24  27
ENDBRANCH  20  21
ENDBRANCH   3  19
TORSDOF 4
