REMARK  Name = ZINC38777288
REMARK  4 active torsions:
REMARK  status: ('A' for Active; 'I' for Inactive)
REMARK    1  A    between atoms: C_5  and  C_7
REMARK    2  A    between atoms: C_11  and  C_13
REMARK    3  A    between atoms: C_13  and  S_14
REMARK    4  A    between atoms: S_14  and  C_15
REMARK                            x       y       z     vdW  Elec       q    Type
REMARK                         _______ _______ _______ _____ _____    ______ ____
ROOT
ATOM      1  C   UNL     1       1.229  -2.186  -0.022  0.00  0.00    +0.310 C 
ATOM      2  N   UNL     1      -0.112  -2.719  -0.324  0.00  0.00    -0.224 N 
ATOM      3  N   UNL     1      -0.475  -3.467   0.805  0.00  0.00    -0.149 NA
ATOM      4  C   UNL     1       0.455  -3.432   1.685  0.00  0.00    +0.217 C 
ATOM      5  O   UNL     1       1.520  -2.693   1.289  0.00  0.00    -0.451 OA
ATOM      6  H   UNL     1      -0.631  -2.582  -1.131  0.00  0.00    +0.172 HD
ENDROOT
BRANCH   1  11
ATOM      7  C   UNL     1      -0.017   1.378   0.010  0.00  0.00    +0.001 A 
ATOM      8  C   UNL     1       1.171   2.086   0.002  0.00  0.00    +0.001 A 
ATOM      9  C   UNL     1       2.377   1.412  -0.013  0.00  0.00    +0.016 A 
ATOM     10  C   UNL     1       2.397   0.029  -0.021  0.00  0.00    +0.026 A 
ATOM     11  C   UNL     1       1.208  -0.679  -0.013  0.00  0.00    +0.026 A 
ATOM     12  C   UNL     1       0.002  -0.004   0.002  0.00  0.00    +0.010 A 
ATOM     13 BR   UNL     1       4.047  -0.894  -0.042  0.00  0.00    -0.050 Br
ENDBRANCH   1  11
BRANCH   4  14
ATOM     14  C   UNL     1       0.376  -4.135   3.016  0.00  0.00    +0.174 C 
BRANCH  14  15
ATOM     15  S   UNL     1      -1.210  -5.007   3.144  0.00  0.00    -0.078 S 
BRANCH  15  16
ATOM     16  C   UNL     1      -1.150  -5.768   4.733  0.00  0.00    +0.168 A 
ATOM     17  N   UNL     1      -0.150  -5.676   5.575  0.00  0.00    -0.222 NA
ATOM     18  C   UNL     1      -0.435  -6.382   6.700  0.00  0.00    +0.090 A 
ATOM     19  C   UNL     1       0.262  -6.617   7.888  0.00  0.00    +0.030 A 
ATOM     20  C   UNL     1      -0.305  -7.396   8.871  0.00  0.00    +0.002 A 
ATOM     21  C   UNL     1      -1.564  -7.949   8.692  0.00  0.00    +0.002 A 
ATOM     22  C   UNL     1      -2.266  -7.727   7.525  0.00  0.00    +0.028 A 
ATOM     23  C   UNL     1      -1.710  -6.945   6.524  0.00  0.00    +0.067 A 
ATOM     24  N   UNL     1      -2.143  -6.536   5.273  0.00  0.00    -0.333 N 
ATOM     25  H   UNL     1      -2.991  -6.757   4.857  0.00  0.00    +0.168 HD
ENDBRANCH  15  16
ENDBRANCH  14  15
ENDBRANCH   4  14
TORSDOF 4
