REMARK  Name = ZINC32788715
REMARK  10 active torsions:
REMARK  status: ('A' for Active; 'I' for Inactive)
REMARK    1  A    between atoms: C_1  and  C_2
REMARK    2  A    between atoms: C_5  and  C_7
REMARK    3  A    between atoms: C_7  and  C_8
REMARK    4  A    between atoms: C_7  and  C_28
REMARK    5  A    between atoms: C_7  and  O_32
REMARK    6  A    between atoms: C_8  and  C_9
REMARK    7  A    between atoms: C_9  and  N_10
REMARK    8  A    between atoms: C_11  and  C_13
REMARK    9  A    between atoms: C_13  and  C_14
REMARK   10  A    between atoms: C_14  and  N_15
REMARK                            x       y       z     vdW  Elec       q    Type
REMARK                         _______ _______ _______ _____ _____    ______ ____
ROOT
ATOM      1  N   UNL     1      -0.266   1.374  -2.439  0.00  0.00    -0.315 N 
ATOM      2  C   UNL     1      -0.610   1.854  -1.227  0.00  0.00    +0.215 C 
ATOM      3  O   UNL     1      -1.443   2.731  -1.136  0.00  0.00    -0.276 OA
ATOM      4  H   UNL     1       0.490   0.579  -2.521  0.00  0.00    +0.149 HD
ENDROOT
BRANCH   1   5
ATOM      5  C   UNL     1      -0.899   1.912  -3.646  0.00  0.00    +0.107 C 
BRANCH   5   6
ATOM      6  C   UNL     1      -0.334   1.200  -4.877  0.00  0.00    +0.071 C 
BRANCH   6   7
ATOM      7  C   UNL     1      -1.088   1.665  -6.125  0.00  0.00    +0.220 C 
BRANCH   7  12
ATOM      8  C   UNL     1      -5.318  -0.725  -4.768  0.00  0.00    +0.086 C 
ATOM      9  C   UNL     1      -4.388   0.281  -5.396  0.00  0.00    +0.102 A 
ATOM     10  C   UNL     1      -4.759   1.334  -6.146  0.00  0.00    +0.045 A 
ATOM     11  C   UNL     1      -3.573   2.004  -6.527  0.00  0.00    +0.048 A 
ATOM     12  C   UNL     1      -2.549   1.320  -5.987  0.00  0.00    +0.146 A 
ATOM     13  O   UNL     1      -3.048   0.274  -5.308  0.00  0.00    -0.462 OA
ENDBRANCH   7  12
BRANCH   7  14
ATOM     14  C   UNL     1      -0.514   0.965  -7.358  0.00  0.00    +0.425 C 
ATOM     15  F   UNL     1      -0.689  -0.417  -7.234  0.00  0.00    -0.167 F 
ATOM     16  F   UNL     1      -1.178   1.418  -8.503  0.00  0.00    -0.167 F 
ATOM     17  F   UNL     1       0.851   1.255  -7.465  0.00  0.00    -0.167 F 
ENDBRANCH   7  14
BRANCH   7  18
ATOM     18  O   UNL     1      -0.945   3.079  -6.270  0.00  0.00    -0.373 OA
ATOM     19  H   UNL     1       0.056   3.522  -6.384  0.00  0.00    +0.211 HD
ENDBRANCH   7  18
ENDBRANCH   6   7
ENDBRANCH   5   6
ENDBRANCH   1   5
BRANCH   2  20
ATOM     20  C   UNL     1       0.041   1.301   0.015  0.00  0.00    +0.117 C 
BRANCH  20  21
ATOM     21  C   UNL     1      -0.524   2.013   1.246  0.00  0.00    +0.136 C 
BRANCH  21  22
ATOM     22  N   UNL     1       0.109   1.475   2.453  0.00  0.00    -0.293 N 
ATOM     23  C   UNL     1       1.273   2.056   2.936  0.00  0.00    +0.059 A 
ATOM     24  C   UNL     1       1.860   3.140   2.301  0.00  0.00    +0.027 A 
ATOM     25  C   UNL     1       3.019   3.689   2.814  0.00  0.00    +0.002 A 
ATOM     26  C   UNL     1       3.602   3.166   3.959  0.00  0.00    +0.001 A 
ATOM     27  C   UNL     1       3.032   2.088   4.603  0.00  0.00    +0.015 A 
ATOM     28  C   UNL     1       1.863   1.525   4.096  0.00  0.00    +0.063 A 
ATOM     29  C   UNL     1       1.213   0.372   4.744  0.00  0.00    +0.262 A 
ATOM     30  O   UNL     1       1.683  -0.124   5.750  0.00  0.00    -0.267 OA
ATOM     31  N   UNL     1       0.082  -0.118   4.192  0.00  0.00    -0.274 N 
ATOM     32  H   UNL     1      -0.425  -0.980   4.651  0.00  0.00    +0.173 HD
ATOM     33  C   UNL     1      -0.447   0.427   3.086  0.00  0.00    +0.330 A 
ATOM     34  O   UNL     1      -1.469  -0.050   2.633  0.00  0.00    -0.246 OA
ENDBRANCH  21  22
ENDBRANCH  20  21
ENDBRANCH   2  20
TORSDOF 9
