REMARK  Name = ZINC40569125
REMARK  9 active torsions:
REMARK  status: ('A' for Active; 'I' for Inactive)
REMARK    1  A    between atoms: C_1  and  C_2
REMARK    2  A    between atoms: C_2  and  C_3
REMARK    3  A    between atoms: C_3  and  C_4
REMARK    4  A    between atoms: N_10  and  C_11
REMARK    5  A    between atoms: C_12  and  C_20
REMARK    6  A    between atoms: C_14  and  C_18
REMARK    7  A    between atoms: C_15  and  N_17
REMARK    8  A    between atoms: C_23  and  O_26
REMARK    9  A    between atoms: O_26  and  C_27
REMARK                            x       y       z     vdW  Elec       q    Type
REMARK                         _______ _______ _______ _____ _____    ______ ____
ROOT
ATOM      1  C   UNL     1       0.647  -2.034   1.057  0.00  0.00    +0.025 A 
ATOM      2  C   UNL     1       1.668  -2.683   0.456  0.00  0.00    +0.068 A 
ATOM      3  C   UNL     1       1.809  -4.076   0.625  0.00  0.00    +0.141 A 
ATOM      4  C   UNL     1       0.895  -4.750   1.406  0.00  0.00    +0.072 A 
ATOM      5  C   UNL     1      -0.148  -4.035   2.010  0.00  0.00    +0.259 A 
ATOM      6  O   UNL     1      -0.964  -4.619   2.706  0.00  0.00    -0.267 OA
ATOM      7  N   UNL     1      -0.246  -2.705   1.830  0.00  0.00    -0.315 N 
ATOM      8  C   UNL     1      -1.338  -1.969   2.473  0.00  0.00    +0.152 C 
ATOM      9  C   UNL     1       1.006  -6.236   1.612  0.00  0.00    +0.103 C 
ATOM     10  C   UNL     1       2.378  -6.711   1.220  0.00  0.00    +0.098 C 
ATOM     11  C   UNL     1       3.197  -5.944   0.462  0.00  0.00    +0.199 C 
ATOM     12  O   UNL     1       2.828  -4.727   0.025  0.00  0.00    -0.441 OA
ENDROOT
BRANCH   9  13
ATOM     13  C   UNL     1      -0.023  -6.936   0.764  0.00  0.00    -0.034 A 
ATOM     14  C   UNL     1      -0.001  -6.789  -0.611  0.00  0.00    +0.008 A 
ATOM     15  C   UNL     1      -0.944  -7.430  -1.390  0.00  0.00    +0.046 A 
ATOM     16  C   UNL     1      -1.914  -8.223  -0.793  0.00  0.00    +0.120 A 
ATOM     17  C   UNL     1      -1.934  -8.369   0.587  0.00  0.00    +0.046 A 
ATOM     18  C   UNL     1      -0.985  -7.730   1.361  0.00  0.00    +0.008 A 
BRANCH  16  19
ATOM     19  O   UNL     1      -2.843  -8.854  -1.558  0.00  0.00    -0.495 OA
ATOM     20  C   UNL     1      -3.812  -9.653  -0.875  0.00  0.00    +0.277 C 
ENDBRANCH  16  19
ENDBRANCH   9  13
BRANCH  11  21
ATOM     21  N   UNL     1       4.440  -6.422   0.131  0.00  0.00    -0.328 N 
ATOM     22  H   UNL     1       4.720  -7.299   0.438  0.00  0.00    +0.145 HD
ATOM     23  H   UNL     1       5.038  -5.885  -0.412  0.00  0.00    +0.145 HD
ENDBRANCH  11  21
BRANCH  10  24
ATOM     24  C   UNL     1       2.827  -7.998   1.657  0.00  0.00    +0.101 C 
ATOM     25  N   UNL     1       3.183  -9.020   2.003  0.00  0.00    -0.191 NA
ENDBRANCH  10  24
BRANCH   1  26
ATOM     26  C   UNL     1       0.501  -0.546   0.872  0.00  0.00    +0.053 C 
BRANCH  26  28
ATOM     27  C   UNL     1       1.121   1.694   1.789  0.00  0.00    +0.004 C 
ATOM     28  C   UNL     1       1.270   0.183   1.976  0.00  0.00    +0.003 C 
ENDBRANCH  26  28
ENDBRANCH   1  26
TORSDOF 6
