REMARK  Name = ZINC00306709
REMARK  6 active torsions:
REMARK  status: ('A' for Active; 'I' for Inactive)
REMARK    1  A    between atoms: C_1  and  C_2
REMARK    2  A    between atoms: C_2  and  C_4
REMARK    3  A    between atoms: C_8  and  N_10
REMARK    4  A    between atoms: C_11  and  C_13
REMARK    5  A    between atoms: C_14  and  C_15
REMARK    6  A    between atoms: C_19  and  N_21
REMARK                            x       y       z     vdW  Elec       q    Type
REMARK                         _______ _______ _______ _____ _____    ______ ____
ROOT
ATOM      1  N   UNL     1      -0.016   1.344   0.009  0.00  0.00    -0.282 N 
ATOM      2  C   UNL     1       0.156   0.020  -0.175  0.00  0.00    +0.241 C 
ATOM      3  O   UNL     1       1.260  -0.420  -0.440  0.00  0.00    -0.270 OA
ATOM      4  H   UNL     1      -0.907   1.703   0.140  0.00  0.00    +0.155 HD
ENDROOT
BRANCH   1   9
ATOM      5  C   UNL     1       3.411   2.616   0.493  0.00  0.00    +0.019 A 
ATOM      6  C   UNL     1       3.275   3.916  -0.006  0.00  0.00    +0.011 A 
ATOM      7  C   UNL     1       2.057   4.344  -0.490  0.00  0.00    +0.002 A 
ATOM      8  C   UNL     1       0.967   3.493  -0.486  0.00  0.00    +0.023 A 
ATOM      9  C   UNL     1       1.090   2.199   0.007  0.00  0.00    +0.034 A 
ATOM     10  C   UNL     1       2.307   1.759   0.502  0.00  0.00    +0.034 A 
BRANCH   5  12
ATOM     11  C   UNL     1       5.895   3.086   1.006  0.00  0.00    +0.091 C 
ATOM     12  C   UNL     1       4.709   2.156   1.012  0.00  0.00    +0.160 C 
ATOM     13  O   UNL     1       4.824   1.029   1.444  0.00  0.00    -0.292 OA
ENDBRANCH   5  12
ENDBRANCH   1   9
BRANCH   2  14
ATOM     14  C   UNL     1      -0.985  -0.890  -0.059  0.00  0.00    +0.068 C 
ATOM     15  C   UNL     1      -0.813  -2.214  -0.244  0.00  0.00    +0.013 C 
BRANCH  15  16
ATOM     16  C   UNL     1      -1.960  -3.129  -0.126  0.00  0.00    -0.023 A 
ATOM     17  C   UNL     1      -3.231  -2.627   0.177  0.00  0.00    +0.009 A 
ATOM     18  C   UNL     1      -4.300  -3.489   0.285  0.00  0.00    +0.023 A 
ATOM     19  C   UNL     1      -4.120  -4.850   0.094  0.00  0.00    +0.071 A 
ATOM     20  C   UNL     1      -2.865  -5.354  -0.206  0.00  0.00    +0.145 A 
ATOM     21  C   UNL     1      -1.787  -4.502  -0.323  0.00  0.00    +0.042 A 
ATOM     22 CL   UNL     1      -5.473  -5.928   0.233  0.00  0.00    -0.081 Cl
BRANCH  20  23
ATOM     23  N   UNL     1      -2.682  -6.809  -0.407  0.00  0.00    +0.058 N 
ATOM     24  O   UNL     1      -1.579  -7.253  -0.671  0.00  0.00    -0.126 OA
ATOM     25  O   UNL     1      -3.635  -7.561  -0.308  0.00  0.00    -0.126 OA
ENDBRANCH  20  23
ENDBRANCH  15  16
ENDBRANCH   2  14
TORSDOF 5
