REMARK  Name = ZINC14476180
REMARK  5 active torsions:
REMARK  status: ('A' for Active; 'I' for Inactive)
REMARK    1  A    between atoms: C_1  and  C_2
REMARK    2  A    between atoms: C_8  and  C_10
REMARK    3  A    between atoms: C_23  and  C_26
REMARK    4  A    between atoms: C_28  and  N_33
REMARK    5  A    between atoms: C_31  and  O_32
REMARK                            x       y       z     vdW  Elec       q    Type
REMARK                         _______ _______ _______ _____ _____    ______ ____
ROOT
ATOM      1  C   UNL     1      -0.229  -4.048   3.015  0.00  0.00    +0.037 A 
ATOM      2  C   UNL     1       1.079  -3.595   3.214  0.00  0.00    +0.015 A 
ATOM      3  C   UNL     1       1.849  -4.139   4.213  0.00  0.00    +0.024 A 
ATOM      4  C   UNL     1       1.341  -5.145   5.032  0.00  0.00    +0.031 A 
ATOM      5  C   UNL     1       0.033  -5.607   4.823  0.00  0.00    -0.019 A 
ATOM      6  C   UNL     1      -0.745  -5.055   3.835  0.00  0.00    +0.019 A 
ATOM      7  C   UNL     1      -0.450  -6.703   5.692  0.00  0.00    +0.049 C 
ATOM      8  C   UNL     1      -1.892  -6.886   5.997  0.00  0.00    -0.023 C 
ATOM      9  C   UNL     1      -2.006  -7.408   7.212  0.00  0.00    -0.030 C 
ATOM     10  C   UNL     1      -0.620  -7.587   7.836  0.00  0.00    +0.033 C 
ATOM     11  C   UNL     1       0.170  -6.497   7.106  0.00  0.00    +0.029 C 
ATOM     12  C   UNL     1       1.658  -6.743   6.935  0.00  0.00    +0.108 C 
ATOM     13  N   UNL     1       2.142  -5.661   6.050  0.00  0.00    -0.336 N 
ATOM     14  H   UNL     1       3.034  -5.304   6.180  0.00  0.00    +0.147 HD
ENDROOT
BRANCH   1  22
ATOM     15  C   UNL     1       0.008  -5.192  -3.108  0.00  0.00    +0.007 C 
ATOM     16  C   UNL     1       0.008  -4.194  -1.949  0.00  0.00    -0.011 C 
ATOM     17  C   UNL     1       0.767  -4.792  -0.762  0.00  0.00    +0.022 C 
ATOM     18  C   UNL     1       0.795  -3.776   0.385  0.00  0.00    +0.108 C 
ATOM     19  N   UNL     1      -0.584  -3.371   0.692  0.00  0.00    -0.298 N 
ATOM     20  C   UNL     1      -1.431  -2.866  -0.398  0.00  0.00    +0.108 C 
ATOM     21  C   UNL     1      -1.434  -3.892  -1.536  0.00  0.00    +0.022 C 
ATOM     22  C   UNL     1      -1.063  -3.461   1.948  0.00  0.00    +0.247 C 
ATOM     23  O   UNL     1      -2.181  -3.058   2.203  0.00  0.00    -0.270 OA
ENDBRANCH   1  22
BRANCH  12  24
ATOM     24  C   UNL     1       2.354  -6.676   8.270  0.00  0.00    +0.017 A 
ATOM     25  C   UNL     1       2.935  -5.495   8.689  0.00  0.00    +0.041 A 
ATOM     26  C   UNL     1       3.573  -5.433   9.914  0.00  0.00    +0.127 A 
ATOM     27  C   UNL     1       3.632  -6.554  10.723  0.00  0.00    +0.036 A 
ATOM     28  C   UNL     1       3.052  -7.737  10.308  0.00  0.00    +0.048 A 
ATOM     29  C   UNL     1       2.406  -7.800   9.082  0.00  0.00    +0.122 A 
BRANCH  26  30
ATOM     30  N   UNL     1       4.195  -4.167  10.360  0.00  0.00    +0.056 N 
ATOM     31  O   UNL     1       4.144  -3.187   9.654  0.00  0.00    -0.126 OA
ATOM     32  O   UNL     1       4.753  -4.112  11.431  0.00  0.00    -0.126 OA
ENDBRANCH  26  30
BRANCH  29  33
ATOM     33  O   UNL     1       1.831  -8.962   8.674  0.00  0.00    -0.506 OA
ATOM     34  H   UNL     1       2.424  -9.539   8.174  0.00  0.00    +0.292 HD
ENDBRANCH  29  33
ENDBRANCH  12  24
TORSDOF 4
