REMARK  Name = ZINC03021337
REMARK  3 active torsions:
REMARK  status: ('A' for Active; 'I' for Inactive)
REMARK    1  A    between atoms: C_8  and  C_10
REMARK    2  A    between atoms: C_10  and  C_20
REMARK    3  A    between atoms: C_11  and  N_12
REMARK                            x       y       z     vdW  Elec       q    Type
REMARK                         _______ _______ _______ _____ _____    ______ ____
ROOT
ATOM      1  C   UNL     1       2.118   5.517   0.011  0.00  0.00    +0.127 C 
ATOM      2  C   UNL     1       2.183   4.153   0.004  0.00  0.00    +0.097 C 
ENDROOT
BRANCH   1  10
ATOM      3  C   UNL     1       7.484   8.132  -0.022  0.00  0.00    +0.002 A 
ATOM      4  C   UNL     1       6.739   9.302  -0.009  0.00  0.00    +0.004 A 
ATOM      5  C   UNL     1       5.359   9.253   0.002  0.00  0.00    +0.048 A 
ATOM      6  C   UNL     1       4.711   8.028   0.001  0.00  0.00    +0.156 A 
ATOM      7  C   UNL     1       5.462   6.842  -0.012  0.00  0.00    +0.110 A 
ATOM      8  C   UNL     1       6.857   6.906  -0.023  0.00  0.00    +0.031 A 
ATOM      9  N   UNL     1       4.571   5.816  -0.005  0.00  0.00    -0.208 NA
ATOM     10  C   UNL     1       3.357   6.313   0.004  0.00  0.00    +0.240 A 
ATOM     11  O   UNL     1       3.410   7.659   0.011  0.00  0.00    -0.435 OA
ENDBRANCH   1  10
BRANCH   2  12
ATOM     12  N   UNL     1       1.035   3.416   0.011  0.00  0.00    -0.304 N 
ATOM     13  C   UNL     1       1.102   2.025   0.002  0.00  0.00    +0.123 A 
ATOM     14  C   UNL     1       2.341   1.394  -0.013  0.00  0.00    +0.045 A 
ATOM     15  C   UNL     1       2.393   0.012  -0.020  0.00  0.00    +0.020 A 
ATOM     16  C   UNL     1       1.198  -0.696  -0.013  0.00  0.00    +0.036 A 
ATOM     17  C   UNL     1       0.002  -0.004   0.002  0.00  0.00    +0.128 A 
ATOM     18  N   UNL     1      -0.016   1.315   0.009  0.00  0.00    -0.239 NA
ATOM     19 BR   UNL     1       1.207  -2.587  -0.022  0.00  0.00    -0.049 Br
ATOM     20  H   UNL     1       0.173   3.860   0.021  0.00  0.00    +0.153 HD
ENDBRANCH   2  12
BRANCH   1  21
ATOM     21  C   UNL     1       0.845   6.173   0.027  0.00  0.00    +0.106 C 
ATOM     22  N   UNL     1      -0.164   6.693   0.040  0.00  0.00    -0.191 NA
ENDBRANCH   1  21
TORSDOF 3
