REMARK  Name = ZINC65523573
REMARK  8 active torsions:
REMARK  status: ('A' for Active; 'I' for Inactive)
REMARK    1  A    between atoms: C_1  and  C_2
REMARK    2  A    between atoms: C_2  and  C_3
REMARK    3  A    between atoms: C_2  and  N_9
REMARK    4  A    between atoms: C_12  and  N_14
REMARK    5  A    between atoms: N_17  and  C_18
REMARK    6  A    between atoms: C_18  and  C_19
REMARK    7  A    between atoms: C_19  and  C_20
REMARK    8  A    between atoms: C_19  and  O_27
REMARK                            x       y       z     vdW  Elec       q    Type
REMARK                         _______ _______ _______ _____ _____    ______ ____
ROOT
ATOM      1  N   UNL     1       2.643  -3.505   1.607  0.00  0.00    -0.298 N 
ATOM      2  C   UNL     1       3.405  -4.250   2.433  0.00  0.00    +0.300 C 
ATOM      3  O   UNL     1       3.506  -3.945   3.606  0.00  0.00    -0.253 OA
ATOM      4  N   UNL     1       4.054  -5.332   1.959  0.00  0.00    -0.297 N 
ATOM      5  H   UNL     1       2.563  -3.748   0.671  0.00  0.00    +0.150 HD
ATOM      6  H   UNL     1       3.974  -5.574   1.023  0.00  0.00    +0.150 HD
ENDROOT
BRANCH   1  10
ATOM      7  N   UNL     1       0.713  -0.491   1.192  0.00  0.00    +0.385 N 
ATOM      8  C   UNL     1       2.143  -0.094   1.141  0.00  0.00    -0.076 C 
ATOM      9  C   UNL     1       2.857  -1.091   2.079  0.00  0.00    +0.002 C 
ATOM     10  C   UNL     1       1.938  -2.329   2.122  0.00  0.00    +0.056 C 
ATOM     11  C   UNL     1       0.746  -1.976   1.206  0.00  0.00    -0.056 C 
ATOM     12  H   UNL     1       0.277  -0.140   2.032  0.00  0.00    -0.081 HD
BRANCH   7  14
ATOM     13  C   UNL     1      -0.019   1.526   0.010  0.00  0.00    -0.008 C 
ATOM     14  C   UNL     1       0.002  -0.004   0.002  0.00  0.00    -0.041 C 
BRANCH  14  15
ATOM     15  C   UNL     1      -1.412  -0.526   0.013  0.00  0.00    -0.061 A 
ATOM     16  C   UNL     1      -2.123  -0.571   1.197  0.00  0.00    +0.002 A 
ATOM     17  C   UNL     1      -3.420  -1.049   1.207  0.00  0.00    +0.000 A 
ATOM     18  C   UNL     1      -4.006  -1.482   0.032  0.00  0.00    +0.000 A 
ATOM     19  C   UNL     1      -3.295  -1.436  -1.153  0.00  0.00    +0.000 A 
ATOM     20  C   UNL     1      -2.000  -0.954  -1.163  0.00  0.00    +0.002 A 
ENDBRANCH  14  15
ENDBRANCH   7  14
ENDBRANCH   1  10
BRANCH   4  21
ATOM     21  C   UNL     1       4.882  -6.141   2.857  0.00  0.00    +0.141 C 
BRANCH  21  22
ATOM     22  C   UNL     1       5.502  -7.299   2.073  0.00  0.00    +0.162 C 
BRANCH  22  23
ATOM     23  C   UNL     1       6.354  -8.132   2.997  0.00  0.00    -0.018 A 
ATOM     24  C   UNL     1       5.776  -9.134   3.754  0.00  0.00    +0.007 A 
ATOM     25  C   UNL     1       6.556  -9.897   4.601  0.00  0.00    +0.020 A 
ATOM     26  C   UNL     1       7.916  -9.659   4.692  0.00  0.00    +0.041 A 
ATOM     27  C   UNL     1       8.494  -8.655   3.934  0.00  0.00    +0.020 A 
ATOM     28  C   UNL     1       7.713  -7.896   3.083  0.00  0.00    +0.007 A 
ATOM     29 CL   UNL     1       8.897 -10.617   5.757  0.00  0.00    -0.084 Cl
ENDBRANCH  22  23
BRANCH  22  30
ATOM     30  O   UNL     1       4.464  -8.111   1.522  0.00  0.00    -0.386 OA
ATOM     31  H   UNL     1       3.873  -8.498   2.183  0.00  0.00    +0.210 HD
ENDBRANCH  22  30
ENDBRANCH  21  22
ENDBRANCH   4  21
TORSDOF 7
