REMARK  Name = ZINC52813692
REMARK  4 active torsions:
REMARK  status: ('A' for Active; 'I' for Inactive)
REMARK    1  A    between atoms: C_1  and  C_2
REMARK    2  A    between atoms: C_4  and  N_19
REMARK    3  A    between atoms: C_7  and  O_8
REMARK    4  A    between atoms: O_8  and  C_9
REMARK                            x       y       z     vdW  Elec       q    Type
REMARK                         _______ _______ _______ _____ _____    ______ ____
ROOT
ATOM      1  O   UNL     1       0.025  -0.041   2.375  0.00  0.00    -0.436 OA
ENDROOT
BRANCH   1   2
ATOM      2  C   UNL     1       0.054  -0.853   3.464  0.00  0.00    +0.156 A 
ATOM      3  C   UNL     1       0.135  -2.218   3.308  0.00  0.00    +0.048 A 
ATOM      4  C   UNL     1       0.165  -3.062   4.415  0.00  0.00    +0.004 A 
ATOM      5  C   UNL     1       0.115  -2.560   5.680  0.00  0.00    +0.010 A 
ATOM      6  C   UNL     1       0.032  -1.173   5.879  0.00  0.00    +0.004 A 
ATOM      7  C   UNL     1       0.006  -0.303   4.762  0.00  0.00    +0.113 A 
ATOM      8  N   UNL     1      -0.067   1.018   4.948  0.00  0.00    -0.251 NA
ATOM      9  C   UNL     1      -0.112   1.535   6.152  0.00  0.00    +0.111 A 
ATOM     10  C   UNL     1      -0.084   0.737   7.294  0.00  0.00    +0.020 A 
ATOM     11  C   UNL     1      -0.021  -0.622   7.174  0.00  0.00    +0.011 A 
ENDBRANCH   1   2
BRANCH   1  18
ATOM     12  C   UNL     1      -0.041   1.462  -0.015  0.00  0.00    +0.049 C 
ATOM     13  C   UNL     1       1.225   1.229   0.768  0.00  0.00    +0.013 A 
ATOM     14  C   UNL     1       2.426   1.762   0.334  0.00  0.00    +0.032 A 
ATOM     15  C   UNL     1       3.571   1.521   1.091  0.00  0.00    +0.043 A 
ATOM     16  C   UNL     1       3.469   0.760   2.246  0.00  0.00    +0.137 A 
ATOM     17  N   UNL     1       2.307   0.268   2.629  0.00  0.00    -0.219 NA
ATOM     18  C   UNL     1       1.200   0.481   1.938  0.00  0.00    +0.224 A 
BRANCH  15  19
ATOM     19  N   UNL     1       4.808   2.039   0.690  0.00  0.00    -0.357 N 
ATOM     20  H   UNL     1       4.871   2.570  -0.120  0.00  0.00    +0.142 HD
ATOM     21  H   UNL     1       5.601   1.867   1.221  0.00  0.00    +0.142 HD
ENDBRANCH  15  19
ENDBRANCH   1  18
TORSDOF 3
