REMARK  Name = ZINC33419217
REMARK  6 active torsions:
REMARK  status: ('A' for Active; 'I' for Inactive)
REMARK    1  A    between atoms: C_1  and  C_2
REMARK    2  A    between atoms: C_5  and  C_9
REMARK    3  A    between atoms: C_7  and  C_8
REMARK    4  A    between atoms: C_10  and  C_21
REMARK    5  A    between atoms: C_12  and  C_20
REMARK    6  A    between atoms: C_13  and  C_17
REMARK                            x       y       z     vdW  Elec       q    Type
REMARK                         _______ _______ _______ _____ _____    ______ ____
ROOT
ATOM      1  C   UNL     1       0.019  -1.538  -3.250  0.00  0.00    +0.101 A 
ATOM      2  C   UNL     1      -0.207  -0.366  -2.524  0.00  0.00    +0.114 A 
ATOM      3  N   UNL     1      -0.142  -0.716  -1.161  0.00  0.00    -0.287 N 
ATOM      4  C   UNL     1      -0.255  -0.094   0.045  0.00  0.00    +0.042 A 
ATOM      5  C   UNL     1      -0.115  -0.794   1.196  0.00  0.00    +0.096 A 
ATOM      6  S   UNL     1       0.204  -2.440   0.580  0.00  0.00    -0.044 S 
ATOM      7  C   UNL     1       0.126  -2.059  -1.156  0.00  0.00    +0.179 A 
ATOM      8  N   UNL     1       0.214  -2.526  -2.374  0.00  0.00    -0.221 NA
ATOM      9  C   UNL     1      -0.543   1.384   0.100  0.00  0.00    +0.065 C 
ENDROOT
BRANCH   1  14
ATOM     10  C   UNL     1       0.102  -2.017  -8.986  0.00  0.00    +0.044 C 
ATOM     11  C   UNL     1       0.080  -1.891  -7.484  0.00  0.00    -0.047 A 
ATOM     12  C   UNL     1       0.742  -0.842  -6.871  0.00  0.00    +0.004 A 
ATOM     13  C   UNL     1       0.726  -0.722  -5.497  0.00  0.00    +0.010 A 
ATOM     14  C   UNL     1       0.040  -1.661  -4.725  0.00  0.00    +0.003 A 
ATOM     15  C   UNL     1      -0.621  -2.719  -5.349  0.00  0.00    +0.013 A 
ATOM     16  C   UNL     1      -0.602  -2.825  -6.725  0.00  0.00    -0.047 A 
ATOM     17  C   UNL     1      -1.320  -3.964  -7.401  0.00  0.00    +0.044 C 
ENDBRANCH   1  14
BRANCH   5  18
ATOM     18  C   UNL     1      -0.204  -0.324   2.585  0.00  0.00    +0.250 C 
ATOM     19  O   UNL     1      -0.433   0.848   2.817  0.00  0.00    -0.270 OA
ATOM     20  N   UNL     1      -0.033  -1.192   3.602  0.00  0.00    -0.325 N 
ATOM     21  H   UNL     1      -0.099  -0.840   4.642  0.00  0.00    +0.145 HD
ATOM     22  H   UNL     1       0.174  -2.252   3.392  0.00  0.00    +0.145 HD
ENDBRANCH   5  18
BRANCH   2  23
ATOM     23  C   UNL     1      -0.457   0.908  -3.050  0.00  0.00    +0.279 C 
ATOM     24  O   UNL     1      -0.584   1.057  -4.250  0.00  0.00    -0.294 OA
ENDBRANCH   2  23
TORSDOF 3
