REMARK  Name = ZINC39558977
REMARK  8 active torsions:
REMARK  status: ('A' for Active; 'I' for Inactive)
REMARK    1  A    between atoms: C_1  and  C_2
REMARK    2  A    between atoms: C_2  and  N_3
REMARK    3  A    between atoms: N_10  and  C_13
REMARK    4  A    between atoms: C_13  and  C_14
REMARK    5  A    between atoms: C_14  and  C_15
REMARK    6  A    between atoms: N_17  and  C_18
REMARK    7  A    between atoms: C_18  and  C_19
REMARK    8  A    between atoms: N_21  and  C_22
REMARK                            x       y       z     vdW  Elec       q    Type
REMARK                         _______ _______ _______ _____ _____    ______ ____
ROOT
ATOM      1  C   UNL     1      -6.414  -0.824  -2.818  0.00  0.00    +0.215 C 
ATOM      2  O   UNL     1      -6.497  -1.972  -3.200  0.00  0.00    -0.276 OA
ATOM      3  N   UNL     1      -7.323   0.086  -3.221  0.00  0.00    -0.307 N 
ATOM      4  H   UNL     1      -7.257   1.005  -2.916  0.00  0.00    +0.149 HD
ENDROOT
BRANCH   1   5
ATOM      5  C   UNL     1      -5.296  -0.415  -1.895  0.00  0.00    +0.117 C 
BRANCH   5   6
ATOM      6  C   UNL     1      -4.412  -1.628  -1.596  0.00  0.00    +0.136 C 
BRANCH   6  14
ATOM      7  N   UNL     1      -1.371  -0.506   0.011  0.00  0.00    -0.292 N 
ATOM      8  C   UNL     1      -2.126  -0.800   1.144  0.00  0.00    +0.070 A 
ATOM      9  C   UNL     1      -1.872  -0.718   2.505  0.00  0.00    +0.028 A 
ATOM     10  C   UNL     1      -2.847  -1.092   3.409  0.00  0.00    +0.002 A 
ATOM     11  C   UNL     1      -4.076  -1.547   2.964  0.00  0.00    +0.002 A 
ATOM     12  C   UNL     1      -4.338  -1.632   1.610  0.00  0.00    +0.028 A 
ATOM     13  C   UNL     1      -3.366  -1.259   0.694  0.00  0.00    +0.070 A 
ATOM     14  N   UNL     1      -3.325  -1.230  -0.698  0.00  0.00    -0.292 N 
ATOM     15  C   UNL     1      -2.119  -0.769  -1.077  0.00  0.00    +0.330 A 
ATOM     16  O   UNL     1      -1.758  -0.616  -2.229  0.00  0.00    -0.246 OA
BRANCH   7  18
ATOM     17  C   UNL     1      -0.026   1.536   0.023  0.00  0.00    +0.027 C 
ATOM     18  C   UNL     1       0.001   0.007   0.005  0.00  0.00    +0.123 C 
ENDBRANCH   7  18
ENDBRANCH   6  14
ENDBRANCH   5   6
ENDBRANCH   1   5
BRANCH   3  19
ATOM     19  C   UNL     1      -8.410  -0.311  -4.119  0.00  0.00    +0.200 C 
BRANCH  19  20
ATOM     20  C   UNL     1      -9.281   0.883  -4.413  0.00  0.00    +0.234 C 
ATOM     21  O   UNL     1      -9.018   1.961  -3.922  0.00  0.00    -0.274 OA
ATOM     22  N   UNL     1     -10.350   0.754  -5.223  0.00  0.00    -0.284 N 
ATOM     23  H   UNL     1     -10.522  -0.090  -5.670  0.00  0.00    +0.155 HD
BRANCH  22  24
ATOM     24  C   UNL     1     -11.214   1.839  -5.421  0.00  0.00    +0.036 A 
ATOM     25  C   UNL     1     -12.578   1.620  -5.578  0.00  0.00    +0.025 A 
ATOM     26  C   UNL     1     -13.434   2.685  -5.772  0.00  0.00    +0.029 A 
ATOM     27  C   UNL     1     -12.934   3.978  -5.812  0.00  0.00    +0.067 A 
ATOM     28  C   UNL     1     -11.565   4.201  -5.655  0.00  0.00    +0.069 A 
ATOM     29  C   UNL     1     -10.708   3.130  -5.454  0.00  0.00    +0.051 A 
ATOM     30  N   UNL     1     -11.368   5.577  -5.739  0.00  0.00    -0.306 N 
ATOM     31  H   UNL     1     -10.516   6.035  -5.667  0.00  0.00    +0.170 HD
ATOM     32  C   UNL     1     -12.563   6.165  -5.939  0.00  0.00    +0.325 A 
ATOM     33  O   UNL     1     -12.743   7.363  -6.058  0.00  0.00    -0.247 OA
ATOM     34  N   UNL     1     -13.528   5.228  -5.988  0.00  0.00    -0.306 N 
ATOM     35  H   UNL     1     -14.474   5.393  -6.122  0.00  0.00    +0.170 HD
ENDBRANCH  22  24
ENDBRANCH  19  20
ENDBRANCH   3  19
TORSDOF 7
