REMARK  Name = ZINC55223287
REMARK  8 active torsions:
REMARK  status: ('A' for Active; 'I' for Inactive)
REMARK    1  A    between atoms: C_1  and  C_2
REMARK    2  A    between atoms: C_2  and  C_4
REMARK    3  A    between atoms: C_2  and  N_19
REMARK    4  A    between atoms: C_4  and  N_5
REMARK    5  A    between atoms: C_6  and  C_8
REMARK    6  A    between atoms: C_10  and  N_15
REMARK    7  A    between atoms: C_13  and  O_14
REMARK    8  A    between atoms: C_16  and  C_18
REMARK                            x       y       z     vdW  Elec       q    Type
REMARK                         _______ _______ _______ _____ _____    ______ ____
ROOT
ATOM      1  N   UNL     1      -1.312  -2.503   1.026  0.00  0.00    -0.313 N 
ATOM      2  C   UNL     1      -2.358  -3.353   1.052  0.00  0.00    +0.248 C 
ATOM      3  O   UNL     1      -3.477  -2.934   1.277  0.00  0.00    -0.270 OA
ATOM      4  H   UNL     1      -0.420  -2.837   0.846  0.00  0.00    +0.149 HD
ENDROOT
BRANCH   2   5
ATOM      5  C   UNL     1      -2.145  -4.792   0.807  0.00  0.00    +0.080 A 
ATOM      6  C   UNL     1      -0.860  -5.278   0.554  0.00  0.00    +0.040 A 
ATOM      7  C   UNL     1      -0.667  -6.629   0.326  0.00  0.00    +0.034 A 
ATOM      8  C   UNL     1      -1.750  -7.503   0.348  0.00  0.00    +0.027 A 
ATOM      9  C   UNL     1      -3.022  -7.030   0.597  0.00  0.00    +0.048 A 
ATOM     10  C   UNL     1      -3.229  -5.679   0.834  0.00  0.00    +0.129 A 
BRANCH   7  11
ATOM     11  N   UNL     1       0.621  -7.119   0.071  0.00  0.00    -0.286 N 
ATOM     12  C   UNL     1       0.985  -8.331   0.535  0.00  0.00    +0.214 C 
ATOM     13  O   UNL     1       0.172  -9.035   1.096  0.00  0.00    -0.276 OA
ATOM     14  C   UNL     1       2.402  -8.811   0.356  0.00  0.00    +0.109 C 
ATOM     15  H   UNL     1       1.250  -6.585  -0.439  0.00  0.00    +0.155 HD
ENDBRANCH   7  11
BRANCH  10  16
ATOM     16  O   UNL     1      -4.480  -5.216   1.085  0.00  0.00    -0.506 OA
ATOM     17  H   UNL     1      -4.969  -4.954   0.293  0.00  0.00    +0.292 HD
ENDBRANCH  10  16
ENDBRANCH   2   5
BRANCH   1  18
ATOM     18  C   UNL     1      -1.524  -1.073   1.268  0.00  0.00    +0.089 C 
BRANCH  18  20
ATOM     19  C   UNL     1      -0.390   1.123   1.630  0.00  0.00    -0.012 C 
ATOM     20  C   UNL     1      -0.173  -0.358   1.313  0.00  0.00    -0.054 C 
BRANCH  20  21
ATOM     21  N   UNL     1       0.667  -0.963   2.356  0.00  0.00    +0.385 N 
ATOM     22  C   UNL     1       0.051  -0.731   3.669  0.00  0.00    -0.073 C 
ATOM     23  C   UNL     1       0.739  -1.633   4.708  0.00  0.00    +0.024 C 
ATOM     24  C   UNL     1       2.214  -1.498   4.516  0.00  0.00    -0.011 A 
ATOM     25  C   UNL     1       2.842  -0.933   3.446  0.00  0.00    -0.054 A 
ATOM     26  C   UNL     1       4.234  -0.912   3.483  0.00  0.00    +0.009 A 
ATOM     27  C   UNL     1       4.891  -1.438   4.543  0.00  0.00    +0.045 A 
ATOM     28  S   UNL     1       3.542  -2.006   5.569  0.00  0.00    -0.101 S 
ATOM     29  C   UNL     1       2.010  -0.373   2.297  0.00  0.00    -0.042 C 
ATOM     30  H   UNL     1       0.734  -1.957   2.192  0.00  0.00    -0.081 HD
ENDBRANCH  20  21
ENDBRANCH  18  20
ENDBRANCH   1  18
TORSDOF 6
