REMARK  Name = ZINC43876410
REMARK  9 active torsions:
REMARK  status: ('A' for Active; 'I' for Inactive)
REMARK    1  A    between atoms: C_1  and  C_2
REMARK    2  A    between atoms: C_2  and  O_3
REMARK    3  A    between atoms: O_3  and  C_4
REMARK    4  A    between atoms: C_7  and  C_10
REMARK    5  A    between atoms: C_10  and  N_11
REMARK    6  A    between atoms: N_11  and  C_12
REMARK    7  A    between atoms: N_15  and  C_16
REMARK    8  A    between atoms: C_16  and  C_18
REMARK    9  A    between atoms: C_16  and  C_19
REMARK                            x       y       z     vdW  Elec       q    Type
REMARK                         _______ _______ _______ _____ _____    ______ ____
ROOT
ATOM      1  N   UNL     1      -0.052  -6.535  -2.591  0.00  0.00    -0.284 N 
ATOM      2  C   UNL     1      -0.011  -6.601  -4.053  0.00  0.00    +0.134 C 
ATOM      3  C   UNL     1      -1.158  -6.929  -1.929  0.00  0.00    +0.303 C 
ATOM      4  O   UNL     1      -1.192  -6.873  -0.714  0.00  0.00    -0.253 OA
ATOM      5  N   UNL     1      -2.227  -7.384  -2.612  0.00  0.00    -0.290 N 
ATOM      6  H   UNL     1      -2.200  -7.428  -3.581  0.00  0.00    +0.151 HD
ENDROOT
BRANCH   5   7
ATOM      7  C   UNL     1      -3.429  -7.812  -1.893  0.00  0.00    +0.137 C 
ATOM      8  C   UNL     1      -4.313  -6.596  -1.609  0.00  0.00    +0.036 C 
BRANCH   7   9
ATOM      9  C   UNL     1      -4.192  -8.803  -2.734  0.00  0.00    +0.126 A 
ATOM     10  C   UNL     1      -4.802  -9.899  -2.264  0.00  0.00    +0.055 A 
ATOM     11  C   UNL     1      -5.411 -10.558  -3.425  0.00  0.00    +0.020 A 
ATOM     12  C   UNL     1      -6.168 -11.715  -3.604  0.00  0.00    +0.011 A 
ATOM     13  C   UNL     1      -6.594 -12.060  -4.857  0.00  0.00    +0.001 A 
ATOM     14  C   UNL     1      -6.277 -11.266  -5.950  0.00  0.00    +0.004 A 
ATOM     15  C   UNL     1      -5.530 -10.119  -5.793  0.00  0.00    +0.047 A 
ATOM     16  C   UNL     1      -5.087  -9.750  -4.528  0.00  0.00    +0.135 A 
ATOM     17  O   UNL     1      -4.363  -8.711  -4.065  0.00  0.00    -0.458 OA
ENDBRANCH   7   9
ENDBRANCH   5   7
BRANCH   1  18
ATOM     18  C   UNL     1       1.109  -6.040  -1.847  0.00  0.00    +0.144 C 
BRANCH  18  22
ATOM     19  C   UNL     1       0.777  -1.810  -1.336  0.00  0.00    +0.121 A 
ATOM     20  C   UNL     1       0.243  -2.669  -0.386  0.00  0.00    +0.046 A 
ATOM     21  C   UNL     1       0.351  -4.036  -0.554  0.00  0.00    +0.009 A 
ATOM     22  C   UNL     1       0.992  -4.548  -1.667  0.00  0.00    -0.030 A 
ATOM     23  C   UNL     1       1.525  -3.694  -2.615  0.00  0.00    +0.009 A 
ATOM     24  C   UNL     1       1.414  -2.327  -2.455  0.00  0.00    +0.046 A 
BRANCH  19  25
ATOM     25  O   UNL     1       0.671  -0.465  -1.174  0.00  0.00    -0.492 OA
BRANCH  25  27
ATOM     26  C   UNL     1      -0.019   1.526   0.010  0.00  0.00    +0.048 C 
ATOM     27  C   UNL     1       0.002  -0.004   0.002  0.00  0.00    +0.225 C 
ENDBRANCH  25  27
ENDBRANCH  19  25
ENDBRANCH  18  22
ENDBRANCH   1  18
TORSDOF 6
