REMARK  Name = ZINC49281932
REMARK  8 active torsions:
REMARK  status: ('A' for Active; 'I' for Inactive)
REMARK    1  A    between atoms: C_1  and  C_2
REMARK    2  A    between atoms: C_2  and  C_3
REMARK    3  A    between atoms: C_3  and  C_4
REMARK    4  A    between atoms: C_3  and  C_5
REMARK    5  A    between atoms: C_3  and  N_6
REMARK    6  A    between atoms: C_7  and  C_9
REMARK    7  A    between atoms: C_9  and  N_10
REMARK    8  A    between atoms: C_13  and  N_20
REMARK                            x       y       z     vdW  Elec       q    Type
REMARK                         _______ _______ _______ _____ _____    ______ ____
ROOT
ATOM      1  N   UNL     1       2.027  -4.602  -3.498  0.00  0.00    -0.265 N 
ATOM      2  C   UNL     1       1.435  -4.873  -4.732  0.00  0.00    +0.092 A 
ATOM      3  C   UNL     1       0.131  -4.799  -5.196  0.00  0.00    +0.052 A 
ATOM      4  C   UNL     1      -0.152  -5.145  -6.509  0.00  0.00    +0.027 A 
ATOM      5  C   UNL     1       0.868  -5.565  -7.354  0.00  0.00    +0.026 A 
ATOM      6  C   UNL     1       2.167  -5.639  -6.892  0.00  0.00    +0.050 A 
ATOM      7  C   UNL     1       2.457  -5.294  -5.581  0.00  0.00    +0.157 A 
ATOM      8  O   UNL     1       3.610  -5.270  -4.866  0.00  0.00    -0.407 OA
ATOM      9  C   UNL     1       3.347  -4.849  -3.620  0.00  0.00    +0.422 A 
ATOM     10  O   UNL     1       4.170  -4.714  -2.735  0.00  0.00    -0.223 OA
ENDROOT
BRANCH   4  11
ATOM     11  N   UNL     1      -1.467  -5.071  -6.983  0.00  0.00    -0.358 N 
ATOM     12  H   UNL     1      -2.179  -4.779  -6.393  0.00  0.00    +0.142 HD
ATOM     13  H   UNL     1      -1.665  -5.313  -7.901  0.00  0.00    +0.142 HD
ENDBRANCH   4  11
BRANCH   1  14
ATOM     14  C   UNL     1       1.341  -4.130  -2.293  0.00  0.00    +0.224 C 
BRANCH  14  16
ATOM     15  N   UNL     1       0.738  -1.962  -1.265  0.00  0.00    -0.309 N 
ATOM     16  C   UNL     1       1.321  -2.623  -2.285  0.00  0.00    +0.233 C 
ATOM     17  O   UNL     1       1.829  -2.004  -3.196  0.00  0.00    -0.274 OA
ATOM     18  H   UNL     1       0.332  -2.457  -0.536  0.00  0.00    +0.149 HD
BRANCH  15  19
ATOM     19  C   UNL     1       0.718  -0.497  -1.257  0.00  0.00    +0.029 C 
ATOM     20  C   UNL     1      -0.022   0.009  -2.496  0.00  0.00    +0.031 C 
ATOM     21  C   UNL     1       2.154   0.032  -1.268  0.00  0.00    +0.031 C 
BRANCH  19  23
ATOM     22  C   UNL     1      -0.019   1.526   0.010  0.00  0.00    +0.006 C 
ATOM     23  C   UNL     1       0.002  -0.004   0.002  0.00  0.00    +0.022 C 
ENDBRANCH  19  23
ENDBRANCH  15  19
ENDBRANCH  14  16
ENDBRANCH   1  14
TORSDOF 5
