REMARK  Name = ZINC41074460
REMARK  4 active torsions:
REMARK  status: ('A' for Active; 'I' for Inactive)
REMARK    1  A    between atoms: C_5  and  N_8
REMARK    2  A    between atoms: C_6  and  N_7
REMARK    3  A    between atoms: C_9  and  C_11
REMARK    4  A    between atoms: C_11  and  N_12
REMARK                            x       y       z     vdW  Elec       q    Type
REMARK                         _______ _______ _______ _____ _____    ______ ____
ROOT
ATOM      1  N   UNL     1       1.246  -2.083  -0.022  0.00  0.00    -0.282 N 
ATOM      2  C   UNL     1       2.410  -2.738   0.164  0.00  0.00    +0.235 C 
ATOM      3  O   UNL     1       3.418  -2.118   0.430  0.00  0.00    -0.274 OA
ATOM      4  H   UNL     1       0.427  -2.583  -0.163  0.00  0.00    +0.155 HD
ENDROOT
BRANCH   1   9
ATOM      5  C   UNL     1       0.992   1.394   1.184  0.00  0.00    +0.044 A 
ATOM      6  C   UNL     1       1.170   2.091   0.003  0.00  0.00    +0.044 A 
ATOM      7  C   UNL     1       1.372   1.408  -1.184  0.00  0.00    +0.042 A 
ATOM      8  C   UNL     1       1.398   0.025  -1.195  0.00  0.00    +0.065 A 
ATOM      9  C   UNL     1       1.221  -0.681  -0.014  0.00  0.00    +0.073 A 
ATOM     10  C   UNL     1       1.017   0.007   1.182  0.00  0.00    +0.049 A 
ATOM     11 CL   UNL     1       1.651  -0.827  -2.686  0.00  0.00    -0.082 Cl
ATOM     12 CL   UNL     1       1.138   3.826   0.008  0.00  0.00    -0.083 Cl
BRANCH  10  13
ATOM     13  N   UNL     1       0.839  -0.700   2.376  0.00  0.00    -0.356 N 
ATOM     14  H   UNL     1       0.697  -0.220   3.207  0.00  0.00    +0.142 HD
ATOM     15  H   UNL     1       0.856  -1.670   2.373  0.00  0.00    +0.142 HD
ENDBRANCH  10  13
ENDBRANCH   1   9
BRANCH   2  16
ATOM     16  C   UNL     1       2.458  -4.239   0.043  0.00  0.00    +0.212 C 
BRANCH  16  17
ATOM     17  N   UNL     1       3.825  -4.705   0.289  0.00  0.00    -0.229 N 
ATOM     18  C   UNL     1       4.684  -4.811  -0.741  0.00  0.00    +0.248 C 
ATOM     19  O   UNL     1       4.317  -4.534  -1.863  0.00  0.00    -0.273 OA
ATOM     20  C   UNL     1       6.101  -5.271  -0.509  0.00  0.00    +0.256 C 
ATOM     21  O   UNL     1       6.136  -6.115   0.647  0.00  0.00    -0.361 OA
ATOM     22  C   UNL     1       5.609  -5.486   1.820  0.00  0.00    +0.256 C 
ATOM     23  C   UNL     1       4.204  -5.016   1.542  0.00  0.00    +0.248 C 
ATOM     24  O   UNL     1       3.409  -4.921   2.453  0.00  0.00    -0.273 OA
ENDBRANCH  16  17
ENDBRANCH   2  16
TORSDOF 4
