REMARK  Name = ZINC67609600
REMARK  14 active torsions:
REMARK  status: ('A' for Active; 'I' for Inactive)
REMARK    1  A    between atoms: C_1  and  C_2
REMARK    2  A    between atoms: N_5  and  C_8
REMARK    3  A    between atoms: C_8  and  C_9
REMARK    4  A    between atoms: C_9  and  C_11
REMARK    5  A    between atoms: C_9  and  O_29
REMARK    6  A    between atoms: C_11  and  N_12
REMARK    7  A    between atoms: N_15  and  C_16
REMARK    8  A    between atoms: C_16  and  C_17
REMARK    9  A    between atoms: C_19  and  O_27
REMARK   10  A    between atoms: C_20  and  O_25
REMARK   11  A    between atoms: C_21  and  O_23
REMARK   12  A    between atoms: O_23  and  C_24
REMARK   13  A    between atoms: O_25  and  C_26
REMARK   14  A    between atoms: O_27  and  C_28
REMARK                            x       y       z     vdW  Elec       q    Type
REMARK                         _______ _______ _______ _____ _____    ______ ____
ROOT
ATOM      1  N   UNL     1       0.630  -6.349   4.007  0.00  0.00    -0.297 N 
ATOM      2  C   UNL     1       0.786  -7.662   4.270  0.00  0.00    +0.300 C 
ATOM      3  O   UNL     1       0.440  -8.491   3.452  0.00  0.00    -0.253 OA
ATOM      4  N   UNL     1       1.328  -8.054   5.441  0.00  0.00    -0.295 N 
ATOM      5  H   UNL     1       0.906  -5.687   4.660  0.00  0.00    +0.150 HD
ATOM      6  H   UNL     1       1.605  -7.392   6.093  0.00  0.00    +0.151 HD
ENDROOT
BRANCH   1   7
ATOM      7  C   UNL     1       0.041  -5.922   2.735  0.00  0.00    +0.135 C 
BRANCH   7   8
ATOM      8  C   UNL     1      -0.023  -4.394   2.690  0.00  0.00    +0.115 C 
BRANCH   8   9
ATOM      9  O   UNL     1       1.303  -3.862   2.691  0.00  0.00    -0.392 OA
ATOM     10  H   UNL     1       1.841  -4.147   1.940  0.00  0.00    +0.210 HD
ENDBRANCH   8   9
BRANCH   8  11
ATOM     11  C   UNL     1      -0.750  -3.952   1.419  0.00  0.00    -0.046 C 
BRANCH  11  16
ATOM     12  C   UNL     1      -2.158   1.567   1.124  0.00  0.00    +0.007 C 
ATOM     13  C   UNL     1      -2.222   0.038   1.151  0.00  0.00    -0.018 C 
ATOM     14  C   UNL     1      -1.674  -0.474   2.486  0.00  0.00    -0.016 C 
ATOM     15  C   UNL     1      -1.667  -2.005   2.474  0.00  0.00    -0.078 C 
ATOM     16  N   UNL     1      -0.817  -2.485   1.378  0.00  0.00    +0.381 N 
ATOM     17  C   UNL     1      -1.376  -2.057   0.090  0.00  0.00    -0.078 C 
ATOM     18  C   UNL     1      -1.372  -0.529   0.010  0.00  0.00    -0.016 C 
ATOM     19  H   UNL     1       0.112  -2.105   1.483  0.00  0.00    -0.082 HD
ENDBRANCH  11  16
ENDBRANCH   8  11
ENDBRANCH   7   8
ENDBRANCH   1   7
BRANCH   4  20
ATOM     20  C   UNL     1       1.499  -9.481   5.727  0.00  0.00    +0.141 C 
BRANCH  20  21
ATOM     21  C   UNL     1       2.121  -9.649   7.089  0.00  0.00    -0.023 A 
ATOM     22  C   UNL     1       3.497  -9.689   7.218  0.00  0.00    +0.054 A 
ATOM     23  C   UNL     1       4.073  -9.844   8.470  0.00  0.00    +0.165 A 
ATOM     24  C   UNL     1       3.266  -9.959   9.595  0.00  0.00    +0.204 A 
ATOM     25  C   UNL     1       1.883  -9.917   9.461  0.00  0.00    +0.165 A 
ATOM     26  C   UNL     1       1.315  -9.757   8.206  0.00  0.00    +0.054 A 
BRANCH  25  27
ATOM     27  O   UNL     1       1.089 -10.029  10.559  0.00  0.00    -0.491 OA
ATOM     28  C   UNL     1      -0.324  -9.979  10.346  0.00  0.00    +0.277 C 
ENDBRANCH  25  27
BRANCH  24  29
ATOM     29  O   UNL     1       3.828 -10.111  10.825  0.00  0.00    -0.488 OA
ATOM     30  C   UNL     1       4.119  -8.920  11.558  0.00  0.00    +0.277 C 
ENDBRANCH  24  29
BRANCH  23  31
ATOM     31  O   UNL     1       5.426  -9.884   8.596  0.00  0.00    -0.491 OA
ATOM     32  C   UNL     1       6.194  -9.761   7.396  0.00  0.00    +0.277 C 
ENDBRANCH  23  31
ENDBRANCH  20  21
ENDBRANCH   4  20
TORSDOF 10
