REMARK  Name = ZINC50670107
REMARK  10 active torsions:
REMARK  status: ('A' for Active; 'I' for Inactive)
REMARK    1  A    between atoms: C_1  and  C_2
REMARK    2  A    between atoms: C_2  and  C_4
REMARK    3  A    between atoms: C_2  and  N_8
REMARK    4  A    between atoms: C_4  and  C_5
REMARK    5  A    between atoms: C_4  and  C_6
REMARK    6  A    between atoms: C_4  and  C_7
REMARK    7  A    between atoms: N_8  and  C_9
REMARK    8  A    between atoms: N_8  and  S_10
REMARK    9  A    between atoms: S_10  and  C_13
REMARK   10  A    between atoms: N_19  and  C_20
REMARK                            x       y       z     vdW  Elec       q    Type
REMARK                         _______ _______ _______ _____ _____    ______ ____
ROOT
ATOM      1  S   UNL     1      -1.580  -0.938   1.195  0.00  0.00    +0.061 S 
ATOM      2  O   UNL     1      -2.582  -1.826   0.718  0.00  0.00    -0.153 OA
ATOM      3  O   UNL     1      -0.448  -1.389   1.927  0.00  0.00    -0.153 OA
ENDROOT
BRANCH   1   4
ATOM      4  C   UNL     1      -2.398   0.245   2.212  0.00  0.00    +0.110 A 
ATOM      5  C   UNL     1      -1.705   0.936   3.197  0.00  0.00    +0.048 A 
ATOM      6  C   UNL     1      -2.375   1.857   3.976  0.00  0.00    +0.115 A 
ATOM      7  N   UNL     1      -3.662   2.087   3.796  0.00  0.00    -0.240 NA
ATOM      8  C   UNL     1      -4.358   1.449   2.868  0.00  0.00    +0.120 A 
ATOM      9  C   UNL     1      -3.745   0.511   2.043  0.00  0.00    +0.072 A 
ATOM     10  N   UNL     1      -5.712   1.723   2.713  0.00  0.00    -0.332 N 
ATOM     11  C   UNL     1      -6.488   1.021   1.688  0.00  0.00    +0.127 C 
ATOM     12  H   UNL     1      -6.143   2.379   3.283  0.00  0.00    +0.147 HD
ENDBRANCH   1   4
BRANCH   1  13
ATOM     13  N   UNL     1      -0.997  -0.129  -0.127  0.00  0.00    -0.176 NA
ATOM     14  C   UNL     1      -1.826   0.007  -1.327  0.00  0.00    +0.132 C 
BRANCH  13  16
ATOM     15  C   UNL     1       0.272   1.934  -0.470  0.00  0.00    +0.026 C 
ATOM     16  C   UNL     1       0.348   0.452  -0.096  0.00  0.00    +0.082 C 
BRANCH  16  17
ATOM     17  C   UNL     1       1.243  -0.281  -1.096  0.00  0.00    -0.021 C 
ATOM     18  C   UNL     1       2.683   0.218  -0.953  0.00  0.00    +0.012 C 
ATOM     19  C   UNL     1       1.195  -1.785  -0.817  0.00  0.00    +0.012 C 
ATOM     20  C   UNL     1       0.749  -0.010  -2.518  0.00  0.00    +0.012 C 
ENDBRANCH  16  17
ENDBRANCH  13  16
ENDBRANCH   1  13
TORSDOF 4
