REMARK  Name = ZINC49563850
REMARK  4 active torsions:
REMARK  status: ('A' for Active; 'I' for Inactive)
REMARK    1  A    between atoms: C_3  and  S_9
REMARK    2  A    between atoms: C_6  and  N_7
REMARK    3  A    between atoms: S_9  and  N_12
REMARK    4  A    between atoms: N_12  and  C_13
REMARK                            x       y       z     vdW  Elec       q    Type
REMARK                         _______ _______ _______ _____ _____    ______ ____
ROOT
ATOM      1  S   UNL     1       3.934   2.334  -0.041  0.00  0.00    +0.060 S 
ATOM      2  O   UNL     1       4.868   1.832  -0.986  0.00  0.00    -0.153 OA
ATOM      3  O   UNL     1       3.466   3.676  -0.071  0.00  0.00    -0.153 OA
ENDROOT
BRANCH   1   6
ATOM      4  C   UNL     1       1.354  -0.539  -1.149  0.00  0.00    +0.025 A 
ATOM      5  C   UNL     1       2.469   0.273  -1.066  0.00  0.00    +0.031 A 
ATOM      6  C   UNL     1       2.510   1.302  -0.143  0.00  0.00    +0.119 A 
ATOM      7  C   UNL     1       1.434   1.522   0.700  0.00  0.00    +0.046 A 
ATOM      8  C   UNL     1       0.317   0.714   0.622  0.00  0.00    +0.040 A 
ATOM      9  C   UNL     1       0.273  -0.320  -0.305  0.00  0.00    +0.026 A 
ATOM     10 BR   UNL     1       1.496   2.931   1.960  0.00  0.00    -0.048 Br
BRANCH   9  11
ATOM     11  N   UNL     1      -0.856  -1.139  -0.387  0.00  0.00    -0.358 N 
ATOM     12  H   UNL     1      -0.886  -1.861  -1.033  0.00  0.00    +0.142 HD
ATOM     13  H   UNL     1      -1.611  -0.985   0.203  0.00  0.00    +0.142 HD
ENDBRANCH   9  11
ENDBRANCH   1   6
BRANCH   1  14
ATOM     14  N   UNL     1       4.602   2.099   1.456  0.00  0.00    -0.188 NA
ATOM     15  H   UNL     1       4.626   2.828   2.096  0.00  0.00    +0.148 HD
BRANCH  14  16
ATOM     16  C   UNL     1       5.156   0.791   1.814  0.00  0.00    +0.061 C 
ATOM     17  C   UNL     1       6.704   0.805   1.715  0.00  0.00    +0.000 C 
ATOM     18  C   UNL     1       7.091  -0.315   2.711  0.00  0.00    -0.077 C 
ATOM     19  N   UNL     1       6.115  -0.199   3.817  0.00  0.00    +0.383 N 
ATOM     20  C   UNL     1       4.904   0.481   3.303  0.00  0.00    -0.050 C 
ATOM     21  C   UNL     1       3.731  -0.511   3.424  0.00  0.00    -0.016 C 
ATOM     22  C   UNL     1       4.207  -1.476   4.542  0.00  0.00    -0.020 C 
ATOM     23  C   UNL     1       5.731  -1.558   4.257  0.00  0.00    -0.078 C 
ATOM     24  H   UNL     1       6.516   0.318   4.585  0.00  0.00    -0.081 HD
ENDBRANCH  14  16
ENDBRANCH   1  14
TORSDOF 4
