REMARK  Name = ZINC65488873
REMARK  3 active torsions:
REMARK  status: ('A' for Active; 'I' for Inactive)
REMARK    1  A    between atoms: C_1  and  C_2
REMARK    2  A    between atoms: C_4  and  N_14
REMARK    3  A    between atoms: C_6  and  C_8
REMARK                            x       y       z     vdW  Elec       q    Type
REMARK                         _______ _______ _______ _____ _____    ______ ____
ROOT
ATOM      1  C   UNL     1       0.421   1.475   0.029  0.00  0.00    +0.066 C 
ATOM      2  C   UNL     1       0.211  -0.017   0.011  0.00  0.00    +0.044 A 
ATOM      3  C   UNL     1       0.224  -0.710  -1.185  0.00  0.00    +0.066 A 
ATOM      4  C   UNL     1       0.025  -2.092  -1.157  0.00  0.00    +0.125 A 
ATOM      5  N   UNL     1      -0.169  -2.692   0.013  0.00  0.00    -0.213 NA
ATOM      6  C   UNL     1      -0.173  -1.992   1.138  0.00  0.00    +0.162 A 
ATOM      7  N   UNL     1       0.018  -0.680   1.141  0.00  0.00    -0.232 NA
ENDROOT
BRANCH   4   8
ATOM      8  N   UNL     1       0.029  -2.827  -2.332  0.00  0.00    -0.315 N 
ATOM      9  C   UNL     1       0.043  -4.296  -2.294  0.00  0.00    +0.110 C 
ATOM     10  C   UNL     1      -1.133  -4.820  -3.127  0.00  0.00    +0.068 C 
ATOM     11  C   UNL     1      -1.078  -4.209  -4.521  0.00  0.00    +0.133 C 
ATOM     12  C   UNL     1      -1.156  -2.689  -4.460  0.00  0.00    +0.068 C 
ATOM     13  C   UNL     1       0.013  -2.151  -3.636  0.00  0.00    +0.110 C 
ATOM     14  C   UNL     1      -2.213  -4.770  -5.399  0.00  0.00    +0.155 C 
ATOM     15  N   UNL     1      -1.549  -4.906  -6.712  0.00  0.00    -0.277 N 
ATOM     16  C   UNL     1      -0.221  -4.796  -6.513  0.00  0.00    +0.401 C 
ATOM     17  O   UNL     1       0.598  -4.841  -7.410  0.00  0.00    -0.226 OA
ATOM     18  O   UNL     1       0.101  -4.632  -5.218  0.00  0.00    -0.442 OA
ATOM     19  H   UNL     1      -1.990  -5.049  -7.564  0.00  0.00    +0.152 HD
ENDBRANCH   4   8
BRANCH   6  20
ATOM     20  C   UNL     1      -0.393  -2.694   2.426  0.00  0.00    +0.019 A 
ATOM     21  C   UNL     1      -0.585  -4.074   2.446  0.00  0.00    +0.011 A 
ATOM     22  C   UNL     1      -0.788  -4.722   3.648  0.00  0.00    +0.001 A 
ATOM     23  C   UNL     1      -0.801  -4.004   4.830  0.00  0.00    +0.000 A 
ATOM     24  C   UNL     1      -0.611  -2.634   4.816  0.00  0.00    +0.001 A 
ATOM     25  C   UNL     1      -0.402  -1.976   3.621  0.00  0.00    +0.011 A 
ENDBRANCH   6  20
TORSDOF 2
