REMARK  Name = ZINC40986001
REMARK  8 active torsions:
REMARK  status: ('A' for Active; 'I' for Inactive)
REMARK    1  A    between atoms: C_1  and  C_2
REMARK    2  A    between atoms: C_5  and  C_8
REMARK    3  A    between atoms: C_8  and  C_10
REMARK    4  A    between atoms: C_8  and  N_25
REMARK    5  A    between atoms: C_10  and  N_11
REMARK    6  A    between atoms: C_12  and  C_14
REMARK    7  A    between atoms: C_17  and  S_21
REMARK    8  A    between atoms: S_21  and  C_24
REMARK                            x       y       z     vdW  Elec       q    Type
REMARK                         _______ _______ _______ _____ _____    ______ ____
ROOT
ATOM      1  C   UNL     1       1.514  -4.583   0.280  0.00  0.00    +0.094 C 
ENDROOT
BRANCH   1   2
ATOM      2  N   UNL     1       2.335  -4.280  -0.895  0.00  0.00    -0.312 N 
ATOM      3  C   UNL     1       3.651  -4.571  -0.890  0.00  0.00    +0.248 C 
ATOM      4  O   UNL     1       4.157  -5.084   0.089  0.00  0.00    -0.270 OA
ATOM      5  H   UNL     1       1.932  -3.871  -1.677  0.00  0.00    +0.149 HD
BRANCH   3   6
ATOM      6  C   UNL     1       4.479  -4.266  -2.075  0.00  0.00    +0.092 A 
ATOM      7  C   UNL     1       3.919  -3.671  -3.211  0.00  0.00    +0.130 A 
ATOM      8  N   UNL     1       4.697  -3.415  -4.248  0.00  0.00    -0.219 NA
ATOM      9  C   UNL     1       5.981  -3.712  -4.224  0.00  0.00    +0.271 A 
ATOM     10  N   UNL     1       6.551  -4.274  -3.177  0.00  0.00    -0.199 NA
ATOM     11  C   UNL     1       5.849  -4.560  -2.092  0.00  0.00    +0.146 A 
ATOM     12 CL   UNL     1       6.612  -5.293  -0.715  0.00  0.00    -0.061 Cl
BRANCH   9  13
ATOM     13  S   UNL     1       6.968  -3.348  -5.638  0.00  0.00    +0.029 S 
ATOM     14  O   UNL     1       8.041  -4.278  -5.581  0.00  0.00    -0.167 OA
ATOM     15  O   UNL     1       6.056  -3.359  -6.729  0.00  0.00    -0.167 OA
ATOM     16  C   UNL     1       7.583  -1.665  -5.356  0.00  0.00    +0.204 C 
ENDBRANCH   9  13
ENDBRANCH   3   6
ENDBRANCH   1   2
BRANCH   1  17
ATOM     17  C   UNL     1       0.100  -4.040   0.067  0.00  0.00    -0.020 C 
BRANCH  17  22
ATOM     18  C   UNL     1       0.268   1.731  -0.192  0.00  0.00    +0.044 C 
ATOM     19  C   UNL     1       0.224   0.226  -0.124  0.00  0.00    -0.050 A 
ATOM     20  C   UNL     1       0.152  -0.516  -1.288  0.00  0.00    +0.003 A 
ATOM     21  C   UNL     1       0.113  -1.897  -1.226  0.00  0.00    +0.002 A 
ATOM     22  C   UNL     1       0.144  -2.535  -0.001  0.00  0.00    -0.059 A 
ATOM     23  C   UNL     1       0.216  -1.793   1.163  0.00  0.00    +0.002 A 
ATOM     24  C   UNL     1       0.261  -0.412   1.101  0.00  0.00    +0.003 A 
ENDBRANCH  17  22
BRANCH  17  25
ATOM     25  N   UNL     1      -0.758  -4.454   1.185  0.00  0.00    +0.385 N 
ATOM     26  C   UNL     1      -2.139  -3.947   0.987  0.00  0.00    -0.078 C 
ATOM     27  C   UNL     1      -2.994  -4.890   1.870  0.00  0.00    -0.020 C 
ATOM     28  C   UNL     1      -2.303  -6.260   1.681  0.00  0.00    -0.020 C 
ATOM     29  C   UNL     1      -0.871  -5.929   1.221  0.00  0.00    -0.078 C 
ATOM     30  H   UNL     1      -0.382  -4.113   2.057  0.00  0.00    -0.081 HD
ENDBRANCH  17  25
ENDBRANCH   1  17
TORSDOF 6
