REMARK  Name = ZINC11962095
REMARK  9 active torsions:
REMARK  status: ('A' for Active; 'I' for Inactive)
REMARK    1  A    between atoms: C_1  and  N_39
REMARK    2  A    between atoms: C_2  and  N_39
REMARK    3  A    between atoms: C_3  and  C_4
REMARK    4  A    between atoms: C_3  and  N_39
REMARK    5  A    between atoms: C_4  and  O_5
REMARK    6  A    between atoms: O_5  and  C_6
REMARK    7  A    between atoms: C_15  and  C_16
REMARK    8  A    between atoms: C_17  and  C_18
REMARK    9  A    between atoms: C_17  and  C_20
REMARK                            x       y       z     vdW  Elec       q    Type
REMARK                         _______ _______ _______ _____ _____    ______ ____
ROOT
ATOM      1  C   UNL     1       1.413   2.837  -0.920  0.00  0.00    +0.128 A 
ATOM      2  C   UNL     1       2.614   3.544  -0.918  0.00  0.00    +0.047 A 
ATOM      3  C   UNL     1       3.611   3.260  -0.040  0.00  0.00    +0.012 A 
ATOM      4  C   UNL     1       3.468   2.232   0.911  0.00  0.00    -0.017 A 
ATOM      5  C   UNL     1       4.495   1.935   1.822  0.00  0.00    +0.008 A 
ATOM      6  C   UNL     1       4.317   0.943   2.739  0.00  0.00    +0.001 A 
ATOM      7  C   UNL     1       3.135   0.208   2.778  0.00  0.00    +0.001 A 
ATOM      8  C   UNL     1       2.120   0.469   1.904  0.00  0.00    +0.009 A 
ATOM      9  C   UNL     1       2.267   1.486   0.957  0.00  0.00    -0.007 A 
ATOM     10  C   UNL     1       1.201   1.799   0.000  0.00  0.00    +0.026 A 
ENDROOT
BRANCH  10  11
ATOM     11  C   UNL     1      -0.013   1.076   0.008  0.00  0.00    +0.038 C 
ATOM     12  C   UNL     1      -1.221   1.752   0.017  0.00  0.00    +0.140 C 
BRANCH  12  13
ATOM     13  C   UNL     1      -2.481   1.001   0.019  0.00  0.00    +0.397 C 
ATOM     14  O   UNL     1      -2.465  -0.215   0.013  0.00  0.00    -0.240 OA
ATOM     15  O   UNL     1      -3.658   1.659   0.028  0.00  0.00    -0.240 OA
ENDBRANCH  12  13
BRANCH  12  16
ATOM     16  C   UNL     1      -1.240   3.183   0.025  0.00  0.00    +0.106 C 
ATOM     17  N   UNL     1      -1.255   4.319   0.032  0.00  0.00    -0.191 NA
ENDBRANCH  12  16
ENDBRANCH  10  11
BRANCH   1  18
ATOM     18  O   UNL     1       0.445   3.153  -1.813  0.00  0.00    -0.493 OA
BRANCH  18  19
ATOM     19  C   UNL     1       0.725   4.220  -2.722  0.00  0.00    +0.210 C 
BRANCH  19  20
ATOM     20  C   UNL     1      -0.476   4.431  -3.646  0.00  0.00    -0.038 C 
BRANCH  20  23
ATOM     21  C   UNL     1      -1.386   6.218  -2.290  0.00  0.00    -0.096 C 
ATOM     22  C   UNL     1      -2.857   4.871  -3.662  0.00  0.00    -0.096 C 
ATOM     23  N   UNL     1      -1.632   4.867  -2.835  0.00  0.00    +0.378 N 
ATOM     24  H   UNL     1      -1.759   4.211  -2.055  0.00  0.00    -0.082 HD
ENDBRANCH  20  23
ENDBRANCH  19  20
ENDBRANCH  18  19
ENDBRANCH   1  18
TORSDOF 7
