REMARK  Name = ZINC15961952
REMARK  5 active torsions:
REMARK  status: ('A' for Active; 'I' for Inactive)
REMARK    1  A    between atoms: C_1  and  C_2
REMARK    2  A    between atoms: C_3  and  C_22
REMARK    3  A    between atoms: C_4  and  N_21
REMARK    4  A    between atoms: C_8  and  N_12
REMARK    5  A    between atoms: N_13  and  C_14
REMARK                            x       y       z     vdW  Elec       q    Type
REMARK                         _______ _______ _______ _____ _____    ______ ____
ROOT
ATOM      1  C   UNL     1      -0.018   1.503   0.010  0.00  0.00    +0.067 C 
ATOM      2  C   UNL     1       0.002  -0.004   0.002  0.00  0.00    +0.061 A 
ATOM      3  C   UNL     1      -1.208  -0.725   0.004  0.00  0.00    +0.112 A 
ATOM      4  C   UNL     1      -1.159  -2.123  -0.004  0.00  0.00    +0.139 A 
ATOM      5  N   UNL     1       0.063  -2.736  -0.013  0.00  0.00    -0.196 N 
ATOM      6  C   UNL     1       1.203  -1.980  -0.015  0.00  0.00    +0.187 A 
ATOM      7  N   UNL     1       1.149  -0.645  -0.012  0.00  0.00    -0.230 NA
ATOM      8  C   UNL     1       2.286  -2.879  -0.025  0.00  0.00    +0.171 A 
ATOM      9  C   UNL     1       1.738  -4.184  -0.029  0.00  0.00    +0.168 A 
ATOM     10  N   UNL     1       0.430  -4.086  -0.022  0.00  0.00    -0.146 NA
ATOM     11  N   UNL     1       2.465  -5.372  -0.039  0.00  0.00    -0.340 N 
ATOM     12  H   UNL     1       3.434  -5.347  -0.043  0.00  0.00    +0.144 HD
ATOM     13  H   UNL     1       2.002  -6.224  -0.041  0.00  0.00    +0.144 HD
ENDROOT
BRANCH   4  14
ATOM     14  N   UNL     1      -2.311  -2.863  -0.002  0.00  0.00    -0.342 N 
ATOM     15  H   UNL     1      -3.173  -2.418   0.005  0.00  0.00    +0.144 HD
ATOM     16  H   UNL     1      -2.266  -3.832  -0.007  0.00  0.00    +0.144 HD
ENDBRANCH   4  14
BRANCH   8  17
ATOM     17  N   UNL     1       3.597  -2.558  -0.029  0.00  0.00    -0.142 NA
ATOM     18  N   UNL     1       4.489  -3.489  -0.039  0.00  0.00    -0.146 NA
BRANCH  18  19
ATOM     19  C   UNL     1       5.817  -3.164  -0.044  0.00  0.00    +0.121 A 
ATOM     20  C   UNL     1       6.212  -1.824  -0.033  0.00  0.00    +0.032 A 
ATOM     21  C   UNL     1       7.553  -1.503  -0.038  0.00  0.00    +0.002 A 
ATOM     22  C   UNL     1       8.509  -2.504  -0.053  0.00  0.00    +0.003 A 
ATOM     23  C   UNL     1       8.128  -3.834  -0.064  0.00  0.00    +0.040 A 
ATOM     24  C   UNL     1       6.788  -4.171  -0.054  0.00  0.00    +0.150 A 
ATOM     25  F   UNL     1       6.417  -5.470  -0.059  0.00  0.00    -0.203 F 
ENDBRANCH  18  19
ENDBRANCH   8  17
BRANCH   3  26
ATOM     26  C   UNL     1      -2.465  -0.039   0.014  0.00  0.00    +0.104 C 
ATOM     27  N   UNL     1      -3.463   0.505   0.022  0.00  0.00    -0.191 NA
ENDBRANCH   3  26
TORSDOF 4
