REMARK  Name = ZINC02919773
REMARK  8 active torsions:
REMARK  status: ('A' for Active; 'I' for Inactive)
REMARK    1  A    between atoms: C_1  and  C_2
REMARK    2  A    between atoms: C_5  and  C_9
REMARK    3  A    between atoms: C_7  and  C_8
REMARK    4  A    between atoms: C_12  and  C_20
REMARK    5  A    between atoms: C_22  and  O_28
REMARK    6  A    between atoms: C_25  and  O_26
REMARK    7  A    between atoms: O_26  and  C_27
REMARK    8  A    between atoms: O_28  and  C_29
REMARK                            x       y       z     vdW  Elec       q    Type
REMARK                         _______ _______ _______ _____ _____    ______ ____
ROOT
ATOM      1  C   UNL     1       0.059  -4.275  -0.021  0.00  0.00    +0.106 C 
ATOM      2  C   UNL     1       1.485  -4.770  -0.291  0.00  0.00    +0.059 C 
ATOM      3  C   UNL     1       1.991  -4.196  -1.621  0.00  0.00    +0.148 C 
ATOM      4  N   UNL     1       0.974  -4.417  -2.645  0.00  0.00    -0.206 N 
ATOM      5  C   UNL     1      -0.330  -4.688  -2.386  0.00  0.00    +0.236 A 
ATOM      6  N   UNL     1      -0.933  -4.827  -3.533  0.00  0.00    -0.092 NA
ATOM      7  N   UNL     1      -0.097  -4.659  -4.500  0.00  0.00    -0.021 NA
ATOM      8  N   UNL     1       1.083  -4.405  -4.036  0.00  0.00    -0.042 NA
ATOM      9  N   UNL     1      -0.828  -4.776  -1.090  0.00  0.00    -0.305 N 
ATOM     10  H   UNL     1      -1.704  -5.146  -0.897  0.00  0.00    +0.150 HD
ENDROOT
BRANCH   1  15
ATOM     11  C   UNL     1      -0.018   1.503   0.010  0.00  0.00    +0.044 C 
ATOM     12  C   UNL     1       0.002  -0.004   0.002  0.00  0.00    -0.048 A 
ATOM     13  C   UNL     1       0.006  -0.689  -1.199  0.00  0.00    +0.004 A 
ATOM     14  C   UNL     1       0.025  -2.071  -1.207  0.00  0.00    +0.006 A 
ATOM     15  C   UNL     1       0.040  -2.768  -0.013  0.00  0.00    -0.027 A 
ATOM     16  C   UNL     1       0.037  -2.084   1.188  0.00  0.00    +0.009 A 
ATOM     17  C   UNL     1       0.023  -0.702   1.195  0.00  0.00    -0.047 A 
ATOM     18  C   UNL     1       0.025   0.045   2.504  0.00  0.00    +0.044 C 
ENDBRANCH   1  15
BRANCH   3  19
ATOM     19  C   UNL     1       3.270  -4.889  -2.016  0.00  0.00    +0.022 A 
ATOM     20  C   UNL     1       3.279  -6.254  -2.224  0.00  0.00    +0.055 A 
ATOM     21  C   UNL     1       4.456  -6.892  -2.589  0.00  0.00    +0.121 A 
ATOM     22  C   UNL     1       5.623  -6.158  -2.744  0.00  0.00    +0.049 A 
ATOM     23  C   UNL     1       5.613  -4.793  -2.536  0.00  0.00    +0.049 A 
ATOM     24  C   UNL     1       4.435  -4.154  -2.177  0.00  0.00    +0.126 A 
BRANCH  24  25
ATOM     25  O   UNL     1       4.424  -2.809  -1.977  0.00  0.00    -0.495 OA
ATOM     26  C   UNL     1       5.661  -2.116  -2.160  0.00  0.00    +0.277 C 
ENDBRANCH  24  25
BRANCH  21  27
ATOM     27  O   UNL     1       4.465  -8.236  -2.793  0.00  0.00    -0.495 OA
ATOM     28  C   UNL     1       5.712  -8.827  -3.167  0.00  0.00    +0.277 C 
ENDBRANCH  21  27
ENDBRANCH   3  19
TORSDOF 4
