REMARK  Name = ZINC02769771
REMARK  8 active torsions:
REMARK  status: ('A' for Active; 'I' for Inactive)
REMARK    1  A    between atoms: C_3  and  O_9
REMARK    2  A    between atoms: O_9  and  C_10
REMARK    3  A    between atoms: C_10  and  C_11
REMARK    4  A    between atoms: C_14  and  C_16
REMARK    5  A    between atoms: C_25  and  C_33
REMARK    6  A    between atoms: C_26  and  N_32
REMARK    7  A    between atoms: C_27  and  C_28
REMARK    8  A    between atoms: C_27  and  C_30
REMARK                            x       y       z     vdW  Elec       q    Type
REMARK                         _______ _______ _______ _____ _____    ______ ____
ROOT
ATOM      1  C   UNL     1       1.066   3.242   1.081  0.00  0.00    +0.102 C 
ATOM      2  C   UNL     1       1.218   2.168   0.002  0.00  0.00    +0.033 C 
ATOM      3  C   UNL     1       2.511   1.402   0.147  0.00  0.00    +0.009 C 
ATOM      4  C   UNL     1       2.305   0.065   0.856  0.00  0.00    +0.005 C 
ATOM      5  C   UNL     1       1.302  -0.764   0.042  0.00  0.00    +0.027 C 
ATOM      6  C   UNL     1       0.002  -0.004   0.002  0.00  0.00    -0.022 C 
ATOM      7  C   UNL     1      -0.016   1.314   0.009  0.00  0.00    -0.029 C 
ATOM      8  C   UNL     1      -1.322   2.021   0.079  0.00  0.00    +0.074 C 
ATOM      9  C   UNL     1      -1.351   3.333   0.425  0.00  0.00    +0.054 C 
ATOM     10  C   UNL     1      -0.122   4.137   0.725  0.00  0.00    +0.191 C 
ENDROOT
BRANCH   1  14
ATOM     11  C   UNL     1      -0.100   1.378   3.997  0.00  0.00    +0.142 A 
ATOM     12  C   UNL     1       1.007   1.930   4.525  0.00  0.00    +0.048 A 
ATOM     13  C   UNL     1       1.603   2.708   3.506  0.00  0.00    +0.045 A 
ATOM     14  C   UNL     1       0.824   2.585   2.416  0.00  0.00    +0.112 A 
ATOM     15  O   UNL     1      -0.209   1.783   2.721  0.00  0.00    -0.461 OA
BRANCH  11  16
ATOM     16  C   UNL     1      -1.059   0.465   4.716  0.00  0.00    +0.303 C 
BRANCH  16  17
ATOM     17  O   UNL     1      -2.083   1.243   5.338  0.00  0.00    -0.481 OA
BRANCH  17  20
ATOM     18  C   UNL     1      -3.954  -1.502   6.824  0.00  0.00    +0.042 A 
ATOM     19  C   UNL     1      -2.988  -0.816   6.112  0.00  0.00    +0.051 A 
ATOM     20  C   UNL     1      -3.036   0.567   6.035  0.00  0.00    +0.156 A 
ATOM     21  C   UNL     1      -4.061   1.262   6.665  0.00  0.00    +0.168 A 
ATOM     22  C   UNL     1      -5.029   0.572   7.372  0.00  0.00    +0.080 A 
ATOM     23  C   UNL     1      -4.976  -0.809   7.451  0.00  0.00    +0.126 A 
ATOM     24  F   UNL     1      -5.922  -1.482   8.142  0.00  0.00    -0.205 F 
ATOM     25  F   UNL     1      -4.112   2.610   6.586  0.00  0.00    -0.202 F 
ENDBRANCH  17  20
ENDBRANCH  16  17
ENDBRANCH  11  16
ENDBRANCH   1  14
BRANCH   9  26
ATOM     26  N   UNL     1      -2.565   3.954   0.504  0.00  0.00    -0.358 N 
ATOM     27  H   UNL     1      -2.622   5.017   0.782  0.00  0.00    +0.142 HD
ATOM     28  H   UNL     1      -3.486   3.391   0.290  0.00  0.00    +0.142 HD
ENDBRANCH   9  26
BRANCH  10  29
ATOM     29  C   UNL     1      -0.401   5.037   1.856  0.00  0.00    +0.091 C 
ATOM     30  N   UNL     1      -0.617   5.731   2.729  0.00  0.00    -0.194 NA
ENDBRANCH  10  29
BRANCH  10  31
ATOM     31  C   UNL     1       0.223   4.946  -0.456  0.00  0.00    +0.091 C 
ATOM     32  N   UNL     1       0.489   5.569  -1.367  0.00  0.00    -0.194 NA
ENDBRANCH  10  31
BRANCH   8  33
ATOM     33  C   UNL     1      -2.538   1.324  -0.215  0.00  0.00    +0.101 C 
ATOM     34  N   UNL     1      -3.502   0.771  -0.449  0.00  0.00    -0.191 NA
ENDBRANCH   8  33
TORSDOF 8
