REMARK  Name = ZINC16969335
REMARK  8 active torsions:
REMARK  status: ('A' for Active; 'I' for Inactive)
REMARK    1  A    between atoms: C_1  and  C_2
REMARK    2  A    between atoms: C_11  and  C_28
REMARK    3  A    between atoms: C_11  and  O_32
REMARK    4  A    between atoms: C_12  and  C_27
REMARK    5  A    between atoms: C_14  and  O_26
REMARK    6  A    between atoms: C_18  and  C_25
REMARK    7  A    between atoms: C_28  and  C_30
REMARK    8  A    between atoms: C_30  and  O_31
REMARK                            x       y       z     vdW  Elec       q    Type
REMARK                         _______ _______ _______ _____ _____    ______ ____
ROOT
ATOM      1  C   UNL     1       3.279   6.274   1.681  0.00  0.00    +0.012 C 
ATOM      2  C   UNL     1       2.917   4.795   1.537  0.00  0.00    +0.013 C 
ATOM      3  C   UNL     1       1.396   4.627   1.586  0.00  0.00    +0.012 C 
ATOM      4  C   UNL     1       1.043   3.138   1.569  0.00  0.00    -0.000 C 
ATOM      5  C   UNL     1      -0.465   2.965   1.569  0.00  0.00    +0.002 C 
ATOM      6  C   UNL     1      -1.193   3.502   0.332  0.00  0.00    +0.008 C 
ATOM      7  C   UNL     1      -2.518   2.691   0.329  0.00  0.00    +0.043 C 
ATOM      8  C   UNL     1      -2.234   1.382   1.116  0.00  0.00    +0.131 C 
ATOM      9  C   UNL     1      -0.750   1.442   1.466  0.00  0.00    +0.009 C 
ATOM     10  C   UNL     1      -0.341   0.821   2.787  0.00  0.00    +0.041 C 
ATOM     11  C   UNL     1       1.180   0.999   2.921  0.00  0.00    +0.120 C 
ATOM     12  C   UNL     1       1.585   2.467   2.841  0.00  0.00    +0.035 C 
ATOM     13  C   UNL     1       3.113   2.571   2.844  0.00  0.00    +0.013 C 
ATOM     14  C   UNL     1       3.518   4.006   2.686  0.00  0.00    -0.053 C 
ATOM     15  C   UNL     1       4.363   4.624   3.477  0.00  0.00    +0.051 C 
ATOM     16  C   UNL     1       4.941   3.921   4.633  0.00  0.00    +0.179 C 
ATOM     17  O   UNL     1       5.745   4.474   5.359  0.00  0.00    -0.288 OA
ATOM     18  C   UNL     1       4.524   2.533   4.892  0.00  0.00    +0.047 C 
ATOM     19  C   UNL     1       3.683   1.932   4.064  0.00  0.00    -0.012 C 
ATOM     20  C   UNL     1       3.634   1.802   1.628  0.00  0.00    +0.020 C 
ATOM     21  C   UNL     1       0.075   0.836   0.329  0.00  0.00    +0.015 C 
ENDROOT
BRANCH  11  22
ATOM     22  O   UNL     1       1.603   0.466   4.178  0.00  0.00    -0.391 OA
ATOM     23  H   UNL     1       1.410  -0.475   4.290  0.00  0.00    +0.210 HD
ENDBRANCH  11  22
BRANCH   8  24
ATOM     24  C   UNL     1      -2.519   0.178   0.256  0.00  0.00    +0.190 C 
ATOM     25  O   UNL     1      -2.538   0.286  -0.946  0.00  0.00    -0.292 OA
BRANCH  24  26
ATOM     26  C   UNL     1      -2.781  -1.161   0.897  0.00  0.00    +0.233 C 
BRANCH  26  27
ATOM     27  O   UNL     1      -3.023  -2.136  -0.119  0.00  0.00    -0.387 OA
ATOM     28  H   UNL     1      -3.200  -3.023   0.222  0.00  0.00    +0.210 HD
ENDBRANCH  26  27
ENDBRANCH  24  26
ENDBRANCH   8  24
BRANCH   8  29
ATOM     29  O   UNL     1      -3.022   1.339   2.308  0.00  0.00    -0.380 OA
ATOM     30  H   UNL     1      -3.975   1.300   2.148  0.00  0.00    +0.211 HD
ENDBRANCH   8  29
TORSDOF 5
