REMARK  Name = ZINC58513547
REMARK  6 active torsions:
REMARK  status: ('A' for Active; 'I' for Inactive)
REMARK    1  A    between atoms: N_10  and  C_11
REMARK    2  A    between atoms: C_11  and  C_13
REMARK    3  A    between atoms: C_13  and  C_14
REMARK    4  A    between atoms: C_14  and  C_15
REMARK    5  A    between atoms: C_15  and  C_16
REMARK    6  A    between atoms: C_16  and  C_18
REMARK                            x       y       z     vdW  Elec       q    Type
REMARK                         _______ _______ _______ _____ _____    ______ ____
ROOT
ATOM      1  C   UNL     1       5.677  -1.469  -0.062  0.00  0.00    +0.239 C 
ATOM      2  O   UNL     1       5.337  -2.637  -0.065  0.00  0.00    -0.274 OA
ENDROOT
BRANCH   1  12
ATOM      3  C   UNL     1      -0.016   1.352   0.009  0.00  0.00    +0.005 A 
ATOM      4  C   UNL     1       1.196   2.069   0.002  0.00  0.00    +0.018 A 
ATOM      5  C   UNL     1       2.375   1.420  -0.013  0.00  0.00    +0.096 A 
ATOM      6  N   UNL     1       2.419   0.048  -0.021  0.00  0.00    -0.271 N 
ATOM      7  C   UNL     1       1.247  -0.681  -0.013  0.00  0.00    +0.160 A 
ATOM      8  C   UNL     1       0.002  -0.004   0.002  0.00  0.00    +0.048 A 
ATOM      9  N   UNL     1       1.552  -1.959  -0.023  0.00  0.00    -0.153 NA
ATOM     10  N   UNL     1       2.949  -2.074  -0.038  0.00  0.00    -0.246 N 
ATOM     11  C   UNL     1       3.462  -0.829  -0.036  0.00  0.00    +0.222 A 
ATOM     12  N   UNL     1       4.760  -0.511  -0.048  0.00  0.00    -0.145 NA
ATOM     13  H   UNL     1       3.455  -2.902  -0.047  0.00  0.00    +0.192 HD
ENDBRANCH   1  12
BRANCH   1  14
ATOM     14  C   UNL     1       7.141  -1.110  -0.075  0.00  0.00    +0.098 C 
BRANCH  14  15
ATOM     15  C   UNL     1       7.979  -2.390  -0.090  0.00  0.00    +0.017 C 
BRANCH  15  16
ATOM     16  C   UNL     1       9.465  -2.026  -0.103  0.00  0.00    +0.080 C 
BRANCH  16  17
ATOM     17  C   UNL     1      10.291  -3.286  -0.118  0.00  0.00    +0.163 C 
ATOM     18  O   UNL     1       9.745  -4.369  -0.118  0.00  0.00    -0.292 OA
BRANCH  17  19
ATOM     19  C   UNL     1      11.759  -3.203  -0.133  0.00  0.00    +0.018 A 
ATOM     20  C   UNL     1      12.392  -1.955  -0.127  0.00  0.00    +0.014 A 
ATOM     21  C   UNL     1      13.768  -1.884  -0.141  0.00  0.00    +0.039 A 
ATOM     22  C   UNL     1      14.525  -3.047  -0.161  0.00  0.00    +0.123 A 
ATOM     23  C   UNL     1      13.903  -4.287  -0.166  0.00  0.00    +0.039 A 
ATOM     24  C   UNL     1      12.529  -4.372  -0.146  0.00  0.00    +0.014 A 
ATOM     25  F   UNL     1      15.874  -2.970  -0.175  0.00  0.00    -0.205 F 
ENDBRANCH  17  19
ENDBRANCH  16  17
ENDBRANCH  15  16
ENDBRANCH  14  15
ENDBRANCH   1  14
TORSDOF 6
