REMARK  Name = ZINC14480562
REMARK  9 active torsions:
REMARK  status: ('A' for Active; 'I' for Inactive)
REMARK    1  A    between atoms: C_1  and  C_2
REMARK    2  A    between atoms: C_2  and  C_3
REMARK    3  A    between atoms: C_3  and  O_4
REMARK    4  A    between atoms: O_4  and  C_5
REMARK    5  A    between atoms: C_5  and  C_7
REMARK    6  A    between atoms: C_20  and  C_23
REMARK    7  A    between atoms: C_26  and  O_29
REMARK    8  A    between atoms: O_29  and  C_30
REMARK    9  A    between atoms: C_30  and  C_31
REMARK                            x       y       z     vdW  Elec       q    Type
REMARK                         _______ _______ _______ _____ _____    ______ ____
ROOT
ATOM      1  C   UNL     1      -0.890  -2.146  -0.615  0.00  0.00    +0.059 A 
ATOM      2  C   UNL     1       0.142  -2.777   0.087  0.00  0.00    +0.017 A 
ATOM      3  C   UNL     1       1.089  -2.034   0.729  0.00  0.00    +0.024 A 
ATOM      4  C   UNL     1       1.042  -0.642   0.696  0.00  0.00    +0.031 A 
ATOM      5  C   UNL     1       0.002  -0.004   0.002  0.00  0.00    -0.019 A 
ATOM      6  C   UNL     1      -0.949  -0.750  -0.650  0.00  0.00    +0.021 A 
ATOM      7  C   UNL     1      -0.018   1.475   0.010  0.00  0.00    +0.049 C 
ATOM      8  C   UNL     1      -0.648   2.258  -1.083  0.00  0.00    -0.023 C 
ATOM      9  C   UNL     1       0.007   3.406  -1.214  0.00  0.00    -0.030 C 
ATOM     10  C   UNL     1       1.168   3.462  -0.220  0.00  0.00    +0.033 C 
ATOM     11  C   UNL     1       1.459   1.971  -0.001  0.00  0.00    +0.029 C 
ATOM     12  C   UNL     1       2.031   1.565   1.345  0.00  0.00    +0.105 C 
ATOM     13  N   UNL     1       2.036   0.086   1.347  0.00  0.00    -0.336 N 
ATOM     14  H   UNL     1       2.746  -0.386   1.810  0.00  0.00    +0.147 HD
ENDROOT
BRANCH  12  15
ATOM     15  C   UNL     1       3.436   2.091   1.493  0.00  0.00    -0.027 A 
ATOM     16  C   UNL     1       4.479   1.467   0.834  0.00  0.00    +0.009 A 
ATOM     17  C   UNL     1       5.767   1.950   0.964  0.00  0.00    +0.046 A 
ATOM     18  C   UNL     1       6.015   3.056   1.765  0.00  0.00    +0.121 A 
ATOM     19  C   UNL     1       4.967   3.676   2.430  0.00  0.00    +0.046 A 
ATOM     20  C   UNL     1       3.680   3.192   2.293  0.00  0.00    +0.009 A 
BRANCH  18  21
ATOM     21  O   UNL     1       7.281   3.529   1.899  0.00  0.00    -0.492 OA
BRANCH  21  22
ATOM     22  C   UNL     1       8.310   2.841   1.185  0.00  0.00    +0.225 C 
ATOM     23  C   UNL     1       9.657   3.514   1.457  0.00  0.00    +0.048 C 
ENDBRANCH  21  22
ENDBRANCH  18  21
ENDBRANCH  12  15
BRANCH   1  24
ATOM     24  C   UNL     1      -1.909  -2.949  -1.315  0.00  0.00    +0.339 C 
ATOM     25  O   UNL     1      -2.804  -2.397  -1.924  0.00  0.00    -0.245 OA
BRANCH  24  26
ATOM     26  O   UNL     1      -1.848  -4.295  -1.279  0.00  0.00    -0.461 OA
BRANCH  26  27
ATOM     27  C   UNL     1      -2.885  -5.021  -1.991  0.00  0.00    +0.232 C 
BRANCH  27  29
ATOM     28  C   UNL     1      -3.744  -7.290  -2.587  0.00  0.00    +0.007 C 
ATOM     29  C   UNL     1      -2.651  -6.525  -1.838  0.00  0.00    +0.038 C 
ENDBRANCH  27  29
ENDBRANCH  26  27
ENDBRANCH  24  26
ENDBRANCH   1  24
TORSDOF 7
