REMARK  Name = ZINC55866116
REMARK  14 active torsions:
REMARK  status: ('A' for Active; 'I' for Inactive)
REMARK    1  A    between atoms: C_1  and  C_2
REMARK    2  A    between atoms: C_2  and  C_3
REMARK    3  A    between atoms: C_2  and  N_4
REMARK    4  A    between atoms: C_8  and  C_10
REMARK    5  A    between atoms: C_10  and  N_11
REMARK    6  A    between atoms: N_11  and  C_12
REMARK    7  A    between atoms: C_15  and  N_20
REMARK    8  A    between atoms: C_16  and  O_18
REMARK    9  A    between atoms: O_18  and  C_19
REMARK   10  A    between atoms: C_21  and  O_23
REMARK   11  A    between atoms: O_23  and  C_24
REMARK   12  A    between atoms: C_24  and  C_25
REMARK   13  A    between atoms: C_24  and  C_26
REMARK   14  A    between atoms: C_24  and  C_27
REMARK                            x       y       z     vdW  Elec       q    Type
REMARK                         _______ _______ _______ _____ _____    ______ ____
ROOT
ATOM      1  C   UNL     1      -7.211  -2.301  -3.884  0.00  0.00    +0.031 A 
ATOM      2  C   UNL     1      -8.023  -2.698  -2.830  0.00  0.00    +0.025 A 
ATOM      3  C   UNL     1      -9.311  -3.134  -3.073  0.00  0.00    +0.029 A 
ATOM      4  C   UNL     1      -9.796  -3.177  -4.372  0.00  0.00    +0.078 A 
ATOM      5  C   UNL     1      -8.984  -2.780  -5.431  0.00  0.00    +0.143 A 
ATOM      6  C   UNL     1      -7.694  -2.338  -5.185  0.00  0.00    +0.070 A 
ENDROOT
BRANCH   4   7
ATOM      7  N   UNL     1     -11.105  -3.620  -4.618  0.00  0.00    -0.248 N 
ATOM      8  C   UNL     1     -12.040  -3.530  -3.652  0.00  0.00    +0.405 C 
ATOM      9  O   UNL     1     -11.780  -2.973  -2.604  0.00  0.00    -0.226 OA
ATOM     10  H   UNL     1     -11.336  -3.992  -5.484  0.00  0.00    +0.158 HD
BRANCH   8  11
ATOM     11  O   UNL     1     -13.264  -4.058  -3.848  0.00  0.00    -0.444 OA
BRANCH  11  12
ATOM     12  C   UNL     1     -14.206  -3.926  -2.781  0.00  0.00    +0.107 C 
ATOM     13  C   UNL     1     -14.440  -2.443  -2.489  0.00  0.00    +0.055 C 
ATOM     14  C   UNL     1     -15.528  -4.581  -3.185  0.00  0.00    +0.055 C 
ATOM     15  C   UNL     1     -13.657  -4.613  -1.529  0.00  0.00    +0.055 C 
ENDBRANCH  11  12
ENDBRANCH   8  11
ENDBRANCH   4   7
BRANCH   1  16
ATOM     16  N   UNL     1      -5.907  -1.860  -3.635  0.00  0.00    -0.335 N 
ATOM     17  H   UNL     1      -5.341  -1.579  -4.371  0.00  0.00    +0.147 HD
BRANCH  16  18
ATOM     18  C   UNL     1      -5.396  -1.821  -2.263  0.00  0.00    +0.198 C 
BRANCH  18  23
ATOM     19  N   UNL     1      -1.355  -0.614   0.044  0.00  0.00    -0.297 N 
ATOM     20  C   UNL     1      -2.033  -0.735  -1.115  0.00  0.00    +0.306 C 
ATOM     21  O   UNL     1      -1.499  -0.433  -2.164  0.00  0.00    -0.252 OA
ATOM     22  N   UNL     1      -3.301  -1.191  -1.109  0.00  0.00    -0.239 N 
ATOM     23  C   UNL     1      -3.978  -1.312  -2.268  0.00  0.00    +0.237 C 
ATOM     24  O   UNL     1      -3.446  -1.011  -3.316  0.00  0.00    -0.274 OA
ATOM     25  H   UNL     1      -1.781  -0.855   0.882  0.00  0.00    +0.151 HD
ATOM     26  H   UNL     1      -3.726  -1.431  -0.272  0.00  0.00    +0.159 HD
BRANCH  19  28
ATOM     27  C   UNL     1       0.016   1.411   0.053  0.00  0.00    +0.027 C 
ATOM     28  C   UNL     1       0.024  -0.119   0.039  0.00  0.00    +0.068 C 
ATOM     29  C   UNL     1       0.757  -0.637   1.278  0.00  0.00    +0.027 C 
ENDBRANCH  19  28
ENDBRANCH  18  23
ENDBRANCH  16  18
ENDBRANCH   1  16
BRANCH   5  30
ATOM     30  O   UNL     1      -9.458  -2.822  -6.705  0.00  0.00    -0.493 OA
ATOM     31  C   UNL     1      -8.569  -2.400  -7.742  0.00  0.00    +0.277 C 
ENDBRANCH   5  30
TORSDOF 8
