REMARK  Name = ZINC12677119
REMARK  4 active torsions:
REMARK  status: ('A' for Active; 'I' for Inactive)
REMARK    1  A    between atoms: C_6  and  N_7
REMARK    2  A    between atoms: C_8  and  C_10
REMARK    3  A    between atoms: C_10  and  S_11
REMARK    4  A    between atoms: S_11  and  C_12
REMARK                            x       y       z     vdW  Elec       q    Type
REMARK                         _______ _______ _______ _____ _____    ______ ____
ROOT
ATOM      1  N   UNL     1      -0.684  -5.272   0.007  0.00  0.00    -0.284 N 
ATOM      2  C   UNL     1       0.378  -4.442  -0.011  0.00  0.00    +0.228 C 
ATOM      3  O   UNL     1       1.502  -4.896  -0.021  0.00  0.00    -0.275 OA
ATOM      4  H   UNL     1      -1.580  -4.912   0.095  0.00  0.00    +0.155 HD
ENDROOT
BRANCH   1  10
ATOM      5  C   UNL     1       0.643  -7.151  -0.726  0.00  0.00    +0.052 A 
ATOM      6  C   UNL     1       0.829  -8.520  -0.833  0.00  0.00    +0.069 A 
ATOM      7  C   UNL     1      -0.127  -9.396  -0.314  0.00  0.00    +0.068 A 
ATOM      8  C   UNL     1      -1.260  -8.896   0.308  0.00  0.00    +0.045 A 
ATOM      9  C   UNL     1      -1.441  -7.531   0.418  0.00  0.00    +0.041 A 
ATOM     10  C   UNL     1      -0.493  -6.656  -0.103  0.00  0.00    +0.050 A 
ATOM     11 BR   UNL     1      -2.984  -6.850   1.272  0.00  0.00    -0.048 Br
ATOM     12  N   UNL     1       0.331 -10.689  -0.570  0.00  0.00    -0.306 N 
ATOM     13  H   UNL     1      -0.122 -11.510  -0.326  0.00  0.00    +0.170 HD
ATOM     14  C   UNL     1       1.510 -10.601  -1.214  0.00  0.00    +0.325 A 
ATOM     15  O   UNL     1       2.179 -11.548  -1.584  0.00  0.00    -0.247 OA
ATOM     16  N   UNL     1       1.837  -9.306  -1.387  0.00  0.00    -0.306 N 
ATOM     17  H   UNL     1       2.638  -8.977  -1.824  0.00  0.00    +0.170 HD
ENDBRANCH   1  10
BRANCH   2  18
ATOM     18  C   UNL     1       0.167  -2.950  -0.018  0.00  0.00    +0.173 C 
BRANCH  18  19
ATOM     19  S   UNL     1       1.773  -2.115  -0.042  0.00  0.00    -0.077 S 
BRANCH  19  20
ATOM     20  C   UNL     1       1.243  -0.434  -0.047  0.00  0.00    +0.192 A 
ATOM     21  N   UNL     1       0.001  -0.004  -0.035  0.00  0.00    -0.122 NA
ATOM     22  N   UNL     1      -0.017   1.283  -0.038  0.00  0.00    -0.134 NA
ATOM     23  C   UNL     1       1.199   1.743  -0.047  0.00  0.00    +0.134 A 
ATOM     24  N   UNL     1       2.041   0.668  -0.064  0.00  0.00    -0.306 N 
ATOM     25  C   UNL     1       3.503   0.708  -0.102  0.00  0.00    +0.125 C 
ATOM     26  C   UNL     1       3.991   2.000   0.561  0.00  0.00    +0.022 C 
ATOM     27  C   UNL     1       4.085   3.111  -0.482  0.00  0.00    +0.002 C 
ATOM     28  C   UNL     1       2.715   3.398  -1.088  0.00  0.00    +0.008 C 
ATOM     29  C   UNL     1       1.629   3.187  -0.029  0.00  0.00    +0.076 C 
ENDBRANCH  19  20
ENDBRANCH  18  19
ENDBRANCH   2  18
TORSDOF 4
