REMARK  Name = ZINC63907071
REMARK  5 active torsions:
REMARK  status: ('A' for Active; 'I' for Inactive)
REMARK    1  A    between atoms: C_1  and  S_2
REMARK    2  A    between atoms: S_2  and  C_3
REMARK    3  A    between atoms: C_4  and  C_10
REMARK    4  A    between atoms: C_5  and  N_9
REMARK    5  A    between atoms: C_13  and  N_16
REMARK                            x       y       z     vdW  Elec       q    Type
REMARK                         _______ _______ _______ _____ _____    ______ ____
ROOT
ATOM      1  C   UNL     1       0.848  -0.411  -1.489  0.00  0.00    +0.126 C 
ATOM      2  C   UNL     1       1.099  -1.677  -1.921  0.00  0.00    +0.033 C 
ATOM      3  C   UNL     1       1.839  -1.468  -3.231  0.00  0.00    +0.226 C 
ATOM      4  N   UNL     1       1.899  -0.002  -3.351  0.00  0.00    -0.163 NA
ATOM      5  N   UNL     1       1.336   0.489  -2.371  0.00  0.00    -0.145 NA
ENDROOT
BRANCH   2   6
ATOM      6  C   UNL     1       0.740  -2.946  -1.272  0.00  0.00    -0.016 A 
ATOM      7  C   UNL     1       1.740  -3.803  -0.801  0.00  0.00    +0.010 A 
ATOM      8  C   UNL     1       1.395  -4.992  -0.194  0.00  0.00    +0.033 A 
ATOM      9  C   UNL     1       0.062  -5.338  -0.050  0.00  0.00    +0.126 A 
ATOM     10  C   UNL     1      -0.933  -4.496  -0.513  0.00  0.00    +0.033 A 
ATOM     11  C   UNL     1      -0.605  -3.301  -1.118  0.00  0.00    +0.010 A 
BRANCH   9  12
ATOM     12  N   UNL     1      -0.300  -6.616   0.604  0.00  0.00    +0.056 N 
ATOM     13  O   UNL     1       0.567  -7.355   1.009  0.00  0.00    -0.126 OA
ATOM     14  O   UNL     1      -1.462  -6.922   0.731  0.00  0.00    -0.126 OA
ENDBRANCH   9  12
ENDBRANCH   2   6
BRANCH   3  15
ATOM     15  N   UNL     1       1.088  -2.053  -4.350  0.00  0.00    -0.304 NA
ATOM     16  H   UNL     1       1.576  -1.917  -5.223  0.00  0.00    +0.121 HD
ATOM     17  H   UNL     1       0.903  -3.032  -4.188  0.00  0.00    +0.121 HD
ENDBRANCH   3  15
BRANCH   1  19
ATOM     18  C   UNL     1      -0.022   1.810   0.012  0.00  0.00    +0.091 C 
ATOM     19  S   UNL     1       0.002  -0.004   0.002  0.00  0.00    -0.107 S 
ENDBRANCH   1  19
TORSDOF 4
