REMARK  Name = ZINC38185109
REMARK  11 active torsions:
REMARK  status: ('A' for Active; 'I' for Inactive)
REMARK    1  A    between atoms: C_1  and  C_2
REMARK    2  A    between atoms: C_2  and  O_3
REMARK    3  A    between atoms: O_3  and  C_4
REMARK    4  A    between atoms: C_6  and  C_13
REMARK    5  A    between atoms: C_9  and  O_10
REMARK    6  A    between atoms: O_10  and  C_11
REMARK    7  A    between atoms: C_15  and  C_24
REMARK    8  A    between atoms: C_16  and  C_23
REMARK    9  A    between atoms: N_26  and  C_27
REMARK   10  A    between atoms: C_30  and  C_34
REMARK   11  A    between atoms: C_32  and  C_33
REMARK                            x       y       z     vdW  Elec       q    Type
REMARK                         _______ _______ _______ _____ _____    ______ ____
ROOT
ATOM      1  C   UNL     1       1.355  -5.979   0.569  0.00  0.00    +0.179 C 
ATOM      2  C   UNL     1       0.604  -6.705   1.654  0.00  0.00    +0.060 C 
ATOM      3  C   UNL     1       0.121  -7.947   1.505  0.00  0.00    +0.018 C 
ATOM      4  N   UNL     1       0.286  -8.664   0.345  0.00  0.00    -0.286 N 
ATOM      5  C   UNL     1       1.189  -8.172  -0.586  0.00  0.00    +0.240 A 
ATOM      6  N   UNL     1       1.702  -6.917  -0.491  0.00  0.00    -0.201 N 
ATOM      7  N   UNL     1       2.564  -6.782  -1.578  0.00  0.00    -0.042 NA
ATOM      8  N   UNL     1       2.515  -7.901  -2.227  0.00  0.00    -0.021 NA
ATOM      9  N   UNL     1       1.706  -8.721  -1.648  0.00  0.00    -0.092 NA
ATOM     10  C   UNL     1      -0.628  -8.579   2.650  0.00  0.00    +0.061 C 
ATOM     11  H   UNL     1      -0.209  -9.482   0.183  0.00  0.00    +0.155 HD
ENDROOT
BRANCH   1  14
ATOM     12  C   UNL     1       0.088  -2.552  -0.394  0.00  0.00    +0.163 A 
ATOM     13  C   UNL     1       0.883  -3.562   0.124  0.00  0.00    +0.055 A 
ATOM     14  C   UNL     1       0.488  -4.882   0.006  0.00  0.00    -0.014 A 
ATOM     15  C   UNL     1      -0.699  -5.197  -0.628  0.00  0.00    +0.025 A 
ATOM     16  C   UNL     1      -1.497  -4.194  -1.147  0.00  0.00    +0.063 A 
ATOM     17  C   UNL     1      -1.110  -2.868  -1.027  0.00  0.00    +0.175 A 
ATOM     18 BR   UNL     1      -3.119  -4.630  -2.015  0.00  0.00    -0.046 Br
BRANCH  17  19
ATOM     19  O   UNL     1      -1.896  -1.880  -1.532  0.00  0.00    -0.490 OA
ATOM     20  C   UNL     1      -1.660  -1.492  -2.886  0.00  0.00    +0.277 C 
ENDBRANCH  17  19
BRANCH  12  21
ATOM     21  O   UNL     1       0.475  -1.253  -0.279  0.00  0.00    -0.489 OA
BRANCH  21  23
ATOM     22  C   UNL     1       2.061   0.492   0.252  0.00  0.00    +0.048 C 
ATOM     23  C   UNL     1       1.764  -1.009   0.289  0.00  0.00    +0.226 C 
ENDBRANCH  21  23
ENDBRANCH  12  21
ENDBRANCH   1  14
BRANCH   2  24
ATOM     24  C   UNL     1       0.398  -6.045   2.888  0.00  0.00    +0.248 C 
ATOM     25  O   UNL     1       1.313  -5.945   3.685  0.00  0.00    -0.270 OA
ATOM     26  N   UNL     1      -0.812  -5.528   3.182  0.00  0.00    -0.281 N 
ATOM     27  H   UNL     1      -1.559  -5.669   2.580  0.00  0.00    +0.155 HD
BRANCH  26  28
ATOM     28  C   UNL     1      -0.989  -4.788   4.356  0.00  0.00    +0.037 A 
ATOM     29  C   UNL     1       0.110  -4.243   5.008  0.00  0.00    +0.024 A 
ATOM     30  C   UNL     1      -0.068  -3.512   6.166  0.00  0.00    +0.005 A 
ATOM     31  C   UNL     1      -1.339  -3.323   6.676  0.00  0.00    -0.050 A 
ATOM     32  C   UNL     1      -2.435  -3.864   6.030  0.00  0.00    +0.008 A 
ATOM     33  C   UNL     1      -2.264  -4.591   4.869  0.00  0.00    -0.029 A 
ATOM     34  C   UNL     1      -3.460  -5.176   4.162  0.00  0.00    +0.045 C 
ATOM     35  C   UNL     1      -1.530  -2.525   7.941  0.00  0.00    +0.044 C 
ENDBRANCH  26  28
ENDBRANCH   2  24
TORSDOF 6
