REMARK  Name = ZINC16698846
REMARK  9 active torsions:
REMARK  status: ('A' for Active; 'I' for Inactive)
REMARK    1  A    between atoms: C_1  and  C_2
REMARK    2  A    between atoms: C_2  and  C_3
REMARK    3  A    between atoms: C_3  and  N_4
REMARK    4  A    between atoms: C_5  and  N_30
REMARK    5  A    between atoms: C_6  and  C_13
REMARK    6  A    between atoms: C_13  and  C_15
REMARK    7  A    between atoms: C_15  and  S_16
REMARK    8  A    between atoms: S_16  and  C_17
REMARK    9  A    between atoms: N_22  and  C_23
REMARK                            x       y       z     vdW  Elec       q    Type
REMARK                         _______ _______ _______ _____ _____    ______ ____
ROOT
ATOM      1  C   UNL     1       5.202   4.572  -1.398  0.00  0.00    +0.182 C 
ATOM      2  O   UNL     1       4.924   5.734  -1.178  0.00  0.00    -0.291 OA
ENDROOT
BRANCH   1   5
ATOM      3  N   UNL     1       8.842   4.540  -0.820  0.00  0.00    -0.281 N 
ATOM      4  C   UNL     1       7.559   5.002  -0.874  0.00  0.00    +0.116 A 
ATOM      5  C   UNL     1       6.544   4.143  -1.330  0.00  0.00    +0.120 A 
ATOM      6  C   UNL     1       6.928   2.785  -1.739  0.00  0.00    +0.266 A 
ATOM      7  O   UNL     1       6.092   2.000  -2.147  0.00  0.00    -0.267 OA
ATOM      8  N   UNL     1       8.226   2.427  -1.653  0.00  0.00    -0.274 N 
ATOM      9  H   UNL     1       8.502   1.506  -1.928  0.00  0.00    +0.173 HD
ATOM     10  C   UNL     1       9.150   3.291  -1.204  0.00  0.00    +0.331 A 
ATOM     11  O   UNL     1      10.309   2.928  -1.142  0.00  0.00    -0.246 OA
BRANCH   4  12
ATOM     12  N   UNL     1       7.265   6.273  -0.486  0.00  0.00    -0.344 N 
ATOM     13  H   UNL     1       6.371   6.493  -0.181  0.00  0.00    +0.144 HD
ATOM     14  H   UNL     1       7.950   6.960  -0.515  0.00  0.00    +0.144 HD
ENDBRANCH   4  12
BRANCH   3  15
ATOM     15  C   UNL     1       9.906   5.426  -0.340  0.00  0.00    +0.128 C 
BRANCH  15  17
ATOM     16  C   UNL     1      11.604   7.128  -1.019  0.00  0.00    +0.005 C 
ATOM     17  C   UNL     1      10.494   6.202  -1.520  0.00  0.00    +0.018 C 
ENDBRANCH  15  17
ENDBRANCH   3  15
ENDBRANCH   1   5
BRANCH   1  18
ATOM     18  C   UNL     1       4.113   3.589  -1.744  0.00  0.00    +0.156 C 
BRANCH  18  19
ATOM     19  S   UNL     1       2.511   4.439  -1.751  0.00  0.00    -0.089 S 
BRANCH  19  20
ATOM     20  C   UNL     1       1.358   3.173  -2.166  0.00  0.00    +0.160 A 
ATOM     21  N   UNL     1       1.574   1.896  -2.419  0.00  0.00    -0.133 NA
ATOM     22  N   UNL     1       0.516   1.071  -2.726  0.00  0.00    -0.125 NA
ATOM     23  C   UNL     1      -0.708   1.561  -2.767  0.00  0.00    +0.187 A 
ATOM     24  S   UNL     1      -0.415   3.275  -2.358  0.00  0.00    -0.024 S 
ATOM     25  N   UNL     1      -1.906   0.915  -3.052  0.00  0.00    -0.292 N 
ATOM     26  H   UNL     1      -2.726   1.427  -3.127  0.00  0.00    +0.154 HD
BRANCH  25  27
ATOM     27  C   UNL     1      -1.927  -0.471  -3.230  0.00  0.00    +0.034 A 
ATOM     28  C   UNL     1      -0.998  -1.271  -2.577  0.00  0.00    +0.023 A 
ATOM     29  C   UNL     1      -1.022  -2.640  -2.755  0.00  0.00    +0.003 A 
ATOM     30  C   UNL     1      -1.969  -3.216  -3.581  0.00  0.00    +0.015 A 
ATOM     31  C   UNL     1      -2.897  -2.422  -4.232  0.00  0.00    +0.020 A 
ATOM     32  C   UNL     1      -2.881  -1.052  -4.055  0.00  0.00    +0.038 A 
ATOM     33 BR   UNL     1      -4.191  -3.214  -5.361  0.00  0.00    -0.050 Br
ENDBRANCH  25  27
ENDBRANCH  19  20
ENDBRANCH  18  19
ENDBRANCH   1  18
TORSDOF 8
