REMARK  Name = ZINC37896769
REMARK  7 active torsions:
REMARK  status: ('A' for Active; 'I' for Inactive)
REMARK    1  A    between atoms: C_1  and  C_2
REMARK    2  A    between atoms: C_2  and  C_3
REMARK    3  A    between atoms: C_2  and  C_4
REMARK    4  A    between atoms: C_4  and  C_6
REMARK    5  A    between atoms: C_4  and  N_16
REMARK    6  A    between atoms: C_11  and  C_14
REMARK    7  A    between atoms: C_14  and  O_15
REMARK                            x       y       z     vdW  Elec       q    Type
REMARK                         _______ _______ _______ _____ _____    ______ ____
ROOT
ATOM      1  C   UNL     1      -1.413  -0.579   0.108  0.00  0.00    +0.163 C 
ENDROOT
BRANCH   1   2
ATOM      2  C   UNL     1      -1.212  -2.069   0.214  0.00  0.00    +0.236 C 
ATOM      3  O   UNL     1      -1.578  -2.795  -0.685  0.00  0.00    -0.274 OA
ATOM      4  N   UNL     1      -0.626  -2.593   1.309  0.00  0.00    -0.300 N 
ATOM      5  C   UNL     1      -0.079  -1.720   2.356  0.00  0.00    +0.108 C 
ATOM      6  C   UNL     1       1.381  -2.109   2.610  0.00  0.00    +0.025 C 
ATOM      7  C   UNL     1       1.457  -3.603   2.933  0.00  0.00    +0.017 C 
ATOM      8  C   UNL     1       0.942  -4.412   1.740  0.00  0.00    +0.025 C 
ATOM      9  C   UNL     1      -0.528  -4.049   1.480  0.00  0.00    +0.108 C 
BRANCH   7  10
ATOM     10  C   UNL     1       2.910  -3.989   3.220  0.00  0.00    +0.159 C 
BRANCH  10  11
ATOM     11  O   UNL     1       2.967  -5.355   3.636  0.00  0.00    -0.395 OA
ATOM     12  H   UNL     1       3.860  -5.668   3.835  0.00  0.00    +0.209 HD
ENDBRANCH  10  11
ENDBRANCH   7  10
ENDBRANCH   1   2
BRANCH   1  13
ATOM     13  N   UNL     1      -2.697  -0.304  -0.542  0.00  0.00    -0.288 N 
ATOM     14  C   UNL     1      -3.332   0.863  -0.313  0.00  0.00    +0.298 C 
ATOM     15  O   UNL     1      -2.839   1.688   0.431  0.00  0.00    -0.253 OA
ATOM     16  N   UNL     1      -4.513   1.115  -0.911  0.00  0.00    -0.313 N 
ATOM     17  H   UNL     1      -3.091  -0.962  -1.136  0.00  0.00    +0.151 HD
ATOM     18  H   UNL     1      -4.907   0.458  -1.505  0.00  0.00    +0.146 HD
ATOM     19  H   UNL     1      -4.970   1.955  -0.747  0.00  0.00    +0.146 HD
ENDBRANCH   1  13
BRANCH   1  21
ATOM     20  C   UNL     1      -0.426   1.553  -0.742  0.00  0.00    +0.009 C 
ATOM     21  C   UNL     1      -0.281   0.030  -0.722  0.00  0.00    +0.012 C 
ATOM     22  C   UNL     1       1.066  -0.345  -0.101  0.00  0.00    +0.009 C 
ENDBRANCH   1  21
TORSDOF 5
