REMARK  Name = ZINC64311152
REMARK  10 active torsions:
REMARK  status: ('A' for Active; 'I' for Inactive)
REMARK    1  A    between atoms: C_1  and  C_2
REMARK    2  A    between atoms: C_2  and  C_3
REMARK    3  A    between atoms: C_3  and  C_4
REMARK    4  A    between atoms: C_4  and  C_5
REMARK    5  A    between atoms: C_4  and  N_19
REMARK    6  A    between atoms: N_7  and  C_8
REMARK    7  A    between atoms: C_10  and  O_17
REMARK    8  A    between atoms: C_11  and  O_15
REMARK    9  A    between atoms: O_15  and  C_16
REMARK   10  A    between atoms: O_17  and  C_18
REMARK                            x       y       z     vdW  Elec       q    Type
REMARK                         _______ _______ _______ _____ _____    ______ ____
ROOT
ATOM      1  C   UNL     1       1.381  -2.545   2.511  0.00  0.00    +0.238 C 
ATOM      2  O   UNL     1       2.542  -2.897   2.526  0.00  0.00    -0.273 OA
ATOM      3  N   UNL     1       0.649  -2.591   3.642  0.00  0.00    -0.283 N 
ATOM      4  H   UNL     1      -0.254  -2.236   3.650  0.00  0.00    +0.155 HD
ENDROOT
BRANCH   3   5
ATOM      5  C   UNL     1       1.191  -3.154   4.805  0.00  0.00    +0.051 A 
ATOM      6  C   UNL     1       2.208  -4.095   4.712  0.00  0.00    +0.073 A 
ATOM      7  C   UNL     1       2.744  -4.649   5.863  0.00  0.00    +0.163 A 
ATOM      8  C   UNL     1       2.261  -4.263   7.110  0.00  0.00    +0.163 A 
ATOM      9  C   UNL     1       1.245  -3.325   7.199  0.00  0.00    +0.066 A 
ATOM     10  C   UNL     1       0.715  -2.767   6.051  0.00  0.00    +0.043 A 
ATOM     11 BR   UNL     1      -0.665  -1.480   6.177  0.00  0.00    -0.048 Br
BRANCH   8  12
ATOM     12  O   UNL     1       2.786  -4.808   8.241  0.00  0.00    -0.491 OA
ATOM     13  C   UNL     1       2.243  -4.366   9.486  0.00  0.00    +0.277 C 
ENDBRANCH   8  12
BRANCH   7  14
ATOM     14  O   UNL     1       3.740  -5.571   5.774  0.00  0.00    -0.491 OA
ATOM     15  C   UNL     1       4.186  -5.920   4.462  0.00  0.00    +0.277 C 
ENDBRANCH   7  14
ENDBRANCH   3   5
BRANCH   1  16
ATOM     16  C   UNL     1       0.758  -2.055   1.230  0.00  0.00    +0.161 C 
BRANCH  16  17
ATOM     17  N   UNL     1       1.548  -2.529   0.090  0.00  0.00    -0.288 N 
ATOM     18  C   UNL     1       2.844  -2.179  -0.023  0.00  0.00    +0.298 C 
ATOM     19  O   UNL     1       3.358  -1.469   0.820  0.00  0.00    -0.253 OA
ATOM     20  N   UNL     1       3.570  -2.615  -1.071  0.00  0.00    -0.313 N 
ATOM     21  H   UNL     1       1.137  -3.095  -0.582  0.00  0.00    +0.151 HD
ATOM     22  H   UNL     1       3.160  -3.181  -1.744  0.00  0.00    +0.146 HD
ATOM     23  H   UNL     1       4.504  -2.363  -1.153  0.00  0.00    +0.146 HD
ENDBRANCH  16  17
BRANCH  16  24
ATOM     24  C   UNL     1       0.729  -0.525   1.229  0.00  0.00    +0.031 C 
BRANCH  24  26
ATOM     25  C   UNL     1      -0.043   1.500  -0.014  0.00  0.00    +0.004 C 
ATOM     26  C   UNL     1      -0.015  -0.030  -0.013  0.00  0.00    -0.001 C 
ENDBRANCH  24  26
ENDBRANCH  16  24
ENDBRANCH   1  16
TORSDOF 7
