REMARK  Name = ZINC05276371
REMARK  7 active torsions:
REMARK  status: ('A' for Active; 'I' for Inactive)
REMARK    1  A    between atoms: C_1  and  C_2
REMARK    2  A    between atoms: C_15  and  O_31
REMARK    3  A    between atoms: C_18  and  C_30
REMARK    4  A    between atoms: C_23  and  C_25
REMARK    5  A    between atoms: C_25  and  C_27
REMARK    6  A    between atoms: C_25  and  O_29
REMARK    7  A    between atoms: C_27  and  O_28
REMARK                            x       y       z     vdW  Elec       q    Type
REMARK                         _______ _______ _______ _____ _____    ______ ____
ROOT
ATOM      1  C   UNL     1      -5.234   1.132   0.056  0.00  0.00    +0.016 C 
ATOM      2  C   UNL     1      -5.436   2.341  -0.865  0.00  0.00    -0.005 C 
ATOM      3  C   UNL     1      -6.741   2.960  -0.392  0.00  0.00    +0.019 C 
ATOM      4  C   UNL     1      -7.572   3.553  -1.522  0.00  0.00    +0.080 C 
ATOM      5  C   UNL     1      -7.789   2.485  -2.574  0.00  0.00    +0.156 C 
ATOM      6  O   UNL     1      -8.887   2.255  -3.039  0.00  0.00    -0.293 OA
ATOM      7  C   UNL     1      -6.597   1.738  -2.997  0.00  0.00    +0.046 C 
ATOM      8  C   UNL     1      -5.498   1.785  -2.252  0.00  0.00    -0.060 C 
ATOM      9  C   UNL     1      -4.202   1.262  -2.852  0.00  0.00    +0.032 C 
ATOM     10  C   UNL     1      -3.237   2.450  -2.854  0.00  0.00    +0.008 C 
ATOM     11  C   UNL     1      -2.999   2.945  -1.430  0.00  0.00    -0.001 C 
ATOM     12  C   UNL     1      -4.277   3.305  -0.690  0.00  0.00    +0.031 C 
ATOM     13  C   UNL     1      -4.057   3.664   0.771  0.00  0.00    +0.119 C 
ATOM     14  C   UNL     1      -3.028   2.828   1.528  0.00  0.00    +0.039 C 
ATOM     15  C   UNL     1      -1.784   2.594   0.716  0.00  0.00    -0.021 C 
ATOM     16  C   UNL     1      -2.174   1.963  -0.641  0.00  0.00    -0.001 C 
ATOM     17  C   UNL     1      -0.802   1.605  -1.231  0.00  0.00    +0.005 C 
ATOM     18  C   UNL     1      -0.013   1.080  -0.002  0.00  0.00    +0.007 C 
ATOM     19  C   UNL     1      -0.765   1.585   1.257  0.00  0.00    +0.026 C 
ATOM     20  C   UNL     1      -1.035   3.919   0.517  0.00  0.00    +0.012 C 
ENDROOT
BRANCH  13  21
ATOM     21  O   UNL     1      -3.713   5.055   0.864  0.00  0.00    -0.391 OA
ATOM     22  H   UNL     1      -3.556   5.362   1.767  0.00  0.00    +0.210 HD
ENDBRANCH  13  21
BRANCH  19  23
ATOM     23  C   UNL     1      -1.442   0.417   1.967  0.00  0.00    +0.143 C 
BRANCH  23  24
ATOM     24  O   UNL     1      -2.159   0.901   3.104  0.00  0.00    -0.389 OA
ATOM     25  H   UNL     1      -1.604   1.348   3.758  0.00  0.00    +0.210 HD
ENDBRANCH  23  24
BRANCH  23  26
ATOM     26  C   UNL     1      -0.382  -0.588   2.422  0.00  0.00    +0.187 C 
BRANCH  26  27
ATOM     27  O   UNL     1      -1.022  -1.736   2.982  0.00  0.00    -0.392 OA
ATOM     28  H   UNL     1      -0.409  -2.416   3.292  0.00  0.00    +0.210 HD
ENDBRANCH  26  27
ENDBRANCH  23  26
ENDBRANCH  19  23
TORSDOF 5
