REMARK  Name = ZINC39379834
REMARK  11 active torsions:
REMARK  status: ('A' for Active; 'I' for Inactive)
REMARK    1  A    between atoms: C_1  and  C_2
REMARK    2  A    between atoms: C_2  and  C_3
REMARK    3  A    between atoms: C_3  and  C_4
REMARK    4  A    between atoms: C_4  and  S_5
REMARK    5  A    between atoms: S_5  and  C_6
REMARK    6  A    between atoms: C_12  and  C_25
REMARK    7  A    between atoms: C_14  and  C_20
REMARK    8  A    between atoms: C_15  and  C_19
REMARK    9  A    between atoms: C_20  and  O_22
REMARK   10  A    between atoms: O_22  and  C_23
REMARK   11  A    between atoms: C_23  and  C_24
REMARK                            x       y       z     vdW  Elec       q    Type
REMARK                         _______ _______ _______ _____ _____    ______ ____
ROOT
ATOM      1  C   UNL     1       1.393  -4.419   2.974  0.00  0.00    +0.182 C 
ATOM      2  N   UNL     1       0.703  -4.847   1.931  0.00  0.00    -0.154 NA
ATOM      3  C   UNL     1       0.615  -6.138   1.613  0.00  0.00    +0.250 C 
ATOM      4  O   UNL     1      -0.015  -6.512   0.643  0.00  0.00    -0.273 OA
ATOM      5  C   UNL     1       1.338  -7.121   2.515  0.00  0.00    +0.152 C 
ATOM      6  C   UNL     1       2.363  -7.861   1.652  0.00  0.00    +0.077 C 
ATOM      7  C   UNL     1       3.299  -8.654   2.521  0.00  0.00    +0.062 C 
ATOM      8  C   UNL     1       3.522  -8.371   3.811  0.00  0.00    +0.017 C 
ATOM      9  N   UNL     1       2.877  -7.324   4.434  0.00  0.00    -0.305 N 
ATOM     10  C   UNL     1       2.125  -6.496   3.657  0.00  0.00    +0.115 C 
ATOM     11  N   UNL     1       2.097  -5.203   3.800  0.00  0.00    -0.213 NA
ATOM     12  C   UNL     1       4.496  -9.213   4.596  0.00  0.00    +0.061 C 
ATOM     13  H   UNL     1       2.948  -7.185   5.391  0.00  0.00    +0.153 HD
ENDROOT
BRANCH   6  14
ATOM     14  C   UNL     1       1.644  -8.796   0.715  0.00  0.00    -0.036 A 
ATOM     15  C   UNL     1       0.839  -9.799   1.222  0.00  0.00    +0.004 A 
ATOM     16  C   UNL     1       0.179 -10.658   0.364  0.00  0.00    +0.003 A 
ATOM     17  C   UNL     1       0.323 -10.515  -1.004  0.00  0.00    +0.038 A 
ATOM     18  C   UNL     1       1.129  -9.511  -1.513  0.00  0.00    +0.124 A 
ATOM     19  C   UNL     1       1.785  -8.648  -0.652  0.00  0.00    +0.042 A 
ATOM     20  F   UNL     1       1.271  -9.371  -2.849  0.00  0.00    -0.205 F 
ENDBRANCH   6  14
BRANCH   7  21
ATOM     21  C   UNL     1       3.978  -9.755   1.946  0.00  0.00    +0.337 C 
ATOM     22  O   UNL     1       4.973  -9.570   1.270  0.00  0.00    -0.245 OA
BRANCH  21  23
ATOM     23  O   UNL     1       3.522 -11.008   2.148  0.00  0.00    -0.462 OA
BRANCH  23  24
ATOM     24  C   UNL     1       4.257 -12.072   1.538  0.00  0.00    +0.229 C 
ATOM     25  C   UNL     1       3.594 -13.409   1.877  0.00  0.00    +0.048 C 
ENDBRANCH  23  24
ENDBRANCH  21  23
ENDBRANCH   7  21
BRANCH   1  26
ATOM     26  S   UNL     1       1.393  -2.687   3.297  0.00  0.00    -0.088 S 
BRANCH  26  27
ATOM     27  C   UNL     1       0.349  -1.996   1.984  0.00  0.00    +0.077 C 
BRANCH  27  28
ATOM     28  C   UNL     1       0.262  -0.477   2.148  0.00  0.00    +0.011 C 
BRANCH  28  30
ATOM     29  C   UNL     1      -0.705   1.625   1.205  0.00  0.00    +0.004 C 
ATOM     30  C   UNL     1      -0.618   0.106   1.041  0.00  0.00    -0.003 C 
ENDBRANCH  28  30
ENDBRANCH  27  28
ENDBRANCH  26  27
ENDBRANCH   1  26
TORSDOF 8
