REMARK  Name = ZINC59723498
REMARK  15 active torsions:
REMARK  status: ('A' for Active; 'I' for Inactive)
REMARK    1  A    between atoms: C_1  and  C_2
REMARK    2  A    between atoms: C_2  and  N_3
REMARK    3  A    between atoms: N_6  and  C_9
REMARK    4  A    between atoms: C_12  and  C_31
REMARK    5  A    between atoms: C_14  and  N_15
REMARK    6  A    between atoms: N_15  and  C_16
REMARK    7  A    between atoms: C_16  and  N_18
REMARK    8  A    between atoms: C_19  and  C_21
REMARK    9  A    between atoms: C_24  and  C_27
REMARK   10  A    between atoms: C_27  and  C_28
REMARK   11  A    between atoms: C_27  and  C_29
REMARK   12  A    between atoms: C_27  and  C_30
REMARK   13  A    between atoms: C_31  and  O_33
REMARK   14  A    between atoms: O_33  and  C_34
REMARK   15  A    between atoms: C_34  and  C_35
REMARK                            x       y       z     vdW  Elec       q    Type
REMARK                         _______ _______ _______ _____ _____    ______ ____
ROOT
ATOM      1  C   UNL     1       3.846  -2.558  -2.993  0.00  0.00    +0.051 A 
ATOM      2  C   UNL     1       4.540  -3.192  -1.968  0.00  0.00    +0.026 A 
ATOM      3  C   UNL     1       5.418  -4.213  -2.255  0.00  0.00    +0.017 A 
ATOM      4  C   UNL     1       5.614  -4.616  -3.579  0.00  0.00    +0.061 A 
ATOM      5  C   UNL     1       4.917  -3.981  -4.612  0.00  0.00    +0.040 A 
ATOM      6  C   UNL     1       4.033  -2.960  -4.318  0.00  0.00    +0.055 A 
ENDROOT
BRANCH   1  10
ATOM      7  N   UNL     1       1.489   0.330  -1.213  0.00  0.00    +0.382 N 
ATOM      8  C   UNL     1       2.942   0.500  -1.343  0.00  0.00    -0.060 C 
ATOM      9  C   UNL     1       3.413  -0.128  -2.660  0.00  0.00    +0.086 C 
ATOM     10  N   UNL     1       2.959  -1.527  -2.698  0.00  0.00    -0.332 N 
ATOM     11  C   UNL     1       1.543  -1.804  -2.415  0.00  0.00    +0.086 C 
ATOM     12  C   UNL     1       1.160  -1.098  -1.110  0.00  0.00    -0.060 C 
ATOM     13  H   UNL     1       1.033   0.721  -2.023  0.00  0.00    -0.082 HD
BRANCH   7  15
ATOM     14  C   UNL     1       1.252   2.530  -0.165  0.00  0.00    -0.017 C 
ATOM     15  C   UNL     1       1.023   1.026  -0.006  0.00  0.00    -0.082 C 
ENDBRANCH   7  15
ENDBRANCH   1  10
BRANCH   6  16
ATOM     16  N   UNL     1       3.329  -2.325  -5.350  0.00  0.00    -0.295 N 
ATOM     17  H   UNL     1       2.373  -2.180  -5.267  0.00  0.00    +0.154 HD
BRANCH  16  18
ATOM     18  C   UNL     1       3.980  -1.914  -6.456  0.00  0.00    +0.141 C 
ATOM     19  S   UNL     1       5.644  -2.266  -6.651  0.00  0.00    -0.018 S 
BRANCH  18  20
ATOM     20  N   UNL     1       3.320  -1.226  -7.409  0.00  0.00    -0.264 N 
ATOM     21  C   UNL     1       3.971  -0.815  -8.516  0.00  0.00    +0.250 C 
ATOM     22  O   UNL     1       5.152  -1.065  -8.654  0.00  0.00    -0.270 OA
ATOM     23  H   UNL     1       2.377  -1.026  -7.299  0.00  0.00    +0.157 HD
BRANCH  21  24
ATOM     24  C   UNL     1       3.248  -0.061  -9.561  0.00  0.00    +0.037 A 
ATOM     25  C   UNL     1       1.892   0.233  -9.402  0.00  0.00    +0.013 A 
ATOM     26  C   UNL     1       1.223   0.938 -10.382  0.00  0.00    +0.005 A 
ATOM     27  C   UNL     1       1.893   1.354 -11.519  0.00  0.00    -0.042 A 
ATOM     28  C   UNL     1       3.236   1.066 -11.682  0.00  0.00    +0.005 A 
ATOM     29  C   UNL     1       3.919   0.366 -10.708  0.00  0.00    +0.013 A 
BRANCH  27  30
ATOM     30  C   UNL     1       1.156   2.124 -12.584  0.00  0.00    -0.013 C 
ATOM     31  C   UNL     1       0.600   3.418 -11.986  0.00  0.00    +0.015 C 
ATOM     32  C   UNL     1       2.116   2.461 -13.726  0.00  0.00    +0.015 C 
ATOM     33  C   UNL     1       0.003   1.274 -13.121  0.00  0.00    +0.015 C 
ENDBRANCH  27  30
ENDBRANCH  21  24
ENDBRANCH  18  20
ENDBRANCH  16  18
ENDBRANCH   6  16
BRANCH   4  34
ATOM     34  C   UNL     1       6.554  -5.709  -3.886  0.00  0.00    +0.339 C 
ATOM     35  O   UNL     1       6.724  -6.059  -5.037  0.00  0.00    -0.245 OA
BRANCH  34  36
ATOM     36  O   UNL     1       7.226  -6.320  -2.890  0.00  0.00    -0.461 OA
BRANCH  36  37
ATOM     37  C   UNL     1       8.121  -7.371  -3.261  0.00  0.00    +0.229 C 
ATOM     38  C   UNL     1       8.787  -7.939  -2.006  0.00  0.00    +0.048 C 
ENDBRANCH  36  37
ENDBRANCH  34  36
ENDBRANCH   4  34
TORSDOF 10
