REMARK  Name = ZINC06663775
REMARK  11 active torsions:
REMARK  status: ('A' for Active; 'I' for Inactive)
REMARK    1  A    between atoms: C_1  and  C_2
REMARK    2  A    between atoms: C_2  and  C_4
REMARK    3  A    between atoms: C_2  and  N_16
REMARK    4  A    between atoms: N_16  and  C_17
REMARK    5  A    between atoms: C_17  and  C_18
REMARK    6  A    between atoms: C_18  and  C_19
REMARK    7  A    between atoms: C_19  and  C_20
REMARK    8  A    between atoms: C_20  and  C_21
REMARK    9  A    between atoms: C_21  and  C_22
REMARK   10  A    between atoms: C_22  and  N_23
REMARK   11  A    between atoms: C_24  and  C_26
REMARK                            x       y       z     vdW  Elec       q    Type
REMARK                         _______ _______ _______ _____ _____    ______ ____
ROOT
ATOM      1  N   UNL     1       1.381   1.646  -0.337  0.00  0.00    -0.291 N 
ATOM      2  C   UNL     1       1.591   2.864   0.202  0.00  0.00    +0.219 C 
ATOM      3  O   UNL     1       0.652   3.599   0.424  0.00  0.00    -0.275 OA
ENDROOT
BRANCH   2   4
ATOM      4  C   UNL     1       2.992   3.312   0.527  0.00  0.00    +0.075 C 
ATOM      5  C   UNL     1       3.508   2.534   1.739  0.00  0.00    +0.013 C 
ATOM      6  C   UNL     1       4.931   2.989   2.069  0.00  0.00    +0.001 C 
ATOM      7  C   UNL     1       4.927   4.485   2.388  0.00  0.00    +0.000 C 
ATOM      8  C   UNL     1       4.411   5.263   1.177  0.00  0.00    +0.001 C 
ATOM      9  C   UNL     1       2.988   4.808   0.846  0.00  0.00    +0.013 C 
ENDBRANCH   2   4
BRANCH   1  11
ATOM     10  C   UNL     1      -0.703   1.093   0.818  0.00  0.00    +0.036 C 
ATOM     11  C   UNL     1       0.013   1.158  -0.533  0.00  0.00    +0.139 C 
BRANCH  11  12
ATOM     12  C   UNL     1      -0.729   2.095  -1.450  0.00  0.00    +0.131 A 
ATOM     13  N   UNL     1      -1.766   1.609  -2.154  0.00  0.00    -0.232 NA
ATOM     14  H   UNL     1       0.520   3.675  -0.912  0.00  0.00    +0.170 HD
ATOM     15  C   UNL     1      -2.478   2.428  -3.009  0.00  0.00    +0.078 A 
ATOM     16  C   UNL     1      -3.550   1.957  -3.755  0.00  0.00    +0.028 A 
ATOM     17  C   UNL     1      -4.223   2.815  -4.599  0.00  0.00    +0.002 A 
ATOM     18  C   UNL     1      -3.838   4.143  -4.715  0.00  0.00    +0.001 A 
ATOM     19  C   UNL     1      -2.773   4.628  -3.986  0.00  0.00    +0.015 A 
ATOM     20  C   UNL     1      -2.083   3.773  -3.130  0.00  0.00    +0.065 A 
ATOM     21  C   UNL     1      -0.937   4.230  -2.325  0.00  0.00    +0.259 A 
ATOM     22  O   UNL     1      -0.550   5.384  -2.382  0.00  0.00    -0.267 OA
ATOM     23  N   UNL     1      -0.331   3.335  -1.520  0.00  0.00    -0.309 N 
ENDBRANCH  11  12
ENDBRANCH   1  11
BRANCH   1  24
ATOM     24  C   UNL     1       2.519   0.812  -0.728  0.00  0.00    +0.108 C 
BRANCH  24  25
ATOM     25  C   UNL     1       2.810   1.009  -2.217  0.00  0.00    +0.019 C 
BRANCH  25  26
ATOM     26  C   UNL     1       3.999   0.137  -2.624  0.00  0.00    +0.001 C 
BRANCH  26  27
ATOM     27  C   UNL     1       4.290   0.335  -4.114  0.00  0.00    -0.002 C 
BRANCH  27  28
ATOM     28  C   UNL     1       5.479  -0.537  -4.521  0.00  0.00    -0.020 C 
BRANCH  28  29
ATOM     29  C   UNL     1       5.769  -0.340  -6.011  0.00  0.00    -0.086 C 
BRANCH  29  30
ATOM     30  N   UNL     1       6.911  -1.177  -6.402  0.00  0.00    +0.378 N 
ATOM     31  H   UNL     1       7.120  -1.035  -7.473  0.00  0.00    -0.090 HD
ATOM     32  H   UNL     1       6.673  -2.234  -6.212  0.00  0.00    -0.090 HD
ATOM     33  H   UNL     1       7.795  -0.889  -5.815  0.00  0.00    -0.090 HD
ENDBRANCH  29  30
ENDBRANCH  28  29
ENDBRANCH  27  28
ENDBRANCH  26  27
ENDBRANCH  25  26
ENDBRANCH  24  25
ENDBRANCH   1  24
TORSDOF 10
