REMARK  Name = ZINC61681335
REMARK  5 active torsions:
REMARK  status: ('A' for Active; 'I' for Inactive)
REMARK    1  A    between atoms: C_1  and  C_2
REMARK    2  A    between atoms: C_5  and  C_9
REMARK    3  A    between atoms: C_7  and  C_8
REMARK    4  A    between atoms: C_10  and  C_15
REMARK    5  A    between atoms: C_13  and  N_14
REMARK                            x       y       z     vdW  Elec       q    Type
REMARK                         _______ _______ _______ _____ _____    ______ ____
ROOT
ATOM      1  C   UNL     1       0.060  -4.255  -0.021  0.00  0.00    +0.066 A 
ATOM      2  C   UNL     1      -0.961  -5.101  -0.507  0.00  0.00    +0.096 A 
ATOM      3  N   UNL     1      -0.578  -6.335  -0.343  0.00  0.00    -0.080 NA
ATOM      4  O   UNL     1       0.704  -6.337   0.255  0.00  0.00    -0.339 OA
ATOM      5  C   UNL     1       1.083  -5.061   0.439  0.00  0.00    +0.223 A 
ENDROOT
BRANCH   1  10
ATOM      6  C   UNL     1      -0.018   1.503   0.010  0.00  0.00    +0.044 C 
ATOM      7  C   UNL     1       0.002  -0.004   0.002  0.00  0.00    -0.048 A 
ATOM      8  C   UNL     1       0.006  -0.687  -1.202  0.00  0.00    +0.004 A 
ATOM      9  C   UNL     1       0.024  -2.066  -1.215  0.00  0.00    +0.009 A 
ATOM     10  C   UNL     1       0.040  -2.772  -0.013  0.00  0.00    -0.011 A 
ATOM     11  C   UNL     1       0.037  -2.079   1.196  0.00  0.00    +0.012 A 
ATOM     12  C   UNL     1       0.023  -0.699   1.198  0.00  0.00    -0.047 A 
ATOM     13  C   UNL     1       0.025   0.051   2.504  0.00  0.00    +0.044 C 
ENDBRANCH   1  10
BRANCH   2  14
ATOM     14  C   UNL     1      -2.267  -4.653  -1.110  0.00  0.00    +0.046 C 
ATOM     15  C   UNL     1      -3.431  -5.213  -0.286  0.00  0.00    +0.038 C 
ATOM     16  C   UNL     1      -4.753  -4.819  -0.950  0.00  0.00    +0.160 C 
ATOM     17  O   UNL     1      -4.774  -5.310  -2.292  0.00  0.00    -0.380 OA
ATOM     18  C   UNL     1      -3.737  -4.785  -3.123  0.00  0.00    +0.160 C 
ATOM     19  C   UNL     1      -2.375  -5.177  -2.546  0.00  0.00    +0.038 C 
ENDBRANCH   2  14
BRANCH   5  20
ATOM     20  N   UNL     1       2.273  -4.635   0.990  0.00  0.00    -0.327 N 
ATOM     21  H   UNL     1       2.452  -3.686   1.083  0.00  0.00    +0.145 HD
ATOM     22  H   UNL     1       2.931  -5.284   1.285  0.00  0.00    +0.145 HD
ENDBRANCH   5  20
TORSDOF 3
