REMARK  Name = ZINC05294592
REMARK  6 active torsions:
REMARK  status: ('A' for Active; 'I' for Inactive)
REMARK    1  A    between atoms: C_1  and  N_2
REMARK    2  A    between atoms: C_9  and  C_17
REMARK    3  A    between atoms: C_10  and  C_11
REMARK    4  A    between atoms: N_18  and  N_19
REMARK    5  A    between atoms: C_20  and  O_22
REMARK    6  A    between atoms: O_22  and  C_23
REMARK                            x       y       z     vdW  Elec       q    Type
REMARK                         _______ _______ _______ _____ _____    ______ ____
ROOT
ATOM      1  C   UNL     1       3.000   3.841  -1.773  0.00  0.00    +0.149 C 
ATOM      2  N   UNL     1       3.930   3.248  -0.809  0.00  0.00    -0.342 N 
ATOM      3  C   UNL     1       5.207   3.705  -0.562  0.00  0.00    +0.050 A 
ATOM      4  C   UNL     1       5.953   4.759  -1.084  0.00  0.00    +0.026 A 
ATOM      5  C   UNL     1       7.236   4.979  -0.634  0.00  0.00    +0.002 A 
ATOM      6  C   UNL     1       7.796   4.161   0.337  0.00  0.00    +0.001 A 
ATOM      7  C   UNL     1       7.081   3.121   0.863  0.00  0.00    +0.010 A 
ATOM      8  C   UNL     1       5.780   2.880   0.421  0.00  0.00    +0.009 A 
ATOM      9  C   UNL     1       4.758   1.880   0.769  0.00  0.00    +0.028 A 
ATOM     10  C   UNL     1       3.655   2.158  -0.021  0.00  0.00    +0.059 A 
ENDROOT
BRANCH  10  11
ATOM     11  C   UNL     1       2.385   1.407  -0.013  0.00  0.00    -0.001 A 
ATOM     12  C   UNL     1       1.166   2.089   0.002  0.00  0.00    +0.010 A 
ATOM     13  C   UNL     1      -0.017   1.380   0.010  0.00  0.00    +0.001 A 
ATOM     14  C   UNL     1       0.002  -0.004   0.002  0.00  0.00    +0.000 A 
ATOM     15  C   UNL     1       1.206  -0.686  -0.013  0.00  0.00    +0.001 A 
ATOM     16  C   UNL     1       2.397   0.009  -0.021  0.00  0.00    +0.010 A 
ENDBRANCH  10  11
BRANCH   9  17
ATOM     17  C   UNL     1       4.883   0.800   1.756  0.00  0.00    +0.141 C 
ATOM     18  N   UNL     1       5.986   0.659   2.429  0.00  0.00    -0.185 NA
BRANCH  18  19
ATOM     19  N   UNL     1       6.106  -0.371   3.371  0.00  0.00    -0.172 N 
ATOM     20  C   UNL     1       7.250  -0.517   4.068  0.00  0.00    +0.420 C 
ATOM     21  O   UNL     1       7.354  -1.411   4.885  0.00  0.00    -0.225 OA
ATOM     22  H   UNL     1       5.365  -0.979   3.521  0.00  0.00    +0.181 HD
BRANCH  20  23
ATOM     23  O   UNL     1       8.278   0.328   3.860  0.00  0.00    -0.453 OA
ATOM     24  C   UNL     1       9.479   0.111   4.646  0.00  0.00    +0.282 C 
ENDBRANCH  20  23
ENDBRANCH  18  19
ENDBRANCH   9  17
TORSDOF 4
