REMARK  Name = ZINC12985747
REMARK  9 active torsions:
REMARK  status: ('A' for Active; 'I' for Inactive)
REMARK    1  A    between atoms: C_2  and  C_3
REMARK    2  A    between atoms: C_3  and  N_46
REMARK    3  A    between atoms: C_4  and  C_5
REMARK    4  A    between atoms: C_4  and  N_46
REMARK    5  A    between atoms: C_11  and  C_12
REMARK    6  A    between atoms: C_11  and  N_46
REMARK    7  A    between atoms: N_14  and  C_15
REMARK    8  A    between atoms: C_17  and  C_24
REMARK    9  A    between atoms: C_19  and  C_21
REMARK                            x       y       z     vdW  Elec       q    Type
REMARK                         _______ _______ _______ _____ _____    ______ ____
ROOT
ATOM      1  C   UNL     1      -6.267   2.924   0.453  0.00  0.00    +0.201 C 
ATOM      2  O   UNL     1      -5.197   3.494   0.467  0.00  0.00    -0.278 OA
ATOM      3  N   UNL     1      -6.314   1.577   0.476  0.00  0.00    -0.287 N 
ATOM      4  H   UNL     1      -7.165   1.120   0.392  0.00  0.00    +0.155 HD
ENDROOT
BRANCH   3   5
ATOM      5  C   UNL     1      -5.134   0.839   0.623  0.00  0.00    +0.035 A 
ATOM      6  C   UNL     1      -5.007  -0.394  -0.001  0.00  0.00    +0.036 A 
ATOM      7  C   UNL     1      -3.832  -1.133   0.143  0.00  0.00    +0.039 A 
ATOM      8  C   UNL     1      -2.785  -0.631   0.914  0.00  0.00    +0.026 A 
ATOM      9  C   UNL     1      -2.916   0.607   1.540  0.00  0.00    +0.039 A 
ATOM     10  C   UNL     1      -4.096   1.338   1.396  0.00  0.00    +0.036 A 
BRANCH   9  11
ATOM     11  C   UNL     1      -1.809   1.142   2.360  0.00  0.00    +0.242 C 
ATOM     12  O   UNL     1      -1.923   2.223   2.905  0.00  0.00    -0.270 OA
ATOM     13  N   UNL     1      -0.672   0.433   2.503  0.00  0.00    -0.325 N 
ATOM     14  H   UNL     1      -0.580  -0.429   2.068  0.00  0.00    +0.145 HD
ATOM     15  H   UNL     1       0.057   0.786   3.038  0.00  0.00    +0.145 HD
ENDBRANCH   9  11
BRANCH   7  16
ATOM     16  C   UNL     1      -3.697  -2.447  -0.522  0.00  0.00    +0.242 C 
ATOM     17  O   UNL     1      -4.611  -2.883  -1.195  0.00  0.00    -0.270 OA
ATOM     18  N   UNL     1      -2.563  -3.160  -0.383  0.00  0.00    -0.325 N 
ATOM     19  H   UNL     1      -1.834  -2.812   0.154  0.00  0.00    +0.145 HD
ATOM     20  H   UNL     1      -2.474  -4.022  -0.819  0.00  0.00    +0.145 HD
ENDBRANCH   7  16
ENDBRANCH   3   5
BRANCH   1  21
ATOM     21  C   UNL     1      -7.545   3.722   0.409  0.00  0.00    +0.020 C 
BRANCH  21  22
ATOM     22  N   UNL     1      -7.209   5.161   0.411  0.00  0.00    +0.391 N 
ATOM     23  H   UNL     1      -6.571   5.353   1.192  0.00  0.00    -0.080 HD
BRANCH  22  24
ATOM     24  C   UNL     1      -6.541   5.526  -0.856  0.00  0.00    -0.051 C 
BRANCH  24  26
ATOM     25  C   UNL     1      -7.711   6.288  -2.858  0.00  0.00    +0.002 C 
ATOM     26  C   UNL     1      -7.468   5.308  -2.024  0.00  0.00    -0.053 C 
ENDBRANCH  24  26
ENDBRANCH  22  24
BRANCH  22  27
ATOM     27  C   UNL     1      -8.437   5.966   0.585  0.00  0.00    -0.035 C 
BRANCH  27  28
ATOM     28  C   UNL     1      -8.044   7.375   0.947  0.00  0.00    -0.026 A 
ATOM     29  C   UNL     1      -7.912   8.457   0.142  0.00  0.00    +0.010 A 
ATOM     30  C   UNL     1      -7.537   9.666   0.700  0.00  0.00    +0.023 A 
ATOM     31  C   UNL     1      -7.312   9.732   2.036  0.00  0.00    +0.055 A 
ATOM     32  S   UNL     1      -7.641   8.053   2.549  0.00  0.00    -0.088 S 
ATOM     33 BR   UNL     1      -6.794  11.217   3.085  0.00  0.00    -0.043 Br
ENDBRANCH  27  28
ENDBRANCH  22  27
ENDBRANCH  21  22
ENDBRANCH   1  21
TORSDOF 9
