REMARK  Name = ZINC15708107
REMARK  9 active torsions:
REMARK  status: ('A' for Active; 'I' for Inactive)
REMARK    1  A    between atoms: C_4  and  N_7
REMARK    2  A    between atoms: C_8  and  C_10
REMARK    3  A    between atoms: C_10  and  C_11
REMARK    4  A    between atoms: C_11  and  C_12
REMARK    5  A    between atoms: C_21  and  N_24
REMARK    6  A    between atoms: N_24  and  C_25
REMARK    7  A    between atoms: C_25  and  N_27
REMARK    8  A    between atoms: N_27  and  C_28
REMARK    9  A    between atoms: C_28  and  C_29
REMARK                            x       y       z     vdW  Elec       q    Type
REMARK                         _______ _______ _______ _____ _____    ______ ____
ROOT
ATOM      1  C   UNL     1       1.467  10.130  -5.212  0.00  0.00    -0.050 C 
ATOM      2  C   UNL     1       1.119  10.272  -6.701  0.00  0.00    +0.089 C 
ATOM      3  N   UNL     1       2.004   9.485  -7.550  0.00  0.00    -0.318 N 
ATOM      4  C   UNL     1       2.884   8.570  -7.097  0.00  0.00    +0.200 C 
ATOM      5  O   UNL     1       3.508   7.880  -7.875  0.00  0.00    -0.278 OA
ATOM      6  C   UNL     1       3.080   8.418  -5.625  0.00  0.00    +0.021 C 
ATOM      7  C   UNL     1       1.980   8.291  -3.586  0.00  0.00    -0.055 C 
ATOM      8  C   UNL     1       2.705   6.926  -3.748  0.00  0.00    +0.054 C 
ATOM      9  C   UNL     1       3.392   7.002  -5.138  0.00  0.00    +0.014 C 
ATOM     10  H   UNL     1       1.956   9.629  -8.508  0.00  0.00    +0.149 HD
ATOM     11  N   UNL     1       1.819   8.680  -5.001  0.00  0.00    +0.391 N 
ATOM     12  H   UNL     1       1.085   8.101  -5.426  0.00  0.00    -0.080 HD
ENDROOT
BRANCH   8  13
ATOM     13  N   UNL     1       1.736   5.827  -3.718  0.00  0.00    -0.326 N 
ATOM     14  H   UNL     1       1.368   5.482  -4.546  0.00  0.00    +0.148 HD
BRANCH  13  15
ATOM     15  C   UNL     1       1.357   5.295  -2.539  0.00  0.00    +0.131 C 
ATOM     16  S   UNL     1       2.007   5.904  -1.077  0.00  0.00    -0.019 S 
BRANCH  15  17
ATOM     17  N   UNL     1       0.466   4.285  -2.511  0.00  0.00    -0.319 N 
ATOM     18  H   UNL     1       0.098   3.940  -3.340  0.00  0.00    +0.148 HD
BRANCH  17  19
ATOM     19  C   UNL     1       0.054   3.707  -1.230  0.00  0.00    +0.177 C 
BRANCH  19  20
ATOM     20  C   UNL     1      -0.942   2.602  -1.474  0.00  0.00    +0.122 A 
ATOM     21  C   UNL     1      -0.645   1.304  -1.664  0.00  0.00    +0.046 A 
ATOM     22  C   UNL     1      -1.871   0.627  -1.854  0.00  0.00    +0.041 A 
ATOM     23  C   UNL     1      -2.844   1.553  -1.773  0.00  0.00    +0.195 A 
ATOM     24  O   UNL     1      -2.275   2.746  -1.538  0.00  0.00    -0.466 OA
ENDBRANCH  19  20
ENDBRANCH  17  19
ENDBRANCH  15  17
ENDBRANCH  13  15
ENDBRANCH   8  13
BRANCH   1  25
ATOM     25  C   UNL     1       0.270  10.550  -4.357  0.00  0.00    -0.005 C 
BRANCH  25  26
ATOM     26  C   UNL     1       0.033  12.054  -4.514  0.00  0.00    +0.094 C 
BRANCH  26  28
ATOM     27  N   UNL     1      -1.456  13.779  -3.553  0.00  0.00    -0.285 N 
ATOM     28  C   UNL     1      -1.073  12.488  -3.586  0.00  0.00    +0.217 C 
ATOM     29  O   UNL     1      -1.617  11.675  -2.869  0.00  0.00    -0.275 OA
ATOM     30  H   UNL     1      -1.075  14.415  -4.179  0.00  0.00    +0.155 HD
BRANCH  27  34
ATOM     31  C   UNL     1      -4.277  15.043  -0.760  0.00  0.00    +0.000 A 
ATOM     32  C   UNL     1      -3.391  14.031  -0.437  0.00  0.00    +0.002 A 
ATOM     33  C   UNL     1      -2.455  13.610  -1.361  0.00  0.00    +0.023 A 
ATOM     34  C   UNL     1      -2.404  14.204  -2.615  0.00  0.00    +0.033 A 
ATOM     35  C   UNL     1      -3.290  15.224  -2.934  0.00  0.00    +0.023 A 
ATOM     36  C   UNL     1      -4.228  15.636  -2.008  0.00  0.00    +0.002 A 
ENDBRANCH  27  34
ENDBRANCH  26  28
ENDBRANCH  25  26
ENDBRANCH   1  25
TORSDOF 9
