REMARK  Name = ZINC02662542
REMARK  7 active torsions:
REMARK  status: ('A' for Active; 'I' for Inactive)
REMARK    1  A    between atoms: C_1  and  C_2
REMARK    2  A    between atoms: C_2  and  C_3
REMARK    3  A    between atoms: C_3  and  C_25
REMARK    4  A    between atoms: N_6  and  C_10
REMARK    5  A    between atoms: C_10  and  C_11
REMARK    6  A    between atoms: N_13  and  C_14
REMARK    7  A    between atoms: C_15  and  C_22
REMARK                            x       y       z     vdW  Elec       q    Type
REMARK                         _______ _______ _______ _____ _____    ______ ____
ROOT
ATOM      1  C   UNL     1      -1.249  -3.891   2.918  0.00  0.00    +0.236 C 
ATOM      2  O   UNL     1      -0.324  -3.122   3.070  0.00  0.00    -0.274 OA
ATOM      3  N   UNL     1      -1.268  -5.062   3.584  0.00  0.00    -0.278 N 
ATOM      4  H   UNL     1      -2.007  -5.678   3.462  0.00  0.00    +0.155 HD
ENDROOT
BRANCH   3   5
ATOM      5  C   UNL     1      -0.230  -5.388   4.444  0.00  0.00    +0.084 A 
ATOM      6  C   UNL     1      -0.080  -6.536   5.199  0.00  0.00    +0.068 A 
ATOM      7  C   UNL     1       1.117  -6.638   6.033  0.00  0.00    -0.023 A 
ATOM      8  C   UNL     1       1.933  -5.572   5.953  0.00  0.00    -0.004 A 
ATOM      9  S   UNL     1       1.136  -4.482   4.802  0.00  0.00    -0.077 S 
ATOM     10  C   UNL     1       3.145  -5.726   6.832  0.00  0.00    +0.043 C 
ATOM     11  C   UNL     1       2.773  -6.860   7.814  0.00  0.00    +0.010 C 
ATOM     12  C   UNL     1       1.726  -7.649   7.002  0.00  0.00    +0.037 C 
BRANCH   6  13
ATOM     13  C   UNL     1      -1.080  -7.608   5.166  0.00  0.00    +0.244 C 
ATOM     14  O   UNL     1      -0.978  -8.510   4.354  0.00  0.00    -0.270 OA
ATOM     15  N   UNL     1      -2.111  -7.594   6.033  0.00  0.00    -0.325 N 
ATOM     16  H   UNL     1      -2.192  -6.875   6.679  0.00  0.00    +0.145 HD
ATOM     17  H   UNL     1      -2.773  -8.303   6.010  0.00  0.00    +0.145 HD
ENDBRANCH   6  13
ENDBRANCH   3   5
BRANCH   1  18
ATOM     18  C   UNL     1      -2.377  -3.537   1.983  0.00  0.00    +0.214 C 
BRANCH  18  22
ATOM     19  C   UNL     1      -1.433  -0.534   0.013  0.00  0.00    +0.110 C 
ATOM     20  C   UNL     1      -1.447  -2.033   0.236  0.00  0.00    +0.247 C 
ATOM     21  O   UNL     1      -0.952  -2.883  -0.472  0.00  0.00    -0.273 OA
ATOM     22  N   UNL     1      -2.123  -2.224   1.386  0.00  0.00    -0.215 N 
ATOM     23  C   UNL     1      -2.534  -1.066   1.915  0.00  0.00    +0.310 C 
ATOM     24  O   UNL     1      -3.163  -0.982   2.952  0.00  0.00    -0.252 OA
ATOM     25  N   UNL     1      -2.172  -0.004   1.172  0.00  0.00    -0.285 N 
ATOM     26  C   UNL     1      -2.148  -0.174  -1.291  0.00  0.00    +0.041 C 
ATOM     27  H   UNL     1      -2.361   0.928   1.363  0.00  0.00    +0.151 HD
BRANCH  19  29
ATOM     28  C   UNL     1      -0.019   1.526   0.010  0.00  0.00    +0.006 C 
ATOM     29  C   UNL     1       0.002  -0.004   0.002  0.00  0.00    +0.031 C 
ENDBRANCH  19  29
ENDBRANCH  18  22
ENDBRANCH   1  18
TORSDOF 5
