REMARK  Name = ZINC65181939
REMARK  12 active torsions:
REMARK  status: ('A' for Active; 'I' for Inactive)
REMARK    1  A    between atoms: C_1  and  C_2
REMARK    2  A    between atoms: C_2  and  O_3
REMARK    3  A    between atoms: O_3  and  C_4
REMARK    4  A    between atoms: C_6  and  C_14
REMARK    5  A    between atoms: C_9  and  O_10
REMARK    6  A    between atoms: O_10  and  C_11
REMARK    7  A    between atoms: C_15  and  C_16
REMARK    8  A    between atoms: N_18  and  N_19
REMARK    9  A    between atoms: N_22  and  C_23
REMARK   10  A    between atoms: C_23  and  C_24
REMARK   11  A    between atoms: C_24  and  C_25
REMARK   12  A    between atoms: C_24  and  C_26
REMARK                            x       y       z     vdW  Elec       q    Type
REMARK                         _______ _______ _______ _____ _____    ______ ____
ROOT
ATOM      1  C   UNL     1       0.614  -4.949  -0.019  0.00  0.00    +0.013 C 
ATOM      2  C   UNL     1       0.449  -6.289  -0.025  0.00  0.00    +0.069 C 
ENDROOT
BRANCH   1   5
ATOM      3  C   UNL     1      -1.498  -1.849   0.006  0.00  0.00    +0.163 A 
ATOM      4  C   UNL     1      -0.392  -2.675  -0.003  0.00  0.00    +0.057 A 
ATOM      5  C   UNL     1      -0.560  -4.065  -0.009  0.00  0.00    -0.021 A 
ATOM      6  C   UNL     1      -1.849  -4.609  -0.005  0.00  0.00    +0.012 A 
ATOM      7  C   UNL     1      -2.948  -3.778   0.004  0.00  0.00    +0.050 A 
ATOM      8  C   UNL     1      -2.780  -2.399   0.016  0.00  0.00    +0.168 A 
BRANCH   3   9
ATOM      9  O   UNL     1      -1.339  -0.499   0.012  0.00  0.00    -0.489 OA
BRANCH   9  11
ATOM     10  C   UNL     1      -0.019   1.526   0.010  0.00  0.00    +0.048 C 
ATOM     11  C   UNL     1       0.002  -0.004   0.002  0.00  0.00    +0.226 C 
ENDBRANCH   9  11
ENDBRANCH   3   9
BRANCH   8  12
ATOM     12  O   UNL     1      -3.866  -1.585   0.030  0.00  0.00    -0.431 OA
BRANCH  12  13
ATOM     13  C   UNL     1      -5.149  -2.214   0.039  0.00  0.00    +0.541 C 
ATOM     14  F   UNL     1      -5.288  -3.006  -1.106  0.00  0.00    -0.166 F 
ATOM     15  F   UNL     1      -5.266  -3.018   1.179  0.00  0.00    -0.166 F 
ENDBRANCH  12  13
ENDBRANCH   8  12
ENDBRANCH   1   5
BRANCH   2  16
ATOM     16  C   UNL     1       1.617  -7.170  -0.035  0.00  0.00    +0.253 C 
ATOM     17  O   UNL     1       2.737  -6.694  -0.039  0.00  0.00    -0.269 OA
ATOM     18  N   UNL     1       1.452  -8.507  -0.041  0.00  0.00    -0.230 N 
ATOM     19  H   UNL     1       0.559  -8.886  -0.038  0.00  0.00    +0.173 HD
BRANCH  18  20
ATOM     20  N   UNL     1       2.571  -9.351  -0.051  0.00  0.00    -0.218 N 
ATOM     21  C   UNL     1       2.406 -10.688  -0.056  0.00  0.00    +0.316 C 
ATOM     22  O   UNL     1       3.377 -11.420  -0.065  0.00  0.00    -0.251 OA
ATOM     23  N   UNL     1       1.166 -11.215  -0.052  0.00  0.00    -0.298 N 
ATOM     24  H   UNL     1       3.464  -8.972  -0.053  0.00  0.00    +0.174 HD
ATOM     25  H   UNL     1       0.391 -10.631  -0.046  0.00  0.00    +0.150 HD
BRANCH  23  26
ATOM     26  C   UNL     1       0.987 -12.669  -0.059  0.00  0.00    +0.108 C 
BRANCH  26  27
ATOM     27  C   UNL     1      -0.507 -12.999  -0.052  0.00  0.00    -0.000 C 
ATOM     28  C   UNL     1      -0.695 -14.511  -0.184  0.00  0.00    +0.009 C 
ATOM     29  C   UNL     1      -1.130 -12.520   1.260  0.00  0.00    +0.009 C 
ENDBRANCH  26  27
ENDBRANCH  23  26
ENDBRANCH  18  20
ENDBRANCH   2  16
TORSDOF 9
