REMARK  Name = ZINC10773782
REMARK  10 active torsions:
REMARK  status: ('A' for Active; 'I' for Inactive)
REMARK    1  A    between atoms: C_1  and  C_2
REMARK    2  A    between atoms: C_5  and  N_9
REMARK    3  A    between atoms: C_6  and  C_8
REMARK    4  A    between atoms: C_13  and  C_15
REMARK    5  A    between atoms: C_15  and  O_16
REMARK    6  A    between atoms: O_16  and  C_17
REMARK    7  A    between atoms: C_17  and  C_19
REMARK    8  A    between atoms: C_21  and  C_30
REMARK    9  A    between atoms: C_25  and  C_29
REMARK   10  A    between atoms: N_27  and  C_28
REMARK                            x       y       z     vdW  Elec       q    Type
REMARK                         _______ _______ _______ _____ _____    ______ ____
ROOT
ATOM      1  C   UNL     1       6.226   1.265  -0.283  0.00  0.00    +0.340 C 
ATOM      2  O   UNL     1       6.158   2.478  -0.260  0.00  0.00    -0.245 OA
ENDROOT
BRANCH   1   3
ATOM      3  C   UNL     1       7.546   0.600  -0.306  0.00  0.00    +0.073 A 
ATOM      4  C   UNL     1       7.650  -0.781  -0.428  0.00  0.00    +0.044 A 
ATOM      5  C   UNL     1       8.917  -1.371  -0.451  0.00  0.00    +0.074 A 
ATOM      6  N   UNL     1      10.018  -0.645  -0.348  0.00  0.00    -0.228 NA
ATOM      7  C   UNL     1       9.979   0.672  -0.224  0.00  0.00    +0.160 A 
ATOM      8  C   UNL     1       8.741   1.348  -0.198  0.00  0.00    +0.055 A 
ATOM      9  C   UNL     1       9.022   2.723  -0.058  0.00  0.00    +0.070 A 
ATOM     10  N   UNL     1      10.314   2.880  -0.003  0.00  0.00    -0.174 NA
ATOM     11  N   UNL     1      10.947   1.635  -0.102  0.00  0.00    -0.249 N 
ATOM     12  C   UNL     1      12.393   1.402  -0.081  0.00  0.00    +0.174 C 
ATOM     13  C   UNL     1       7.999   3.827   0.016  0.00  0.00    +0.068 C 
BRANCH   5  14
ATOM     14  C   UNL     1       9.030  -2.844  -0.587  0.00  0.00    +0.000 A 
ATOM     15  C   UNL     1       7.881  -3.626  -0.690  0.00  0.00    +0.010 A 
ATOM     16  C   UNL     1       7.991  -4.996  -0.822  0.00  0.00    +0.001 A 
ATOM     17  C   UNL     1       9.239  -5.593  -0.840  0.00  0.00    +0.000 A 
ATOM     18  C   UNL     1      10.382  -4.822  -0.732  0.00  0.00    +0.001 A 
ATOM     19  C   UNL     1      10.284  -3.451  -0.605  0.00  0.00    +0.010 A 
ENDBRANCH   5  14
ENDBRANCH   1   3
BRANCH   1  20
ATOM     20  O   UNL     1       5.100   0.527  -0.288  0.00  0.00    -0.452 OA
BRANCH  20  21
ATOM     21  C   UNL     1       3.839   1.247  -0.264  0.00  0.00    +0.328 C 
BRANCH  21  26
ATOM     22  N   UNL     1      -0.868   0.270  -0.251  0.00  0.00    -0.269 N 
ATOM     23  C   UNL     1       0.405  -0.173  -0.264  0.00  0.00    +0.310 C 
ATOM     24  O   UNL     1       0.632  -1.367  -0.287  0.00  0.00    -0.252 OA
ATOM     25  N   UNL     1       1.425   0.707  -0.255  0.00  0.00    -0.237 N 
ATOM     26  C   UNL     1       2.698   0.263  -0.274  0.00  0.00    +0.258 C 
ATOM     27  O   UNL     1       2.924  -0.928  -0.297  0.00  0.00    -0.272 OA
ATOM     28  H   UNL     1      -1.050   1.217  -0.145  0.00  0.00    +0.156 HD
ATOM     29  H   UNL     1       1.244   1.659  -0.236  0.00  0.00    +0.159 HD
BRANCH  22  34
ATOM     30  C   UNL     1      -5.157  -3.401  -0.813  0.00  0.00    +0.044 C 
ATOM     31  C   UNL     1      -4.018  -2.425  -0.664  0.00  0.00    -0.050 A 
ATOM     32  C   UNL     1      -2.824  -2.653  -1.324  0.00  0.00    +0.005 A 
ATOM     33  C   UNL     1      -1.778  -1.761  -1.189  0.00  0.00    +0.024 A 
ATOM     34  C   UNL     1      -1.926  -0.635  -0.390  0.00  0.00    +0.038 A 
ATOM     35  C   UNL     1      -3.124  -0.412   0.275  0.00  0.00    -0.029 A 
ATOM     36  C   UNL     1      -4.168  -1.305   0.133  0.00  0.00    +0.008 A 
ATOM     37  C   UNL     1      -3.287   0.806   1.148  0.00  0.00    +0.045 C 
ENDBRANCH  22  34
ENDBRANCH  21  26
ENDBRANCH  20  21
ENDBRANCH   1  20
TORSDOF 6
