REMARK  Name = ZINC03363453
REMARK  5 active torsions:
REMARK  status: ('A' for Active; 'I' for Inactive)
REMARK    1  A    between atoms: C_1  and  C_2
REMARK    2  A    between atoms: C_2  and  C_18
REMARK    3  A    between atoms: N_5  and  C_9
REMARK    4  A    between atoms: C_9  and  C_10
REMARK    5  A    between atoms: C_15  and  C_16
REMARK                            x       y       z     vdW  Elec       q    Type
REMARK                         _______ _______ _______ _____ _____    ______ ____
ROOT
ATOM      1  C   UNL     1       5.010   4.864   3.835  0.00  0.00    +0.047 C 
ATOM      2  C   UNL     1       3.561   4.508   3.499  0.00  0.00    +0.136 C 
ATOM      3  C   UNL     1       3.496   3.660   2.245  0.00  0.00    +0.251 C 
ATOM      4  O   UNL     1       3.990   2.566   2.074  0.00  0.00    -0.272 OA
ATOM      5  N   UNL     1       2.775   4.375   1.358  0.00  0.00    -0.220 N 
ATOM      6  C   UNL     1       2.384   5.547   1.871  0.00  0.00    +0.310 C 
ATOM      7  O   UNL     1       1.726   6.366   1.260  0.00  0.00    -0.252 OA
ATOM      8  N   UNL     1       2.797   5.716   3.140  0.00  0.00    -0.281 N 
ATOM      9  H   UNL     1       2.629   6.485   3.707  0.00  0.00    +0.152 HD
ENDROOT
BRANCH   2  10
ATOM     10  C   UNL     1       2.910   3.795   4.656  0.00  0.00    +0.003 A 
ATOM     11  C   UNL     1       1.826   4.364   5.298  0.00  0.00    +0.007 A 
ATOM     12  C   UNL     1       1.229   3.709   6.359  0.00  0.00    +0.000 A 
ATOM     13  C   UNL     1       1.716   2.485   6.779  0.00  0.00    +0.001 A 
ATOM     14  C   UNL     1       2.800   1.915   6.138  0.00  0.00    +0.020 A 
ATOM     15  C   UNL     1       3.394   2.567   5.072  0.00  0.00    +0.047 A 
ATOM     16 CL   UNL     1       4.751   1.849   4.262  0.00  0.00    -0.083 Cl
ENDBRANCH   2  10
BRANCH   5  17
ATOM     17  C   UNL     1       2.464   3.926  -0.001  0.00  0.00    +0.154 C 
BRANCH  17  18
ATOM     18  C   UNL     1       1.166   3.160   0.007  0.00  0.00    -0.012 A 
ATOM     19  C   UNL     1       1.178   1.781   0.000  0.00  0.00    +0.006 A 
ATOM     20  C   UNL     1      -0.013   1.076   0.008  0.00  0.00    +0.000 A 
ATOM     21  C   UNL     1      -1.222   1.748   0.017  0.00  0.00    +0.001 A 
ATOM     22  C   UNL     1      -1.248   3.127   0.030  0.00  0.00    +0.019 A 
ATOM     23  C   UNL     1      -0.050   3.845   0.022  0.00  0.00    +0.056 A 
BRANCH  23  24
ATOM     24  C   UNL     1      -0.070   5.277   0.029  0.00  0.00    +0.099 C 
ATOM     25  N   UNL     1      -0.085   6.413   0.035  0.00  0.00    -0.191 NA
ENDBRANCH  23  24
ENDBRANCH  17  18
ENDBRANCH   5  17
TORSDOF 4
