REMARK  Name = ZINC48380228
REMARK  7 active torsions:
REMARK  status: ('A' for Active; 'I' for Inactive)
REMARK    1  A    between atoms: C_4  and  C_19
REMARK    2  A    between atoms: C_5  and  C_7
REMARK    3  A    between atoms: C_7  and  S_8
REMARK    4  A    between atoms: S_8  and  C_9
REMARK    5  A    between atoms: C_10  and  C_17
REMARK    6  A    between atoms: C_11  and  N_16
REMARK    7  A    between atoms: C_13  and  N_15
REMARK                            x       y       z     vdW  Elec       q    Type
REMARK                         _______ _______ _______ _____ _____    ______ ____
ROOT
ATOM      1  C   UNL     1       1.267  -4.555   1.506  0.00  0.00    +0.118 A 
ATOM      2  C   UNL     1       1.283  -5.372   2.650  0.00  0.00    +0.104 A 
ATOM      3  C   UNL     1       1.299  -6.773   2.484  0.00  0.00    +0.048 A 
ATOM      4  C   UNL     1       1.298  -7.283   1.191  0.00  0.00    +0.067 A 
ATOM      5  C   UNL     1       1.282  -6.407   0.113  0.00  0.00    +0.119 A 
ATOM      6  N   UNL     1       1.262  -5.093   0.296  0.00  0.00    -0.225 NA
ENDROOT
BRANCH   5   7
ATOM      7  N   UNL     1       1.281  -6.914  -1.177  0.00  0.00    -0.343 N 
ATOM      8  H   UNL     1       1.292  -7.873  -1.321  0.00  0.00    +0.144 HD
ATOM      9  H   UNL     1       1.270  -6.310  -1.936  0.00  0.00    +0.144 HD
ENDBRANCH   5   7
BRANCH   3  10
ATOM     10  N   UNL     1       1.315  -7.620   3.582  0.00  0.00    -0.357 N 
ATOM     11  H   UNL     1       1.316  -7.251   4.479  0.00  0.00    +0.142 HD
ATOM     12  H   UNL     1       1.326  -8.581   3.453  0.00  0.00    +0.142 HD
ENDBRANCH   3  10
BRANCH   2  13
ATOM     13  C   UNL     1       1.284  -4.794   3.960  0.00  0.00    +0.104 C 
ATOM     14  N   UNL     1       1.284  -4.335   4.999  0.00  0.00    -0.191 NA
ENDBRANCH   2  13
BRANCH   1  15
ATOM     15  S   UNL     1       1.248  -2.802   1.685  0.00  0.00    -0.100 S 
BRANCH  15  16
ATOM     16  C   UNL     1       1.223  -2.188  -0.022  0.00  0.00    +0.112 C 
BRANCH  16  21
ATOM     17  C   UNL     1      -0.017   1.379   0.010  0.00  0.00    +0.000 A 
ATOM     18  C   UNL     1       1.168   2.094   0.002  0.00  0.00    +0.001 A 
ATOM     19  C   UNL     1       2.377   1.430  -0.013  0.00  0.00    +0.019 A 
ATOM     20  C   UNL     1       2.404   0.034  -0.021  0.00  0.00    +0.056 A 
ATOM     21  C   UNL     1       1.204  -0.681  -0.013  0.00  0.00    -0.020 A 
ATOM     22  C   UNL     1       0.002  -0.004   0.002  0.00  0.00    +0.006 A 
BRANCH  20  23
ATOM     23  C   UNL     1       3.655  -0.662  -0.038  0.00  0.00    +0.099 C 
ATOM     24  N   UNL     1       4.648  -1.214  -0.051  0.00  0.00    -0.191 NA
ENDBRANCH  20  23
ENDBRANCH  16  21
ENDBRANCH  15  16
ENDBRANCH   1  15
TORSDOF 7
