REMARK  Name = ZINC48978185
REMARK  5 active torsions:
REMARK  status: ('A' for Active; 'I' for Inactive)
REMARK    1  A    between atoms: C_1  and  C_2
REMARK    2  A    between atoms: C_4  and  C_10
REMARK    3  A    between atoms: C_5  and  O_9
REMARK    4  A    between atoms: N_12  and  C_13
REMARK    5  A    between atoms: C_13  and  C_14
REMARK                            x       y       z     vdW  Elec       q    Type
REMARK                         _______ _______ _______ _____ _____    ______ ____
ROOT
ATOM      1  C   UNL     1      -0.018   1.503   0.010  0.00  0.00    +0.044 C 
ATOM      2  C   UNL     1       0.002  -0.004   0.002  0.00  0.00    -0.048 A 
ATOM      3  C   UNL     1       0.006  -0.683  -1.197  0.00  0.00    +0.020 A 
ATOM      4  C   UNL     1       0.025  -2.080  -1.207  0.00  0.00    +0.079 A 
ATOM      5  C   UNL     1       0.040  -2.781   0.007  0.00  0.00    +0.143 A 
ATOM      6  C   UNL     1       0.036  -2.081   1.205  0.00  0.00    +0.060 A 
ATOM      7  C   UNL     1       0.023  -0.700   1.200  0.00  0.00    +0.022 A 
ATOM      8 BR   UNL     1       0.056  -3.019   2.847  0.00  0.00    -0.046 Br
ENDROOT
BRANCH   4   9
ATOM      9  C   UNL     1       0.028  -2.813  -2.487  0.00  0.00    +0.248 C 
ATOM     10  O   UNL     1       0.044  -4.029  -2.491  0.00  0.00    -0.270 OA
ATOM     11  N   UNL     1       0.013  -2.135  -3.652  0.00  0.00    -0.311 N 
ATOM     12  H   UNL     1      -0.000  -1.165  -3.648  0.00  0.00    +0.149 HD
BRANCH  11  13
ATOM     13  C   UNL     1       0.016  -2.863  -4.923  0.00  0.00    +0.110 C 
BRANCH  13  14
ATOM     14  C   UNL     1      -0.003  -1.865  -6.082  0.00  0.00    +0.034 C 
ATOM     15  C   UNL     1       0.056  -2.602  -7.448  0.00  0.00    +0.035 C 
ATOM     16  C   UNL     1      -0.676  -1.588  -8.362  0.00  0.00    +0.160 C 
ATOM     17  O   UNL     1      -1.717  -1.030  -7.545  0.00  0.00    -0.379 OA
ATOM     18  C   UNL     1      -1.362  -1.136  -6.157  0.00  0.00    +0.165 C 
ENDBRANCH  13  14
ENDBRANCH  11  13
ENDBRANCH   4   9
BRANCH   5  19
ATOM     19  O   UNL     1       0.058  -4.138   0.010  0.00  0.00    -0.505 OA
ATOM     20  H   UNL     1       0.946  -4.519   0.006  0.00  0.00    +0.292 HD
ENDBRANCH   5  19
TORSDOF 4
