REMARK  Name = ZINC04179982
REMARK  4 active torsions:
REMARK  status: ('A' for Active; 'I' for Inactive)
REMARK    1  A    between atoms: C_1  and  C_2
REMARK    2  A    between atoms: C_5  and  C_8
REMARK    3  A    between atoms: C_11  and  C_14
REMARK    4  A    between atoms: C_15  and  N_21
REMARK                            x       y       z     vdW  Elec       q    Type
REMARK                         _______ _______ _______ _____ _____    ______ ____
ROOT
ATOM      1  C   UNL     1      -0.002  -4.334   0.151  0.00  0.00    +0.124 C 
ATOM      2  N   UNL     1       0.031  -5.184   1.135  0.00  0.00    -0.178 NA
ATOM      3  N   UNL     1       0.061  -6.548   0.952  0.00  0.00    -0.250 N 
ATOM      4  C   UNL     1       0.066  -6.997  -0.459  0.00  0.00    +0.186 C 
ATOM      5  S   UNL     1       0.018  -5.364  -1.307  0.00  0.00    -0.075 S 
ATOM      6  H   UNL     1       0.082  -7.172   1.695  0.00  0.00    +0.170 HD
ENDROOT
BRANCH   1  11
ATOM      7  C   UNL     1      -0.152   1.411   0.434  0.00  0.00    +0.044 C 
ATOM      8  C   UNL     1      -0.112  -0.093   0.360  0.00  0.00    -0.050 A 
ATOM      9  C   UNL     1      -0.107  -0.722  -0.872  0.00  0.00    +0.004 A 
ATOM     10  C   UNL     1      -0.066  -2.099  -0.947  0.00  0.00    +0.011 A 
ATOM     11  C   UNL     1      -0.040  -2.858   0.224  0.00  0.00    +0.008 A 
ATOM     12  C   UNL     1      -0.050  -2.217   1.464  0.00  0.00    +0.011 A 
ATOM     13  C   UNL     1      -0.086  -0.840   1.525  0.00  0.00    +0.004 A 
ENDBRANCH   1  11
BRANCH   4  14
ATOM     14  C   UNL     1       1.328  -7.750  -0.791  0.00  0.00    +0.033 A 
ATOM     15  C   UNL     1       1.325  -8.692  -1.803  0.00  0.00    +0.133 A 
ATOM     16  C   UNL     1       2.483  -9.383  -2.107  0.00  0.00    +0.033 A 
ATOM     17  C   UNL     1       3.644  -9.132  -1.401  0.00  0.00    +0.004 A 
ATOM     18  C   UNL     1       3.649  -8.190  -0.390  0.00  0.00    +0.020 A 
ATOM     19  C   UNL     1       2.491  -7.495  -0.087  0.00  0.00    +0.049 A 
ATOM     20 CL   UNL     1       2.498  -6.307   1.178  0.00  0.00    -0.083 Cl
BRANCH  15  21
ATOM     21  N   UNL     1       0.082  -8.961  -2.560  0.00  0.00    +0.057 N 
ATOM     22  O   UNL     1       0.044  -9.876  -3.363  0.00  0.00    -0.126 OA
ATOM     23  O   UNL     1      -0.903  -8.267  -2.379  0.00  0.00    -0.126 OA
ENDBRANCH  15  21
ENDBRANCH   4  14
TORSDOF 3
