REMARK  Name = ZINC46511481
REMARK  3 active torsions:
REMARK  status: ('A' for Active; 'I' for Inactive)
REMARK    1  A    between atoms: C_6  and  C_7
REMARK    2  A    between atoms: N_10  and  C_14
REMARK    3  A    between atoms: C_14  and  C_15
REMARK                            x       y       z     vdW  Elec       q    Type
REMARK                         _______ _______ _______ _____ _____    ______ ____
ROOT
ATOM      1  C   UNL     1      -4.616  -3.073  -2.520  0.00  0.00    +0.146 A 
ATOM      2  N   UNL     1      -4.735  -4.372  -2.313  0.00  0.00    -0.216 NA
ATOM      3  C   UNL     1      -5.889  -5.006  -2.451  0.00  0.00    +0.128 A 
ATOM      4  C   UNL     1      -7.042  -4.267  -2.835  0.00  0.00    +0.051 A 
ATOM      5  C   UNL     1      -8.409  -4.747  -3.049  0.00  0.00    -0.025 A 
ATOM      6  C   UNL     1      -9.329  -3.830  -3.413  0.00  0.00    -0.004 A 
ATOM      7  S   UNL     1      -8.446  -2.295  -3.493  0.00  0.00    -0.073 S 
ATOM      8  C   UNL     1      -6.837  -2.888  -3.037  0.00  0.00    +0.114 A 
ATOM      9  N   UNL     1      -5.651  -2.335  -2.872  0.00  0.00    -0.223 NA
ATOM     10  C   UNL     1     -10.782  -4.064  -3.691  0.00  0.00    +0.043 C 
ATOM     11  C   UNL     1     -11.006  -5.573  -3.863  0.00  0.00    +0.005 C 
ATOM     12  C   UNL     1     -10.313  -6.306  -2.710  0.00  0.00    +0.005 C 
ATOM     13  C   UNL     1      -8.796  -6.212  -2.873  0.00  0.00    +0.037 C 
ATOM     14  N   UNL     1      -5.972  -6.368  -2.224  0.00  0.00    -0.343 N 
ATOM     15  H   UNL     1      -5.261  -6.825  -1.749  0.00  0.00    +0.144 HD
ATOM     16  H   UNL     1      -6.742  -6.866  -2.541  0.00  0.00    +0.144 HD
ENDROOT
BRANCH   1  17
ATOM     17  C   UNL     1      -3.270  -2.419  -2.345  0.00  0.00    +0.160 C 
BRANCH  17  20
ATOM     18  C   UNL     1      -1.845  -0.635   0.651  0.00  0.00    +0.162 C 
ATOM     19  C   UNL     1      -1.929  -1.125  -0.797  0.00  0.00    +0.121 C 
ATOM     20  N   UNL     1      -3.120  -1.973  -0.953  0.00  0.00    -0.290 NA
ATOM     21  C   UNL     1      -3.067  -3.120  -0.035  0.00  0.00    +0.113 C 
ATOM     22  C   UNL     1      -2.971  -2.610   1.405  0.00  0.00    +0.176 C 
ATOM     23  O   UNL     1      -1.826  -1.762   1.531  0.00  0.00    -0.369 OA
BRANCH  18  29
ATOM     24  C   UNL     1      -0.639   1.552   0.825  0.00  0.00    +0.009 A 
ATOM     25  C   UNL     1       0.516   2.291   0.996  0.00  0.00    +0.039 A 
ATOM     26  C   UNL     1       1.728   1.648   1.178  0.00  0.00    +0.123 A 
ATOM     27  C   UNL     1       1.782   0.264   1.189  0.00  0.00    +0.039 A 
ATOM     28  C   UNL     1       0.625  -0.473   1.019  0.00  0.00    +0.009 A 
ATOM     29  C   UNL     1      -0.585   0.170   0.837  0.00  0.00    -0.018 A 
ATOM     30  F   UNL     1       2.858   2.369   1.344  0.00  0.00    -0.205 F 
ENDBRANCH  18  29
ENDBRANCH  17  20
ENDBRANCH   1  17
TORSDOF 3
