REMARK  Name = ZINC44325102
REMARK  8 active torsions:
REMARK  status: ('A' for Active; 'I' for Inactive)
REMARK    1  A    between atoms: C_1  and  C_2
REMARK    2  A    between atoms: C_11  and  C_12
REMARK    3  A    between atoms: C_12  and  CA_13
REMARK    4  A    between atoms: CA_13  and  C_15
REMARK    5  A    between atoms: CA_13  and  N_18
REMARK    6  A    between atoms: C_19  and  O_21
REMARK    7  A    between atoms: O_21  and  C_22
REMARK    8  A    between atoms: C_22  and  C_23
REMARK                            x       y       z     vdW  Elec       q    Type
REMARK                         _______ _______ _______ _____ _____    ______ ____
ROOT
ATOM      1  N   UNL     1      -2.361   0.701   1.986  0.00  0.00    -0.267 N 
ATOM      2  C   UNL     1      -3.666   0.508   1.710  0.00  0.00    +0.401 C 
ATOM      3  O   UNL     1      -4.260  -0.429   2.204  0.00  0.00    -0.226 OA
ATOM      4  H   UNL     1      -1.886   1.449   1.591  0.00  0.00    +0.153 HD
ENDROOT
BRANCH   1   5
ATOM      5  CA  UNL     1      -1.658  -0.221   2.883  0.00  0.00    +0.195 C 
BRANCH   5   6
ATOM      6  C   UNL     1      -1.843   0.228   4.309  0.00  0.00    +0.376 C 
ATOM      7  O   UNL     1      -1.987   1.413   4.562  0.00  0.00    -0.244 OA
ATOM      8  OXT UNL     1      -1.849  -0.592   5.211  0.00  0.00    -0.244 OA
ENDBRANCH   5   6
BRANCH   5   9
ATOM      9  C   UNL     1      -0.167  -0.229   2.540  0.00  0.00    +0.087 C 
BRANCH   9  20
ATOM     10  C   UNL     1      -0.085  -3.242   1.798  0.00  0.00    +0.046 C 
ATOM     11  C   UNL     1       0.060  -2.088   0.840  0.00  0.00    -0.022 A 
ATOM     12  C   UNL     1       0.258  -2.178  -0.609  0.00  0.00    +0.006 A 
ATOM     13  C   UNL     1       0.371  -3.241  -1.508  0.00  0.00    +0.048 A 
ATOM     14  C   UNL     1       0.559  -2.982  -2.848  0.00  0.00    +0.124 A 
ATOM     15  C   UNL     1       0.636  -1.671  -3.306  0.00  0.00    +0.040 A 
ATOM     16  C   UNL     1       0.527  -0.614  -2.430  0.00  0.00    +0.029 A 
ATOM     17  C   UNL     1       0.337  -0.853  -1.073  0.00  0.00    +0.047 A 
ATOM     18  N   UNL     1       0.195  -0.029   0.022  0.00  0.00    -0.358 N 
ATOM     19  H   UNL     1       0.210   0.940  -0.004  0.00  0.00    +0.166 HD
ATOM     20  C   UNL     1       0.025  -0.783   1.151  0.00  0.00    +0.022 A 
ATOM     21  F   UNL     1       0.668  -4.007  -3.722  0.00  0.00    -0.205 F 
ENDBRANCH   9  20
ENDBRANCH   5   9
ENDBRANCH   1   5
BRANCH   2  22
ATOM     22  O   UNL     1      -4.311   1.355   0.885  0.00  0.00    -0.449 OA
BRANCH  22  23
ATOM     23  C   UNL     1      -5.693   1.091   0.636  0.00  0.00    +0.246 C 
BRANCH  23  24
ATOM     24  C   UNL     1      -6.251   2.151  -0.315  0.00  0.00    +0.088 C 
ATOM     25  C   UNL     1      -5.644   1.989  -1.687  0.00  0.00    -0.029 A 
ATOM     26  C   UNL     1      -4.342   2.056  -2.137  0.00  0.00    +0.005 A 
ATOM     27  C   UNL     1      -4.062   1.864  -3.478  0.00  0.00    +0.000 A 
ATOM     28  C   UNL     1      -5.086   1.603  -4.370  0.00  0.00    +0.001 A 
ATOM     29  C   UNL     1      -6.391   1.534  -3.929  0.00  0.00    +0.009 A 
ATOM     30  C   UNL     1      -6.682   1.728  -2.577  0.00  0.00    -0.014 A 
ATOM     31  C   UNL     1      -7.970   1.709  -1.842  0.00  0.00    -0.014 A 
ATOM     32  C   UNL     1      -7.737   1.959  -0.492  0.00  0.00    -0.029 A 
ATOM     33  C   UNL     1      -8.788   1.994   0.400  0.00  0.00    +0.005 A 
ATOM     34  C   UNL     1     -10.081   1.778  -0.043  0.00  0.00    +0.000 A 
ATOM     35  C   UNL     1     -10.322   1.529  -1.382  0.00  0.00    +0.001 A 
ATOM     36  C   UNL     1      -9.277   1.493  -2.282  0.00  0.00    +0.009 A 
ENDBRANCH  23  24
ENDBRANCH  22  23
ENDBRANCH   2  22
TORSDOF 7
