REMARK  Name = ZINC39674449
REMARK  10 active torsions:
REMARK  status: ('A' for Active; 'I' for Inactive)
REMARK    1  A    between atoms: C_1  and  C_2
REMARK    2  A    between atoms: C_5  and  O_8
REMARK    3  A    between atoms: O_8  and  C_9
REMARK    4  A    between atoms: C_10  and  C_15
REMARK    5  A    between atoms: C_19  and  C_28
REMARK    6  A    between atoms: N_30  and  C_31
REMARK    7  A    between atoms: C_31  and  C_33
REMARK    8  A    between atoms: C_31  and  C_34
REMARK    9  A    between atoms: C_35  and  C_41
REMARK   10  A    between atoms: C_38  and  C_40
REMARK                            x       y       z     vdW  Elec       q    Type
REMARK                         _______ _______ _______ _____ _____    ______ ____
ROOT
ATOM      1  C   UNL     1      -1.101  -6.575  -0.894  0.00  0.00    +0.252 C 
ATOM      2  O   UNL     1      -1.236  -6.263  -2.061  0.00  0.00    -0.270 OA
ATOM      3  N   UNL     1      -0.778  -7.842  -0.568  0.00  0.00    -0.296 N 
ATOM      4  C   UNL     1      -0.486  -8.387   0.779  0.00  0.00    +0.121 C 
ATOM      5  C   UNL     1      -1.153  -9.781   0.789  0.00  0.00    +0.100 C 
ATOM      6  C   UNL     1      -1.244 -10.182  -0.693  0.00  0.00    -0.004 C 
ATOM      7  C   UNL     1      -0.639  -9.007  -1.474  0.00  0.00    +0.115 C 
ATOM      8  C   UNL     1      -0.442 -11.455  -0.947  0.00  0.00    -0.010 C 
ATOM      9  C   UNL     1      -0.596 -11.866  -2.414  0.00  0.00    -0.082 C 
ATOM     10  N   UNL     1      -2.015 -12.089  -2.715  0.00  0.00    +0.379 N 
ATOM     11  C   UNL     1      -2.764 -10.837  -2.558  0.00  0.00    -0.082 C 
ATOM     12  C   UNL     1      -2.702 -10.383  -1.097  0.00  0.00    -0.010 C 
ATOM     13  H   UNL     1      -2.108 -12.419  -3.665  0.00  0.00    -0.086 HD
ATOM     14  H   UNL     1      -2.386 -12.783  -2.084  0.00  0.00    -0.086 HD
ENDROOT
BRANCH   1  16
ATOM     15  C   UNL     1      -2.343  -4.639   0.089  0.00  0.00    +0.233 A 
ATOM     16  C   UNL     1      -1.292  -5.566   0.166  0.00  0.00    +0.099 A 
ATOM     17  C   UNL     1      -0.429  -5.517   1.267  0.00  0.00    +0.020 A 
ATOM     18  C   UNL     1      -0.651  -4.553   2.233  0.00  0.00    +0.021 A 
ATOM     19  C   UNL     1      -1.709  -3.673   2.087  0.00  0.00    +0.114 A 
ATOM     20  N   UNL     1      -2.507  -3.734   1.038  0.00  0.00    -0.220 NA
BRANCH  15  21
ATOM     21  O   UNL     1      -3.190  -4.668  -0.968  0.00  0.00    -0.437 OA
BRANCH  21  26
ATOM     22  C   UNL     1      -7.077  -0.611  -1.354  0.00  0.00    +0.044 C 
ATOM     23  C   UNL     1      -6.037  -1.696  -1.250  0.00  0.00    -0.050 A 
ATOM     24  C   UNL     1      -4.712  -1.411  -1.523  0.00  0.00    +0.007 A 
ATOM     25  C   UNL     1      -3.757  -2.404  -1.429  0.00  0.00    +0.046 A 
ATOM     26  C   UNL     1      -4.128  -3.689  -1.060  0.00  0.00    +0.130 A 
ATOM     27  C   UNL     1      -5.458  -3.973  -0.787  0.00  0.00    +0.046 A 
ATOM     28  C   UNL     1      -6.409  -2.975  -0.877  0.00  0.00    +0.007 A 
ENDBRANCH  21  26
ENDBRANCH  15  21
ENDBRANCH   1  16
BRANCH   5  29
ATOM     29  C   UNL     1      -2.528  -9.701   1.399  0.00  0.00    +0.219 C 
ATOM     30  O   UNL     1      -3.182  -8.686   1.291  0.00  0.00    -0.275 OA
ATOM     31  N   UNL     1      -3.032 -10.759   2.065  0.00  0.00    -0.309 N 
ATOM     32  H   UNL     1      -2.509 -11.572   2.152  0.00  0.00    +0.149 HD
BRANCH  31  33
ATOM     33  C   UNL     1      -4.369 -10.682   2.659  0.00  0.00    +0.100 C 
ATOM     34  C   UNL     1      -4.276 -10.039   4.044  0.00  0.00    +0.033 C 
BRANCH  33  35
ATOM     35  C   UNL     1      -4.943 -12.069   2.786  0.00  0.00    -0.001 C 
ATOM     36  C   UNL     1      -6.127 -12.512   2.357  0.00  0.00    +0.063 C 
ATOM     37  N   UNL     1      -6.288 -13.820   2.655  0.00  0.00    -0.159 NA
ATOM     38  N   UNL     1      -5.335 -14.330   3.249  0.00  0.00    -0.180 NA
ATOM     39  C   UNL     1      -4.307 -13.290   3.426  0.00  0.00    +0.154 C 
ATOM     40  C   UNL     1      -4.040 -13.044   4.913  0.00  0.00    +0.039 C 
ATOM     41  C   UNL     1      -7.147 -11.667   1.637  0.00  0.00    +0.067 C 
ENDBRANCH  33  35
ENDBRANCH  31  33
ENDBRANCH   5  29
TORSDOF 6
