REMARK  Name = ZINC53096404
REMARK  4 active torsions:
REMARK  status: ('A' for Active; 'I' for Inactive)
REMARK    1  A    between atoms: C_6  and  C_7
REMARK    2  A    between atoms: N_9  and  C_10
REMARK    3  A    between atoms: C_10  and  C_16
REMARK    4  A    between atoms: C_16  and  O_17
REMARK                            x       y       z     vdW  Elec       q    Type
REMARK                         _______ _______ _______ _____ _____    ______ ____
ROOT
ATOM      1  C   UNL     1      -1.704  -2.216   2.209  0.00  0.00    +0.027 A 
ATOM      2  C   UNL     1      -1.238  -3.117   3.152  0.00  0.00    -0.025 A 
ATOM      3  C   UNL     1       0.031  -3.652   3.019  0.00  0.00    +0.047 A 
ATOM      4  N   UNL     1       0.803  -3.311   1.999  0.00  0.00    -0.236 NA
ATOM      5  C   UNL     1       0.408  -2.456   1.072  0.00  0.00    +0.137 A 
ATOM      6  C   UNL     1      -0.869  -1.872   1.141  0.00  0.00    +0.092 A 
ATOM      7  N   UNL     1       1.257  -2.133   0.027  0.00  0.00    -0.320 N 
ATOM      8  C   UNL     1       0.302  -4.604   4.167  0.00  0.00    +0.056 C 
ATOM      9  C   UNL     1      -0.752  -4.257   5.238  0.00  0.00    +0.011 C 
ATOM     10  C   UNL     1      -1.902  -3.669   4.394  0.00  0.00    +0.037 C 
ATOM     11  H   UNL     1       0.942  -1.570  -0.697  0.00  0.00    +0.148 HD
ENDROOT
BRANCH   7  12
ATOM     12  C   UNL     1       2.630  -2.643   0.014  0.00  0.00    +0.056 C 
ATOM     13  C   UNL     1       3.379  -2.061  -1.186  0.00  0.00    +0.028 C 
ATOM     14  C   UNL     1       2.671  -2.472  -2.478  0.00  0.00    +0.002 C 
ATOM     15  C   UNL     1       2.647  -3.998  -2.583  0.00  0.00    +0.000 C 
ATOM     16  C   UNL     1       1.898  -4.581  -1.383  0.00  0.00    +0.002 C 
ATOM     17  C   UNL     1       2.607  -4.169  -0.091  0.00  0.00    +0.028 C 
BRANCH  12  18
ATOM     18  C   UNL     1       3.339  -2.232   1.306  0.00  0.00    +0.181 C 
BRANCH  18  19
ATOM     19  O   UNL     1       3.250  -0.815   1.468  0.00  0.00    -0.393 OA
ATOM     20  H   UNL     1       3.679  -0.482   2.268  0.00  0.00    +0.209 HD
ENDBRANCH  18  19
ENDBRANCH  12  18
ENDBRANCH   7  12
BRANCH   6  21
ATOM     21  C   UNL     1      -1.304  -0.946   0.140  0.00  0.00    +0.103 C 
ATOM     22  N   UNL     1      -1.650  -0.210  -0.654  0.00  0.00    -0.191 NA
ENDBRANCH   6  21
TORSDOF 4
