REMARK  Name = ZINC67586057
REMARK  5 active torsions:
REMARK  status: ('A' for Active; 'I' for Inactive)
REMARK    1  A    between atoms: C_3  and  S_19
REMARK    2  A    between atoms: C_5  and  C_6
REMARK    3  A    between atoms: C_6  and  N_7
REMARK    4  A    between atoms: C_14  and  C_16
REMARK    5  A    between atoms: S_19  and  N_22
REMARK                            x       y       z     vdW  Elec       q    Type
REMARK                         _______ _______ _______ _____ _____    ______ ____
ROOT
ATOM      1  N   UNL     1      -1.544  -1.274  -1.371  0.00  0.00    -0.294 N 
ATOM      2  C   UNL     1      -2.565  -2.121  -1.611  0.00  0.00    +0.306 C 
ATOM      3  O   UNL     1      -3.162  -2.632  -0.684  0.00  0.00    -0.252 OA
ATOM      4  N   UNL     1      -2.922  -2.402  -2.880  0.00  0.00    -0.247 N 
ATOM      5  C   UNL     1      -3.975  -3.276  -3.129  0.00  0.00    +0.189 A 
ATOM      6  N   UNL     1      -4.742  -3.919  -2.270  0.00  0.00    -0.125 NA
ATOM      7  N   UNL     1      -5.670  -4.688  -2.650  0.00  0.00    -0.139 NA
ATOM      8  C   UNL     1      -5.879  -4.853  -3.941  0.00  0.00    +0.169 A 
ATOM      9  S   UNL     1      -4.609  -3.784  -4.606  0.00  0.00    -0.030 S 
ATOM     10  H   UNL     1      -1.067  -0.867  -2.111  0.00  0.00    +0.151 HD
ATOM     11  H   UNL     1      -2.445  -1.994  -3.620  0.00  0.00    +0.158 HD
ENDROOT
BRANCH   8  12
ATOM     12  C   UNL     1      -6.902  -5.699  -4.655  0.00  0.00    +0.398 C 
ATOM     13  F   UNL     1      -8.053  -5.803  -3.866  0.00  0.00    -0.202 F 
ATOM     14  F   UNL     1      -7.227  -5.103  -5.878  0.00  0.00    -0.202 F 
ENDBRANCH   8  12
BRANCH   1  15
ATOM     15  C   UNL     1      -1.155  -0.969   0.008  0.00  0.00    +0.148 C 
BRANCH  15  20
ATOM     16  C   UNL     1      -0.016   1.351   0.009  0.00  0.00    +0.015 A 
ATOM     17  C   UNL     1       1.183   2.038   0.002  0.00  0.00    +0.036 A 
ATOM     18  C   UNL     1       2.343   1.336  -0.013  0.00  0.00    +0.142 A 
ATOM     19  S   UNL     1       1.754  -0.349  -0.017  0.00  0.00    -0.072 S 
ATOM     20  C   UNL     1       0.002  -0.004   0.002  0.00  0.00    +0.009 A 
BRANCH  18  21
ATOM     21  S   UNL     1       4.001   1.932  -0.026  0.00  0.00    +0.062 S 
ATOM     22  O   UNL     1       4.799   0.900  -0.590  0.00  0.00    -0.153 OA
ATOM     23  O   UNL     1       3.957   3.244  -0.570  0.00  0.00    -0.153 OA
BRANCH  21  24
ATOM     24  N   UNL     1       4.477   2.089   1.552  0.00  0.00    -0.203 NA
ATOM     25  H   UNL     1       3.864   1.863   2.268  0.00  0.00    +0.144 HD
ATOM     26  H   UNL     1       5.369   2.408   1.760  0.00  0.00    +0.144 HD
ENDBRANCH  21  24
ENDBRANCH  18  21
ENDBRANCH  15  20
ENDBRANCH   1  15
TORSDOF 5
