REMARK  Name = ZINC06357307
REMARK  7 active torsions:
REMARK  status: ('A' for Active; 'I' for Inactive)
REMARK    1  A    between atoms: C_1  and  C_2
REMARK    2  A    between atoms: C_2  and  C_3
REMARK    3  A    between atoms: C_2  and  C_4
REMARK    4  A    between atoms: C_2  and  O_5
REMARK    5  A    between atoms: O_5  and  C_6
REMARK    6  A    between atoms: C_12  and  C_14
REMARK    7  A    between atoms: N_16  and  C_17
REMARK                            x       y       z     vdW  Elec       q    Type
REMARK                         _______ _______ _______ _____ _____    ______ ____
ROOT
ATOM      1  C   UNL     1       7.471   1.273  -2.897  0.00  0.00    +0.404 C 
ATOM      2  O   UNL     1       6.451   1.166  -3.549  0.00  0.00    -0.226 OA
ATOM      3  N   UNL     1       7.680   0.469  -1.836  0.00  0.00    -0.256 N 
ATOM      4  C   UNL     1       8.868   0.488  -0.958  0.00  0.00    +0.112 C 
ATOM      5  C   UNL     1       8.932  -0.934  -0.347  0.00  0.00    +0.021 C 
ATOM      6  C   UNL     1       7.428  -1.254  -0.142  0.00  0.00    +0.033 C 
ATOM      7  C   UNL     1       6.762  -0.575  -1.358  0.00  0.00    +0.165 C 
ENDROOT
BRANCH   7   8
ATOM      8  C   UNL     1       5.452   0.045  -0.944  0.00  0.00    +0.234 C 
ATOM      9  O   UNL     1       5.388   1.234  -0.718  0.00  0.00    -0.274 OA
ATOM     10  N   UNL     1       4.351  -0.724  -0.827  0.00  0.00    -0.311 N 
ATOM     11  H   UNL     1       4.402  -1.675  -1.008  0.00  0.00    +0.149 HD
BRANCH  10  12
ATOM     12  C   UNL     1       3.077  -0.121  -0.425  0.00  0.00    +0.073 C 
ATOM     13  C   UNL     1       2.192  -1.187   0.225  0.00  0.00    +0.022 C 
ATOM     14  C   UNL     1       1.056  -0.506   0.991  0.00  0.00    +0.002 C 
ATOM     15  C   UNL     1       0.002  -0.004   0.002  0.00  0.00    +0.000 C 
ATOM     16  C   UNL     1      -0.019   1.526   0.010  0.00  0.00    +0.000 C 
ATOM     17  C   UNL     1       1.417   2.055  -0.000  0.00  0.00    +0.000 C 
ATOM     18  C   UNL     1       2.003   1.910  -1.406  0.00  0.00    +0.002 C 
ATOM     19  C   UNL     1       2.370   0.447  -1.657  0.00  0.00    +0.022 C 
ENDBRANCH  10  12
ENDBRANCH   7   8
BRANCH   1  20
ATOM     20  O   UNL     1       8.392   2.195  -3.236  0.00  0.00    -0.445 OA
BRANCH  20  22
ATOM     21  C   UNL     1       6.808   3.808  -4.142  0.00  0.00    +0.055 C 
ATOM     22  C   UNL     1       8.100   3.026  -4.390  0.00  0.00    +0.107 C 
ATOM     23  C   UNL     1       9.253   4.006  -4.618  0.00  0.00    +0.055 C 
ATOM     24  C   UNL     1       7.931   2.140  -5.626  0.00  0.00    +0.055 C 
ENDBRANCH  20  22
ENDBRANCH   1  20
TORSDOF 4
