REMARK  Name = ZINC05258224
REMARK  11 active torsions:
REMARK  status: ('A' for Active; 'I' for Inactive)
REMARK    1  A    between atoms: C_1  and  C_2
REMARK    2  A    between atoms: C_6  and  N_8
REMARK    3  A    between atoms: N_8  and  C_9
REMARK    4  A    between atoms: C_9  and  C_10
REMARK    5  A    between atoms: C_10  and  N_48
REMARK    6  A    between atoms: CA_11  and  C_13
REMARK    7  A    between atoms: CA_11  and  C_25
REMARK    8  A    between atoms: CA_11  and  N_48
REMARK    9  A    between atoms: C_13  and  C_14
REMARK   10  A    between atoms: N_16  and  C_17
REMARK   11  A    between atoms: C_20  and  C_24
REMARK                            x       y       z     vdW  Elec       q    Type
REMARK                         _______ _______ _______ _____ _____    ______ ____
ROOT
ATOM      1  CA  UNL     1       2.119   9.399  -0.032  0.00  0.00    +0.052 C 
ENDROOT
BRANCH   1   2
ATOM      2  C   UNL     1       1.868   9.863  -1.444  0.00  0.00    +0.343 C 
ATOM      3  O   UNL     1       2.048   9.107  -2.369  0.00  0.00    -0.248 OA
ATOM      4  OXT UNL     1       1.444  11.116  -1.673  0.00  0.00    -0.248 OA
ENDBRANCH   1   2
BRANCH   1   5
ATOM      5  N   UNL     1       2.582   7.999  -0.049  0.00  0.00    +0.389 N 
ATOM      6  H1  UNL     1       3.163   7.844  -0.881  0.00  0.00    -0.085 HD
ATOM      7  H2  UNL     1       3.137   7.815   0.795  0.00  0.00    -0.085 HD
BRANCH   5   8
ATOM      8  C   UNL     1       1.429   7.079  -0.083  0.00  0.00    -0.063 C 
BRANCH   8   9
ATOM      9  C   UNL     1       1.939   5.636  -0.100  0.00  0.00    +0.082 C 
BRANCH   9  10
ATOM     10  N   UNL     1       0.800   4.716  -0.133  0.00  0.00    -0.346 N 
ATOM     11  H   UNL     1      -0.105   5.064  -0.141  0.00  0.00    +0.146 HD
BRANCH  10  17
ATOM     12  C   UNL     1      -1.013   0.149  -0.251  0.00  0.00    +0.044 C 
ATOM     13  C   UNL     1       0.157   1.099  -0.210  0.00  0.00    -0.049 A 
ATOM     14  C   UNL     1       1.448   0.603  -0.193  0.00  0.00    +0.003 A 
ATOM     15  C   UNL     1       2.524   1.470  -0.162  0.00  0.00    +0.002 A 
ATOM     16  C   UNL     1       2.313   2.835  -0.142  0.00  0.00    +0.023 A 
ATOM     17  C   UNL     1       1.017   3.336  -0.154  0.00  0.00    +0.027 A 
ATOM     18  C   UNL     1      -0.062   2.462  -0.185  0.00  0.00    +0.026 A 
ENDBRANCH  10  17
ENDBRANCH   9  10
ENDBRANCH   8   9
ENDBRANCH   5   8
ENDBRANCH   1   5
BRANCH   1  19
ATOM     19  C   UNL     1       3.195  10.276   0.609  0.00  0.00    +0.091 C 
BRANCH  19  20
ATOM     20  C   UNL     1       3.359   9.893   2.057  0.00  0.00    +0.216 C 
ATOM     21  O   UNL     1       2.681   9.005   2.530  0.00  0.00    -0.276 OA
ATOM     22  N   UNL     1       4.259  10.536   2.828  0.00  0.00    -0.285 N 
ATOM     23  H   UNL     1       4.854  11.192   2.433  0.00  0.00    +0.155 HD
BRANCH  22  24
ATOM     24  C   UNL     1       4.334  10.257   4.197  0.00  0.00    +0.035 A 
ATOM     25  C   UNL     1       3.186   9.926   4.904  0.00  0.00    +0.023 A 
ATOM     26  C   UNL     1       3.264   9.646   6.254  0.00  0.00    +0.006 A 
ATOM     27  C   UNL     1       4.482   9.705   6.905  0.00  0.00    -0.032 A 
ATOM     28  C   UNL     1       5.628  10.040   6.205  0.00  0.00    +0.046 A 
ATOM     29  C   UNL     1       5.557  10.316   4.852  0.00  0.00    +0.043 A 
ATOM     30 CL   UNL     1       7.156  10.113   7.026  0.00  0.00    -0.083 Cl
ATOM     31  C   UNL     1       4.562   9.405   8.379  0.00  0.00    +0.045 C 
ENDBRANCH  22  24
ENDBRANCH  19  20
ENDBRANCH   1  19
TORSDOF 9
