REMARK  Name = ZINC38623348
REMARK  10 active torsions:
REMARK  status: ('A' for Active; 'I' for Inactive)
REMARK    1  A    between atoms: C_1  and  C_2
REMARK    2  A    between atoms: C_3  and  C_33
REMARK    3  A    between atoms: N_6  and  C_24
REMARK    4  A    between atoms: C_8  and  C_9
REMARK    5  A    between atoms: C_9  and  C_11
REMARK    6  A    between atoms: C_11  and  C_13
REMARK    7  A    between atoms: C_11  and  O_14
REMARK    8  A    between atoms: O_14  and  C_15
REMARK    9  A    between atoms: C_24  and  C_26
REMARK   10  A    between atoms: C_24  and  C_27
REMARK                            x       y       z     vdW  Elec       q    Type
REMARK                         _______ _______ _______ _____ _____    ______ ____
ROOT
ATOM      1  C   UNL     1       0.101   1.514  -0.087  0.00  0.00    +0.046 C 
ATOM      2  C   UNL     1       0.103   0.007  -0.052  0.00  0.00    -0.012 A 
ATOM      3  C   UNL     1       0.129  -0.727  -1.232  0.00  0.00    +0.120 A 
ATOM      4  C   UNL     1       0.131  -2.189  -1.154  0.00  0.00    +0.272 A 
ATOM      5  O   UNL     1       0.154  -2.854  -2.174  0.00  0.00    -0.266 OA
ATOM      6  N   UNL     1       0.108  -2.797   0.047  0.00  0.00    -0.267 N 
ATOM      7  C   UNL     1       0.083  -2.080   1.195  0.00  0.00    +0.266 A 
ATOM      8  C   UNL     1       0.086  -0.681   1.176  0.00  0.00    +0.090 A 
ATOM      9  O   UNL     1       0.060  -2.725   2.376  0.00  0.00    -0.267 OA
ENDROOT
BRANCH   8  10
ATOM     10  C   UNL     1       0.065   0.067   2.432  0.00  0.00    +0.208 C 
ATOM     11  O   UNL     1      -0.015   1.278   2.417  0.00  0.00    -0.288 OA
BRANCH  10  12
ATOM     12  C   UNL     1       0.143  -0.666   3.747  0.00  0.00    +0.241 C 
ATOM     13  C   UNL     1       1.574  -1.157   3.973  0.00  0.00    +0.060 C 
BRANCH  12  14
ATOM     14  O   UNL     1      -0.231   0.217   4.807  0.00  0.00    -0.480 OA
BRANCH  14  15
ATOM     15  C   UNL     1      -0.719  -0.353   5.941  0.00  0.00    +0.140 A 
ATOM     16  C   UNL     1      -0.732  -1.734   6.074  0.00  0.00    +0.048 A 
ATOM     17  C   UNL     1      -1.228  -2.311   7.227  0.00  0.00    +0.023 A 
ATOM     18  C   UNL     1      -1.711  -1.513   8.250  0.00  0.00    +0.043 A 
ATOM     19  C   UNL     1      -1.699  -0.136   8.120  0.00  0.00    +0.043 A 
ATOM     20  C   UNL     1      -1.198   0.446   6.970  0.00  0.00    +0.084 A 
ATOM     21 CL   UNL     1      -1.176   2.175   6.809  0.00  0.00    -0.080 Cl
ATOM     22 CL   UNL     1      -2.334  -2.241   9.697  0.00  0.00    -0.083 Cl
ENDBRANCH  14  15
ENDBRANCH  12  14
ENDBRANCH  10  12
ENDBRANCH   8  10
BRANCH   6  23
ATOM     23  C   UNL     1       0.109  -4.261   0.112  0.00  0.00    +0.121 C 
ATOM     24  C   UNL     1      -0.003  -4.835  -1.302  0.00  0.00    +0.036 C 
BRANCH  23  25
ATOM     25  C   UNL     1       1.392  -4.734   0.747  0.00  0.00    -0.025 A 
ATOM     26  C   UNL     1       2.571  -4.052   0.512  0.00  0.00    +0.005 A 
ATOM     27  C   UNL     1       3.748  -4.486   1.094  0.00  0.00    +0.000 A 
ATOM     28  C   UNL     1       3.744  -5.601   1.911  0.00  0.00    +0.000 A 
ATOM     29  C   UNL     1       2.565  -6.282   2.146  0.00  0.00    +0.000 A 
ATOM     30  C   UNL     1       1.387  -5.846   1.568  0.00  0.00    +0.005 A 
ENDBRANCH  23  25
ENDBRANCH   6  23
BRANCH   3  31
ATOM     31  C   UNL     1       0.153  -0.065  -2.502  0.00  0.00    +0.105 C 
ATOM     32  N   UNL     1       0.172   0.460  -3.509  0.00  0.00    -0.191 NA
ENDBRANCH   3  31
TORSDOF 7
