REMARK  Name = ZINC22133472
REMARK  13 active torsions:
REMARK  status: ('A' for Active; 'I' for Inactive)
REMARK    1  A    between atoms: C_1  and  C_2
REMARK    2  A    between atoms: C_2  and  O_3
REMARK    3  A    between atoms: O_3  and  C_4
REMARK    4  A    between atoms: C_4  and  C_6
REMARK    5  A    between atoms: C_7  and  C_32
REMARK    6  A    between atoms: C_11  and  C_15
REMARK    7  A    between atoms: C_15  and  S_16
REMARK    8  A    between atoms: S_16  and  C_17
REMARK    9  A    between atoms: C_20  and  C_28
REMARK   10  A    between atoms: N_21  and  C_22
REMARK   11  A    between atoms: C_22  and  C_23
REMARK   12  A    between atoms: C_28  and  C_29
REMARK   13  A    between atoms: C_28  and  C_30
REMARK                            x       y       z     vdW  Elec       q    Type
REMARK                         _______ _______ _______ _____ _____    ______ ____
ROOT
ATOM      1  C   UNL     1       0.832  -9.307   1.568  0.00  0.00    +0.102 A 
ATOM      2  C   UNL     1       0.670  -8.816   0.307  0.00  0.00    -0.017 A 
ATOM      3  C   UNL     1       0.423  -7.451   0.117  0.00  0.00    +0.051 A 
ATOM      4  C   UNL     1       0.225  -6.729  -1.098  0.00  0.00    +0.128 A 
ATOM      5  N   UNL     1      -0.001  -5.427  -1.046  0.00  0.00    -0.216 NA
ATOM      6  C   UNL     1      -0.040  -4.763   0.096  0.00  0.00    +0.143 A 
ATOM      7  N   UNL     1       0.136  -5.372   1.253  0.00  0.00    -0.224 NA
ATOM      8  C   UNL     1       0.361  -6.669   1.297  0.00  0.00    +0.115 A 
ATOM      9  S   UNL     1       0.644  -7.854   2.587  0.00  0.00    -0.062 S 
ATOM     10  N   UNL     1       0.263  -7.383  -2.313  0.00  0.00    -0.343 N 
ATOM     11  C   UNL     1       0.756  -9.741  -0.880  0.00  0.00    +0.046 C 
ATOM     12  H   UNL     1       0.109  -6.821  -3.245  0.00  0.00    +0.144 HD
ATOM     13  H   UNL     1       0.447  -8.467  -2.349  0.00  0.00    +0.144 HD
ENDROOT
BRANCH   1  14
ATOM     14  C   UNL     1       1.095 -10.688   1.984  0.00  0.00    +0.346 C 
ATOM     15  O   UNL     1       1.194 -11.566   1.149  0.00  0.00    -0.244 OA
BRANCH  14  16
ATOM     16  O   UNL     1       1.227 -10.984   3.293  0.00  0.00    -0.461 OA
BRANCH  16  18
ATOM     17  C   UNL     1       1.604 -12.512   5.151  0.00  0.00    +0.048 C 
ATOM     18  C   UNL     1       1.486 -12.372   3.632  0.00  0.00    +0.229 C 
ENDBRANCH  16  18
ENDBRANCH  14  16
ENDBRANCH   1  14
BRANCH   6  19
ATOM     19  C   UNL     1      -0.297  -3.279   0.076  0.00  0.00    +0.153 C 
BRANCH  19  20
ATOM     20  S   UNL     1       1.278  -2.395  -0.035  0.00  0.00    -0.078 S 
BRANCH  20  21
ATOM     21  C   UNL     1       0.697  -0.732  -0.040  0.00  0.00    +0.192 A 
ATOM     22  N   UNL     1      -0.556  -0.343   0.022  0.00  0.00    -0.122 NA
ATOM     23  N   UNL     1      -0.616   0.941  -0.004  0.00  0.00    -0.133 NA
ATOM     24  C   UNL     1       0.584   1.443  -0.084  0.00  0.00    +0.137 A 
ATOM     25  N   UNL     1       1.463   0.396  -0.110  0.00  0.00    -0.298 N 
BRANCH  24  26
ATOM     26  C   UNL     1       0.937   2.907  -0.139  0.00  0.00    +0.051 C 
ATOM     27  C   UNL     1       0.285   3.544  -1.368  0.00  0.00    +0.015 C 
ATOM     28  C   UNL     1       0.428   3.603   1.125  0.00  0.00    +0.015 C 
ENDBRANCH  24  26
BRANCH  25  29
ATOM     29  C   UNL     1       2.924   0.469  -0.194  0.00  0.00    +0.199 C 
BRANCH  29  30
ATOM     30  C   UNL     1       3.345   0.461  -1.641  0.00  0.00    +0.125 A 
ATOM     31  C   UNL     1       3.503   1.546  -2.420  0.00  0.00    +0.046 A 
ATOM     32  C   UNL     1       3.905   1.081  -3.693  0.00  0.00    +0.041 A 
ATOM     33  C   UNL     1       3.960  -0.261  -3.618  0.00  0.00    +0.195 A 
ATOM     34  O   UNL     1       3.619  -0.630  -2.373  0.00  0.00    -0.466 OA
ENDBRANCH  29  30
ENDBRANCH  25  29
ENDBRANCH  20  21
ENDBRANCH  19  20
ENDBRANCH   6  19
TORSDOF 9
