REMARK  Name = ZINC00522010
REMARK  1 active torsions:
REMARK  status: ('A' for Active; 'I' for Inactive)
REMARK    1  A    between atoms: N_15  and  C_16
REMARK                            x       y       z     vdW  Elec       q    Type
REMARK                         _______ _______ _______ _____ _____    ______ ____
ROOT
ATOM      1  C   UNL     1      -0.013   1.076   0.008  0.00  0.00    +0.003 A 
ATOM      2  C   UNL     1       1.175   1.773   0.000  0.00  0.00    +0.027 A 
ATOM      3  C   UNL     1       1.165   3.166   0.007  0.00  0.00    +0.057 A 
ATOM      4  C   UNL     1      -0.070   3.846   0.022  0.00  0.00    +0.018 A 
ATOM      5  C   UNL     1      -0.106   5.260   0.030  0.00  0.00    +0.028 A 
ATOM      6  C   UNL     1       1.087   5.955   0.023  0.00  0.00    +0.083 A 
ATOM      7  C   UNL     1       1.140   7.426   0.030  0.00  0.00    +0.263 A 
ATOM      8  O   UNL     1       0.126   8.097   0.043  0.00  0.00    -0.267 OA
ATOM      9  N   UNL     1       2.366   8.000   0.021  0.00  0.00    -0.273 N 
ATOM     10  H   UNL     1       2.439   8.967   0.025  0.00  0.00    +0.174 HD
ATOM     11  C   UNL     1       3.480   7.254   0.006  0.00  0.00    +0.350 A 
ATOM     12  O   UNL     1       4.554   7.831  -0.001  0.00  0.00    -0.245 OA
ATOM     13  N   UNL     1       3.487   5.925  -0.001  0.00  0.00    -0.175 NA
ATOM     14  C   UNL     1       2.359   5.226   0.007  0.00  0.00    +0.156 A 
ATOM     15  N   UNL     1       2.356   3.862   0.000  0.00  0.00    -0.293 N 
ATOM     16  C   UNL     1      -1.269   3.111   0.030  0.00  0.00    +0.050 A 
ATOM     17  C   UNL     1      -1.229   1.746   0.017  0.00  0.00    +0.021 A 
ATOM     18 CL   UNL     1      -2.796   3.936   0.049  0.00  0.00    -0.083 Cl
ENDROOT
BRANCH  15  19
ATOM     19  C   UNL     1       3.570   3.164  -0.014  0.00  0.00    +0.049 A 
ATOM     20  C   UNL     1       3.932   2.376   1.071  0.00  0.00    +0.029 A 
ATOM     21  C   UNL     1       5.127   1.685   1.052  0.00  0.00    +0.040 A 
ATOM     22  C   UNL     1       5.969   1.785  -0.042  0.00  0.00    +0.124 A 
ATOM     23  C   UNL     1       5.613   2.575  -1.123  0.00  0.00    +0.040 A 
ATOM     24  C   UNL     1       4.416   3.264  -1.111  0.00  0.00    +0.029 A 
ATOM     25  F   UNL     1       7.140   1.111  -0.056  0.00  0.00    -0.205 F 
ENDBRANCH  15  19
TORSDOF 1
