REMARK  Name = ZINC54155169
REMARK  9 active torsions:
REMARK  status: ('A' for Active; 'I' for Inactive)
REMARK    1  A    between atoms: C_1  and  C_2
REMARK    2  A    between atoms: C_3  and  C_9
REMARK    3  A    between atoms: C_4  and  C_8
REMARK    4  A    between atoms: N_5  and  C_7
REMARK    5  A    between atoms: N_11  and  C_12
REMARK    6  A    between atoms: C_12  and  C_13
REMARK    7  A    between atoms: C_13  and  C_15
REMARK    8  A    between atoms: C_13  and  C_16
REMARK    9  A    between atoms: N_17  and  O_18
REMARK                            x       y       z     vdW  Elec       q    Type
REMARK                         _______ _______ _______ _____ _____    ______ ____
ROOT
ATOM      1  C   UNL     1      -0.005  -0.375  -2.549  0.00  0.00    +0.248 C 
ATOM      2  O   UNL     1       1.043  -0.174  -3.132  0.00  0.00    -0.270 OA
ATOM      3  N   UNL     1      -1.178  -0.183  -3.184  0.00  0.00    -0.311 N 
ATOM      4  H   UNL     1      -2.014  -0.344  -2.719  0.00  0.00    +0.149 HD
ENDROOT
BRANCH   1   7
ATOM      5  C   UNL     1      -0.018   1.503   0.010  0.00  0.00    +0.068 C 
ATOM      6  C   UNL     1       0.002  -0.004   0.002  0.00  0.00    +0.072 A 
ATOM      7  C   UNL     1       0.008  -0.828  -1.146  0.00  0.00    +0.080 A 
ATOM      8  C   UNL     1       0.028  -2.137  -0.708  0.00  0.00    +0.048 A 
ATOM      9  N   UNL     1       0.034  -2.111   0.635  0.00  0.00    -0.271 N 
ATOM     10  N   UNL     1       0.023  -0.776   1.053  0.00  0.00    -0.176 NA
ATOM     11  C   UNL     1       0.055  -3.284   1.513  0.00  0.00    +0.172 C 
ATOM     12  C   UNL     1       0.041  -3.368  -1.577  0.00  0.00    +0.066 C 
ENDBRANCH   1   7
BRANCH   3  13
ATOM     13  C   UNL     1      -1.191   0.267  -4.578  0.00  0.00    +0.115 C 
BRANCH  13  14
ATOM     14  C   UNL     1      -2.637   0.405  -5.056  0.00  0.00    +0.069 C 
ATOM     15  C   UNL     1      -3.303  -0.973  -5.070  0.00  0.00    +0.017 C 
BRANCH  14  16
ATOM     16  C   UNL     1      -2.654   0.984  -6.447  0.00  0.00    +0.136 C 
ATOM     17  N   UNL     1      -2.714   0.201  -7.473  0.00  0.00    -0.076 NA
ATOM     18  N   UNL     1      -2.604   2.349  -6.625  0.00  0.00    -0.344 N 
ATOM     19  H   UNL     1      -2.559   2.937  -5.855  0.00  0.00    +0.144 HD
ATOM     20  H   UNL     1      -2.615   2.722  -7.521  0.00  0.00    +0.144 HD
BRANCH  17  21
ATOM     21  O   UNL     1      -2.729   0.745  -8.780  0.00  0.00    -0.408 OA
ATOM     22  H   UNL     1      -2.776   0.082  -9.482  0.00  0.00    +0.328 HD
ENDBRANCH  17  21
ENDBRANCH  14  16
ENDBRANCH  13  14
ENDBRANCH   3  13
TORSDOF 5
