REMARK  Name = ZINC08921359
REMARK  3 active torsions:
REMARK  status: ('A' for Active; 'I' for Inactive)
REMARK    1  A    between atoms: C_12  and  C_16
REMARK    2  A    between atoms: C_22  and  C_24
REMARK    3  A    between atoms: C_24  and  C_25
REMARK                            x       y       z     vdW  Elec       q    Type
REMARK                         _______ _______ _______ _____ _____    ______ ____
ROOT
ATOM      1  C   UNL     1      -2.514   8.198   0.066  0.00  0.00    +0.259 C 
ATOM      2  O   UNL     1      -2.463   9.414   0.071  0.00  0.00    -0.269 OA
ATOM      3  N   UNL     1      -3.708   7.574   0.074  0.00  0.00    -0.234 N 
ATOM      4  C   UNL     1      -4.879   8.316   0.088  0.00  0.00    +0.314 A 
ATOM      5  N   UNL     1      -4.969   9.623   0.094  0.00  0.00    -0.092 NA
ATOM      6  N   UNL     1      -6.210   9.963   0.107  0.00  0.00    -0.111 NA
ATOM      7  C   UNL     1      -6.954   8.896   0.111  0.00  0.00    +0.223 A 
ATOM      8  O   UNL     1      -6.133   7.829   0.093  0.00  0.00    -0.409 OA
ATOM      9  H   UNL     1      -3.749   6.604   0.071  0.00  0.00    +0.160 HD
ENDROOT
BRANCH   1  21
ATOM     10  C   UNL     1      -0.013   1.076   0.008  0.00  0.00    +0.001 A 
ATOM     11  C   UNL     1      -1.232   1.745   0.017  0.00  0.00    +0.001 A 
ATOM     12  C   UNL     1      -1.282   3.109   0.030  0.00  0.00    +0.009 A 
ATOM     13  C   UNL     1      -0.094   3.844   0.023  0.00  0.00    -0.007 A 
ATOM     14  C   UNL     1       1.149   3.167   0.008  0.00  0.00    -0.017 A 
ATOM     15  C   UNL     1       1.164   1.764   0.000  0.00  0.00    +0.008 A 
ATOM     16  C   UNL     1       2.344   3.913   0.001  0.00  0.00    +0.012 A 
ATOM     17  C   UNL     1       2.325   5.269   0.007  0.00  0.00    +0.047 A 
ATOM     18  C   UNL     1       1.126   5.992   0.022  0.00  0.00    +0.140 A 
ATOM     19  C   UNL     1      -0.099   5.309   0.030  0.00  0.00    +0.026 A 
ATOM     20  C   UNL     1      -1.313   6.021   0.044  0.00  0.00    +0.032 A 
ATOM     21  C   UNL     1      -1.272   7.410   0.051  0.00  0.00    +0.122 A 
ATOM     22  C   UNL     1       0.035   8.073   0.042  0.00  0.00    +0.350 A 
ATOM     23  O   UNL     1       0.101   9.289   0.046  0.00  0.00    -0.244 OA
ATOM     24  O   UNL     1       1.161   7.341   0.028  0.00  0.00    -0.422 OA
ENDBRANCH   1  21
BRANCH   7  25
ATOM     25  C   UNL     1      -8.460   8.860   0.125  0.00  0.00    +0.132 C 
BRANCH  25  26
ATOM     26  C   UNL     1      -8.976   8.855  -1.291  0.00  0.00    -0.038 A 
ATOM     27  C   UNL     1      -9.246  10.049  -1.933  0.00  0.00    +0.007 A 
ATOM     28  C   UNL     1      -9.714  10.045  -3.233  0.00  0.00    +0.038 A 
ATOM     29  C   UNL     1      -9.923   8.844  -3.889  0.00  0.00    +0.123 A 
ATOM     30  C   UNL     1      -9.658   7.648  -3.244  0.00  0.00    +0.038 A 
ATOM     31  C   UNL     1      -9.184   7.655  -1.946  0.00  0.00    +0.007 A 
ATOM     32  F   UNL     1     -10.386   8.839  -5.159  0.00  0.00    -0.205 F 
ENDBRANCH  25  26
ENDBRANCH   7  25
TORSDOF 3
