REMARK  Name = ZINC19737239
REMARK  7 active torsions:
REMARK  status: ('A' for Active; 'I' for Inactive)
REMARK    1  A    between atoms: C_1  and  C_2
REMARK    2  A    between atoms: C_2  and  C_3
REMARK    3  A    between atoms: C_2  and  C_4
REMARK    4  A    between atoms: C_2  and  C_5
REMARK    5  A    between atoms: C_13  and  C_14
REMARK    6  A    between atoms: N_16  and  C_17
REMARK    7  A    between atoms: C_19  and  N_24
REMARK                            x       y       z     vdW  Elec       q    Type
REMARK                         _______ _______ _______ _____ _____    ______ ____
ROOT
ATOM      1  C   UNL     1      -0.789   1.623  -1.257  0.00  0.00    -0.004 C 
ATOM      2  C   UNL     1      -1.071   3.116  -1.068  0.00  0.00    +0.008 C 
ATOM      3  C   UNL     1      -2.117   3.311   0.033  0.00  0.00    +0.033 C 
ATOM      4  C   UNL     1      -1.664   2.559   1.278  0.00  0.00    -0.042 C 
ATOM      5  C   UNL     1      -0.732   1.585   1.202  0.00  0.00    +0.080 C 
ATOM      6  S   UNL     1      -0.535   1.014   2.866  0.00  0.00    -0.098 S 
ATOM      7  C   UNL     1      -1.673   2.054   3.656  0.00  0.00    +0.101 C 
ATOM      8  C   UNL     1      -2.182   2.819   2.612  0.00  0.00    +0.068 C 
ATOM      9  N   UNL     1      -1.999   2.109   4.998  0.00  0.00    -0.292 NA
ATOM     10  C   UNL     1      -0.027   1.104  -0.029  0.00  0.00    +0.023 C 
ATOM     11  H   UNL     1      -1.506   1.432   5.712  0.00  0.00    +0.187 HD
ENDROOT
BRANCH   1  13
ATOM     12  C   UNL     1       0.356  -0.074  -2.689  0.00  0.00    +0.011 C 
ATOM     13  C   UNL     1       0.061   1.417  -2.512  0.00  0.00    -0.035 C 
ATOM     14  C   UNL     1      -0.701   1.934  -3.734  0.00  0.00    +0.011 C 
ATOM     15  C   UNL     1       1.377   2.184  -2.369  0.00  0.00    +0.011 C 
ENDBRANCH   1  13
BRANCH   8  16
ATOM     16  C   UNL     1      -3.199   3.846   2.846  0.00  0.00    +0.251 C 
ATOM     17  O   UNL     1      -4.380   3.557   2.788  0.00  0.00    -0.270 OA
ATOM     18  N   UNL     1      -2.827   5.111   3.126  0.00  0.00    -0.280 N 
ATOM     19  H   UNL     1      -1.764   5.353   3.269  0.00  0.00    +0.155 HD
BRANCH  18  20
ATOM     20  C   UNL     1      -3.794   6.116   3.235  0.00  0.00    +0.054 A 
ATOM     21  C   UNL     1      -5.013   5.983   2.584  0.00  0.00    +0.057 A 
ATOM     22  C   UNL     1      -5.966   6.976   2.694  0.00  0.00    +0.128 A 
ATOM     23  C   UNL     1      -5.707   8.104   3.452  0.00  0.00    +0.034 A 
ATOM     24  C   UNL     1      -4.495   8.241   4.102  0.00  0.00    +0.024 A 
ATOM     25  C   UNL     1      -3.539   7.247   4.001  0.00  0.00    +0.062 A 
ATOM     26 CL   UNL     1      -2.020   7.416   4.824  0.00  0.00    -0.082 Cl
BRANCH  22  27
ATOM     27  N   UNL     1      -7.266   6.835   2.000  0.00  0.00    +0.056 N 
ATOM     28  O   UNL     1      -7.495   5.842   1.333  0.00  0.00    -0.126 OA
ATOM     29  O   UNL     1      -8.106   7.711   2.096  0.00  0.00    -0.126 OA
ENDBRANCH  22  27
ENDBRANCH  18  20
ENDBRANCH   8  16
TORSDOF 4
