REMARK  Name = ZINC07899902
REMARK  5 active torsions:
REMARK  status: ('A' for Active; 'I' for Inactive)
REMARK    1  A    between atoms: C_6  and  C_7
REMARK    2  A    between atoms: C_10  and  C_12
REMARK    3  A    between atoms: N_14  and  N_15
REMARK    4  A    between atoms: C_16  and  C_18
REMARK    5  A    between atoms: C_21  and  N_24
REMARK                            x       y       z     vdW  Elec       q    Type
REMARK                         _______ _______ _______ _____ _____    ______ ____
ROOT
ATOM      1  C   UNL     1       2.369   1.025  -0.015  0.00  0.00    +0.267 C 
ATOM      2  O   UNL     1       2.385  -0.192  -0.022  0.00  0.00    -0.268 OA
ATOM      3  N   UNL     1       1.193   1.683  -0.000  0.00  0.00    -0.230 N 
ATOM      4  H   UNL     1       1.179   2.653   0.005  0.00  0.00    +0.173 HD
ENDROOT
BRANCH   1   8
ATOM      5  C   UNL     1       5.665   3.544  -0.032  0.00  0.00    +0.020 A 
ATOM      6  C   UNL     1       5.959   2.190  -0.043  0.00  0.00    +0.017 A 
ATOM      7  C   UNL     1       4.928   1.293  -0.032  0.00  0.00    +0.021 A 
ATOM      8  C   UNL     1       3.627   1.774  -0.023  0.00  0.00    +0.076 A 
ATOM      9  S   UNL     1       3.880   3.542  -0.015  0.00  0.00    -0.084 S 
BRANCH   5  15
ATOM     10  C   UNL     1       7.972   4.483  -0.043  0.00  0.00    +0.012 A 
ATOM     11  C   UNL     1       8.832   5.561  -0.051  0.00  0.00    +0.039 A 
ATOM     12  C   UNL     1       8.329   6.853  -0.039  0.00  0.00    +0.123 A 
ATOM     13  C   UNL     1       6.960   7.068  -0.025  0.00  0.00    +0.039 A 
ATOM     14  C   UNL     1       6.091   5.998  -0.022  0.00  0.00    +0.012 A 
ATOM     15  C   UNL     1       6.592   4.695  -0.035  0.00  0.00    -0.011 A 
ATOM     16  F   UNL     1       9.176   7.905  -0.041  0.00  0.00    -0.205 F 
ENDBRANCH   5  15
ENDBRANCH   1   8
BRANCH   3  17
ATOM     17  N   UNL     1      -0.011   0.966   0.007  0.00  0.00    -0.230 N 
ATOM     18  C   UNL     1      -1.187   1.624   0.017  0.00  0.00    +0.260 C 
ATOM     19  O   UNL     1      -1.204   2.839   0.023  0.00  0.00    -0.269 OA
ATOM     20  H   UNL     1       0.002  -0.004   0.002  0.00  0.00    +0.173 HD
BRANCH  18  21
ATOM     21  C   UNL     1      -2.458   0.867   0.018  0.00  0.00    +0.038 A 
ATOM     22  C   UNL     1      -2.442  -0.528   0.005  0.00  0.00    +0.015 A 
ATOM     23  C   UNL     1      -3.631  -1.228   0.012  0.00  0.00    +0.033 A 
ATOM     24  C   UNL     1      -4.837  -0.550   0.021  0.00  0.00    +0.126 A 
ATOM     25  C   UNL     1      -4.859   0.834   0.029  0.00  0.00    +0.033 A 
ATOM     26  C   UNL     1      -3.677   1.546   0.028  0.00  0.00    +0.015 A 
BRANCH  24  27
ATOM     27  N   UNL     1      -6.108  -1.307   0.021  0.00  0.00    +0.056 N 
ATOM     28  O   UNL     1      -7.171  -0.713   0.030  0.00  0.00    -0.126 OA
ATOM     29  O   UNL     1      -6.092  -2.525   0.014  0.00  0.00    -0.126 OA
ENDBRANCH  24  27
ENDBRANCH  18  21
ENDBRANCH   3  17
TORSDOF 5
