REMARK  Name = ZINC36563216
REMARK  16 active torsions:
REMARK  status: ('A' for Active; 'I' for Inactive)
REMARK    1  A    between atoms: C_1  and  C_2
REMARK    2  A    between atoms: C_2  and  C_3
REMARK    3  A    between atoms: C_3  and  C_4
REMARK    4  A    between atoms: C_4  and  C_5
REMARK    5  A    between atoms: C_5  and  C_6
REMARK    6  A    between atoms: C_7  and  C_8
REMARK    7  A    between atoms: N_10  and  C_11
REMARK    8  A    between atoms: N_10  and  C_14
REMARK    9  A    between atoms: C_11  and  C_12
REMARK   10  A    between atoms: C_12  and  C_13
REMARK   11  A    between atoms: C_14  and  C_16
REMARK   12  A    between atoms: C_14  and  C_25
REMARK   13  A    between atoms: C_17  and  O_24
REMARK   14  A    between atoms: C_19  and  O_23
REMARK   15  A    between atoms: C_21  and  O_22
REMARK   16  A    between atoms: N_27  and  C_28
REMARK                            x       y       z     vdW  Elec       q    Type
REMARK                         _______ _______ _______ _____ _____    ______ ____
ROOT
ATOM      1  C   UNL     1      -5.349  -4.217   4.145  0.00  0.00    +0.199 C 
ENDROOT
BRANCH   1   2
ATOM      2  C   UNL     1      -4.088  -4.506   4.918  0.00  0.00    +0.065 A 
ATOM      3  C   UNL     1      -4.116  -5.398   5.980  0.00  0.00    +0.129 A 
ATOM      4  C   UNL     1      -2.956  -5.664   6.692  0.00  0.00    +0.091 A 
ATOM      5  C   UNL     1      -1.769  -5.038   6.342  0.00  0.00    +0.124 A 
ATOM      6  C   UNL     1      -1.741  -4.147   5.280  0.00  0.00    +0.091 A 
ATOM      7  C   UNL     1      -2.900  -3.885   4.565  0.00  0.00    +0.129 A 
BRANCH   7   8
ATOM      8  O   UNL     1      -2.872  -3.015   3.521  0.00  0.00    -0.506 OA
ATOM      9  H   UNL     1      -3.049  -2.097   3.769  0.00  0.00    +0.292 HD
ENDBRANCH   7   8
BRANCH   5  10
ATOM     10  O   UNL     1      -0.632  -5.298   7.041  0.00  0.00    -0.507 OA
ATOM     11  H   UNL     1      -0.116  -6.037   6.691  0.00  0.00    +0.292 HD
ENDBRANCH   5  10
BRANCH   3  12
ATOM     12  O   UNL     1      -5.279  -6.011   6.323  0.00  0.00    -0.506 OA
ATOM     13  H   UNL     1      -5.388  -6.891   5.938  0.00  0.00    +0.292 HD
ENDBRANCH   3  12
ENDBRANCH   1   2
BRANCH   1  14
ATOM     14  C   UNL     1      -6.424  -5.190   4.554  0.00  0.00    +0.239 C 
ATOM     15  O   UNL     1      -6.544  -6.245   3.967  0.00  0.00    -0.273 OA
ATOM     16  N   UNL     1      -7.253  -4.888   5.573  0.00  0.00    -0.311 N 
ATOM     17  H   UNL     1      -7.206  -4.016   5.995  0.00  0.00    +0.149 HD
BRANCH  16  18
ATOM     18  C   UNL     1      -8.226  -5.878   6.044  0.00  0.00    +0.073 C 
ATOM     19  C   UNL     1      -9.490  -5.799   5.186  0.00  0.00    +0.022 C 
ATOM     20  C   UNL     1     -10.505  -6.833   5.678  0.00  0.00    +0.002 C 
ATOM     21  C   UNL     1     -10.861  -6.543   7.137  0.00  0.00    +0.000 C 
ATOM     22  C   UNL     1      -9.597  -6.622   7.996  0.00  0.00    +0.002 C 
ATOM     23  C   UNL     1      -8.582  -5.588   7.504  0.00  0.00    +0.022 C 
ENDBRANCH  16  18
ENDBRANCH   1  14
BRANCH   1  26
ATOM     24  C   UNL     1      -5.356  -3.337   1.872  0.00  0.00    +0.240 C 
ATOM     25  O   UNL     1      -5.820  -2.301   2.307  0.00  0.00    -0.271 OA
ATOM     26  N   UNL     1      -5.085  -4.357   2.711  0.00  0.00    -0.282 N 
BRANCH  24  28
ATOM     27  C   UNL     1      -5.228  -2.430  -0.375  0.00  0.00    -0.022 C 
ATOM     28  C   UNL     1      -5.090  -3.478   0.432  0.00  0.00    +0.063 C 
BRANCH  27  29
ATOM     29  C   UNL     1      -5.337  -1.043   0.204  0.00  0.00    +0.027 C 
BRANCH  29  30
ATOM     30  C   UNL     1      -4.359  -0.112  -0.516  0.00  0.00    +0.004 C 
BRANCH  30  31
ATOM     31  C   UNL     1      -4.470   1.297   0.071  0.00  0.00    +0.000 C 
BRANCH  31  33
ATOM     32  C   UNL     1      -3.603   3.636  -0.062  0.00  0.00    +0.004 C 
ATOM     33  C   UNL     1      -3.492   2.228  -0.649  0.00  0.00    -0.003 C 
ENDBRANCH  31  33
ENDBRANCH  30  31
ENDBRANCH  29  30
ENDBRANCH  27  29
ENDBRANCH  24  28
BRANCH  26  34
ATOM     34  C   UNL     1      -4.525  -5.606   2.187  0.00  0.00    +0.109 C 
BRANCH  34  35
ATOM     35  C   UNL     1      -3.009  -5.462   2.036  0.00  0.00    +0.016 C 
ATOM     36  C   UNL     1      -2.444  -6.709   1.353  0.00  0.00    +0.005 C 
ENDBRANCH  34  35
ENDBRANCH  26  34
ENDBRANCH   1  26
TORSDOF 14
