REMARK  Name = ZINC22335237
REMARK  9 active torsions:
REMARK  status: ('A' for Active; 'I' for Inactive)
REMARK    1  A    between atoms: C_1  and  N_2
REMARK    2  A    between atoms: C_3  and  N_29
REMARK    3  A    between atoms: C_4  and  C_11
REMARK    4  A    between atoms: N_7  and  C_10
REMARK    5  A    between atoms: C_11  and  C_13
REMARK    6  A    between atoms: C_13  and  O_14
REMARK    7  A    between atoms: O_14  and  C_15
REMARK    8  A    between atoms: C_15  and  C_17
REMARK    9  A    between atoms: C_20  and  C_23
REMARK                            x       y       z     vdW  Elec       q    Type
REMARK                         _______ _______ _______ _____ _____    ______ ____
ROOT
ATOM      1  C   UNL     1       4.864   0.998  -0.093  0.00  0.00    +0.312 C 
ENDROOT
BRANCH   1   2
ATOM      2  C   UNL     1       6.042   1.938  -0.068  0.00  0.00    +0.209 C 
ATOM      3  O   UNL     1       5.861   3.138  -0.044  0.00  0.00    -0.288 OA
BRANCH   2   7
ATOM      4  C   UNL     1      10.888   2.609  -0.263  0.00  0.00    +0.155 C 
ATOM      5  N   UNL     1       9.721   1.729  -0.165  0.00  0.00    -0.284 N 
ATOM      6  C   UNL     1       8.469   2.274  -0.172  0.00  0.00    +0.116 A 
ATOM      7  C   UNL     1       7.356   1.422  -0.072  0.00  0.00    +0.123 A 
ATOM      8  C   UNL     1       7.603  -0.022   0.022  0.00  0.00    +0.269 A 
ATOM      9  O   UNL     1       6.677  -0.807   0.106  0.00  0.00    -0.267 OA
ATOM     10  N   UNL     1       8.879  -0.461   0.014  0.00  0.00    -0.263 N 
ATOM     11  C   UNL     1       9.904   0.402  -0.078  0.00  0.00    +0.333 A 
ATOM     12  O   UNL     1      11.038  -0.035  -0.081  0.00  0.00    -0.246 OA
ATOM     13  C   UNL     1       9.150  -1.898   0.107  0.00  0.00    +0.157 C 
BRANCH   6  14
ATOM     14  N   UNL     1       8.302   3.621  -0.267  0.00  0.00    -0.344 N 
ATOM     15  H   UNL     1       7.290   4.051  -0.271  0.00  0.00    +0.144 HD
ATOM     16  H   UNL     1       9.180   4.280  -0.340  0.00  0.00    +0.144 HD
ENDBRANCH   6  14
ENDBRANCH   2   7
ENDBRANCH   1   2
BRANCH   1  17
ATOM     17  O   UNL     1       3.632   1.767  -0.084  0.00  0.00    -0.453 OA
BRANCH  17  18
ATOM     18  C   UNL     1       2.478   1.072  -0.104  0.00  0.00    +0.340 C 
ATOM     19  O   UNL     1       2.500  -0.142  -0.129  0.00  0.00    -0.245 OA
BRANCH  18  20
ATOM     20  C   UNL     1       1.185   1.788  -0.096  0.00  0.00    +0.059 A 
ATOM     21  C   UNL     1      -0.013   1.071  -0.117  0.00  0.00    +0.015 A 
ATOM     22  C   UNL     1      -1.216   1.745  -0.115  0.00  0.00    +0.005 A 
ATOM     23  C   UNL     1      -1.238   3.128  -0.082  0.00  0.00    -0.044 A 
ATOM     24  C   UNL     1      -0.054   3.845  -0.061  0.00  0.00    +0.005 A 
ATOM     25  C   UNL     1       1.156   3.183  -0.068  0.00  0.00    +0.015 A 
BRANCH  23  26
ATOM     26  C   UNL     1      -2.557   3.858  -0.075  0.00  0.00    +0.019 C 
ATOM     27  C   UNL     1      -3.359   3.448   1.162  0.00  0.00    +0.008 C 
ATOM     28  C   UNL     1      -4.698   4.189   1.169  0.00  0.00    +0.001 C 
ATOM     29  C   UNL     1      -5.486   3.830  -0.092  0.00  0.00    +0.000 C 
ATOM     30  C   UNL     1      -4.684   4.240  -1.329  0.00  0.00    +0.001 C 
ATOM     31  C   UNL     1      -3.345   3.499  -1.336  0.00  0.00    +0.008 C 
ENDBRANCH  23  26
ENDBRANCH  18  20
ENDBRANCH  17  18
ENDBRANCH   1  17
TORSDOF 7
