REMARK  Name = ZINC26663294
REMARK  7 active torsions:
REMARK  status: ('A' for Active; 'I' for Inactive)
REMARK    1  A    between atoms: C_3  and  O_32
REMARK    2  A    between atoms: C_4  and  C_10
REMARK    3  A    between atoms: C_6  and  C_7
REMARK    4  A    between atoms: C_10  and  N_11
REMARK    5  A    between atoms: C_14  and  N_18
REMARK    6  A    between atoms: N_18  and  S_19
REMARK    7  A    between atoms: S_19  and  C_22
REMARK                            x       y       z     vdW  Elec       q    Type
REMARK                         _______ _______ _______ _____ _____    ______ ____
ROOT
ATOM      1  N   UNL     1      -1.542  -1.324  -1.325  0.00  0.00    -0.296 N 
ATOM      2  C   UNL     1      -2.289  -0.629  -2.381  0.00  0.00    +0.110 C 
ATOM      3  C   UNL     1      -1.923  -1.362  -3.692  0.00  0.00    +0.049 C 
ATOM      4  C   UNL     1      -1.546  -2.768  -3.171  0.00  0.00    +0.164 C 
ATOM      5  C   UNL     1      -1.121  -2.532  -1.739  0.00  0.00    +0.235 C 
ATOM      6  O   UNL     1      -0.492  -3.317  -1.062  0.00  0.00    -0.274 OA
ENDROOT
BRANCH   4   7
ATOM      7  N   UNL     1      -2.707  -3.661  -3.221  0.00  0.00    -0.178 NA
ATOM      8  H   UNL     1      -3.699  -3.290  -2.924  0.00  0.00    +0.149 HD
BRANCH   7   9
ATOM      9  S   UNL     1      -2.494  -5.282  -3.482  0.00  0.00    +0.065 S 
ATOM     10  O   UNL     1      -3.787  -5.872  -3.448  0.00  0.00    -0.153 OA
ATOM     11  O   UNL     1      -1.630  -5.403  -4.603  0.00  0.00    -0.153 OA
BRANCH   9  12
ATOM     12  C   UNL     1      -1.613  -5.922  -2.096  0.00  0.00    +0.144 A 
ATOM     13  C   UNL     1      -2.110  -6.417  -0.951  0.00  0.00    +0.045 A 
ATOM     14  C   UNL     1      -1.197  -6.899   0.068  0.00  0.00    -0.005 A 
ATOM     15  C   UNL     1      -1.472  -7.463   1.340  0.00  0.00    +0.029 A 
ATOM     16  C   UNL     1      -0.443  -7.843   2.142  0.00  0.00    +0.113 A 
ATOM     17  N   UNL     1       0.824  -7.710   1.783  0.00  0.00    -0.242 NA
ATOM     18  C   UNL     1       1.155  -7.194   0.613  0.00  0.00    +0.143 A 
ATOM     19  C   UNL     1       0.173  -6.782  -0.260  0.00  0.00    +0.058 A 
ATOM     20  S   UNL     1       0.152  -6.058  -1.878  0.00  0.00    -0.066 S 
ATOM     21 CL   UNL     1       2.828  -7.035   0.175  0.00  0.00    -0.061 Cl
ENDBRANCH   9  12
ENDBRANCH   7   9
ENDBRANCH   4   7
BRANCH   1  22
ATOM     22  C   UNL     1      -1.293  -0.774   0.010  0.00  0.00    +0.146 C 
BRANCH  22  26
ATOM     23  C   UNL     1       2.399   1.400  -0.013  0.00  0.00    +0.015 A 
ATOM     24  C   UNL     1       2.410   0.022  -0.021  0.00  0.00    +0.046 A 
ATOM     25  C   UNL     1       1.214  -0.684  -0.013  0.00  0.00    +0.122 A 
ATOM     26  C   UNL     1       0.002  -0.004   0.002  0.00  0.00    +0.012 A 
ATOM     27  C   UNL     1      -0.017   1.373   0.010  0.00  0.00    +0.020 A 
ATOM     28  C   UNL     1       1.184   2.086   0.002  0.00  0.00    +0.013 A 
BRANCH  28  29
ATOM     29  C   UNL     1       1.168   3.565   0.010  0.00  0.00    +0.094 C 
ATOM     30  N   UNL     1       0.032   4.205   0.023  0.00  0.00    -0.387 N 
ATOM     31  N   UNL     1       2.353   4.267   0.002  0.00  0.00    -0.345 N 
ATOM     32  H   UNL     1       0.020   5.304   0.029  0.00  0.00    +0.157 HD
ATOM     33  H   UNL     1       2.341   5.367   0.008  0.00  0.00    +0.144 HD
ATOM     34  H   UNL     1       3.312   3.728  -0.010  0.00  0.00    +0.144 HD
ATOM     35  H   UNL     1      -0.914   3.644   0.029  0.00  0.00    +0.157 HD
ENDBRANCH  28  29
BRANCH  25  36
ATOM     36  O   UNL     1       1.228  -2.042  -0.020  0.00  0.00    -0.506 OA
ATOM     37  H   UNL     1       0.282  -2.602  -0.014  0.00  0.00    +0.292 HD
ENDBRANCH  25  36
ENDBRANCH  22  26
ENDBRANCH   1  22
TORSDOF 7
