REMARK  Name = ZINC66746458
REMARK  7 active torsions:
REMARK  status: ('A' for Active; 'I' for Inactive)
REMARK    1  A    between atoms: C_1  and  O_2
REMARK    2  A    between atoms: O_2  and  C_3
REMARK    3  A    between atoms: N_5  and  C_6
REMARK    4  A    between atoms: C_8  and  N_13
REMARK    5  A    between atoms: C_14  and  C_16
REMARK    6  A    between atoms: C_19  and  N_25
REMARK    7  A    between atoms: C_20  and  N_22
REMARK                            x       y       z     vdW  Elec       q    Type
REMARK                         _______ _______ _______ _____ _____    ______ ____
ROOT
ATOM      1  N   UNL     1       2.827  -1.696  -5.351  0.00  0.00    -0.281 N 
ATOM      2  C   UNL     1       3.232  -2.350  -6.458  0.00  0.00    +0.248 C 
ATOM      3  O   UNL     1       3.197  -3.565  -6.493  0.00  0.00    -0.270 OA
ATOM      4  H   UNL     1       2.935  -0.734  -5.289  0.00  0.00    +0.155 HD
ENDROOT
BRANCH   1   7
ATOM      5  C   UNL     1       1.757  -2.610  -1.949  0.00  0.00    +0.073 A 
ATOM      6  C   UNL     1       2.328  -1.905  -2.998  0.00  0.00    +0.049 A 
ATOM      7  C   UNL     1       2.252  -2.406  -4.290  0.00  0.00    +0.036 A 
ATOM      8  C   UNL     1       1.605  -3.611  -4.530  0.00  0.00    +0.026 A 
ATOM      9  C   UNL     1       1.036  -4.312  -3.484  0.00  0.00    +0.042 A 
ATOM     10  C   UNL     1       1.115  -3.819  -2.194  0.00  0.00    +0.145 A 
ATOM     11  F   UNL     1       0.563  -4.510  -1.173  0.00  0.00    -0.204 F 
BRANCH   5  14
ATOM     12  C   UNL     1       1.780  -0.778  -0.430  0.00  0.00    +0.404 C 
ATOM     13  O   UNL     1       1.754  -0.011  -1.372  0.00  0.00    -0.226 OA
ATOM     14  N   UNL     1       1.831  -2.107  -0.644  0.00  0.00    -0.248 N 
ATOM     15  H   UNL     1       1.919  -2.716   0.106  0.00  0.00    +0.158 HD
BRANCH  12  17
ATOM     16  C   UNL     1       1.704   1.121   0.981  0.00  0.00    +0.282 C 
ATOM     17  O   UNL     1       1.758  -0.299   0.828  0.00  0.00    -0.453 OA
ENDBRANCH  12  17
ENDBRANCH   5  14
ENDBRANCH   1   7
BRANCH   2  18
ATOM     18  C   UNL     1       3.716  -1.592  -7.627  0.00  0.00    +0.039 A 
ATOM     19  C   UNL     1       3.762  -0.195  -7.586  0.00  0.00    +0.015 A 
ATOM     20  C   UNL     1       4.214   0.509  -8.678  0.00  0.00    +0.026 A 
ATOM     21  C   UNL     1       4.626  -0.167  -9.823  0.00  0.00    +0.055 A 
ATOM     22  C   UNL     1       4.582  -1.558  -9.867  0.00  0.00    +0.147 A 
ATOM     23  C   UNL     1       4.136  -2.268  -8.776  0.00  0.00    +0.047 A 
BRANCH  22  24
ATOM     24  N   UNL     1       5.020  -2.273 -11.086  0.00  0.00    +0.058 N 
ATOM     25  O   UNL     1       4.457  -3.287 -11.427  0.00  0.00    -0.126 OA
ATOM     26  O   UNL     1       5.941  -1.843 -11.741  0.00  0.00    -0.126 OA
ENDBRANCH  22  24
BRANCH  21  27
ATOM     27  N   UNL     1       5.082   0.548 -10.925  0.00  0.00    -0.356 N 
ATOM     28  H   UNL     1       5.184   1.511 -10.869  0.00  0.00    +0.142 HD
ATOM     29  H   UNL     1       5.298   0.084 -11.748  0.00  0.00    +0.142 HD
ENDBRANCH  21  27
ENDBRANCH   2  18
TORSDOF 6
