REMARK  Name = ZINC00999954
REMARK  8 active torsions:
REMARK  status: ('A' for Active; 'I' for Inactive)
REMARK    1  A    between atoms: C_1  and  C_2
REMARK    2  A    between atoms: C_2  and  C_3
REMARK    3  A    between atoms: C_2  and  C_4
REMARK    4  A    between atoms: C_2  and  C_5
REMARK    5  A    between atoms: C_12  and  N_17
REMARK    6  A    between atoms: C_13  and  C_14
REMARK    7  A    between atoms: C_18  and  C_20
REMARK    8  A    between atoms: N_23  and  C_25
REMARK                            x       y       z     vdW  Elec       q    Type
REMARK                         _______ _______ _______ _____ _____    ______ ____
ROOT
ATOM      1  C   UNL     1      -4.747  11.153  -0.273  0.00  0.00    -0.000 C 
ATOM      2  C   UNL     1      -3.551  11.629   0.556  0.00  0.00    +0.009 C 
ATOM      3  C   UNL     1      -2.278  10.924   0.085  0.00  0.00    +0.037 C 
ATOM      4  C   UNL     1      -2.524   9.421   0.078  0.00  0.00    -0.023 A 
ATOM      5  C   UNL     1      -3.779   8.921   0.087  0.00  0.00    -0.004 A 
ATOM      6  S   UNL     1      -3.566   7.163   0.075  0.00  0.00    -0.077 S 
ATOM      7  C   UNL     1      -1.835   7.091   0.058  0.00  0.00    +0.085 A 
ATOM      8  C   UNL     1      -1.462   8.428   0.068  0.00  0.00    +0.068 A 
ATOM      9  C   UNL     1      -5.060   9.697   0.102  0.00  0.00    +0.046 C 
ENDROOT
BRANCH   8  10
ATOM     10  C   UNL     1      -0.051   8.824   0.065  0.00  0.00    +0.244 C 
ATOM     11  O   UNL     1       0.529   8.998  -0.991  0.00  0.00    -0.270 OA
ATOM     12  N   UNL     1       0.604   8.995   1.230  0.00  0.00    -0.325 N 
ATOM     13  H   UNL     1       0.141   8.857   2.071  0.00  0.00    +0.145 HD
ATOM     14  H   UNL     1       1.538   9.258   1.228  0.00  0.00    +0.145 HD
ENDBRANCH   8  10
BRANCH   1  16
ATOM     15  C   UNL     1      -5.643  13.485  -0.328  0.00  0.00    +0.011 C 
ATOM     16  C   UNL     1      -5.963  12.032   0.029  0.00  0.00    -0.035 C 
ATOM     17  C   UNL     1      -7.157  11.553  -0.800  0.00  0.00    +0.011 C 
ATOM     18  C   UNL     1      -6.304  11.936   1.518  0.00  0.00    +0.011 C 
ENDBRANCH   1  16
BRANCH   7  19
ATOM     19  N   UNL     1      -1.020   5.970   0.044  0.00  0.00    -0.275 N 
ATOM     20  C   UNL     1      -1.568   4.739   0.043  0.00  0.00    +0.252 C 
ATOM     21  O   UNL     1      -2.777   4.611   0.053  0.00  0.00    -0.270 OA
ATOM     22  H   UNL     1      -0.056   6.072   0.036  0.00  0.00    +0.156 HD
BRANCH  20  23
ATOM     23  C   UNL     1      -0.701   3.547   0.028  0.00  0.00    +0.074 A 
ATOM     24  C   UNL     1       0.712   3.537   0.014  0.00  0.00    +0.147 A 
ATOM     25  N   UNL     1       1.107   2.294   0.004  0.00  0.00    -0.179 NA
ATOM     26  N   UNL     1      -0.018   1.461   0.010  0.00  0.00    -0.274 N 
ATOM     27  C   UNL     1      -1.118   2.230   0.019  0.00  0.00    +0.121 A 
ATOM     28  C   UNL     1       0.002  -0.004   0.002  0.00  0.00    +0.172 C 
ENDBRANCH  20  23
ENDBRANCH   7  19
TORSDOF 4
