REMARK  Name = ZINC48135269
REMARK  3 active torsions:
REMARK  status: ('A' for Active; 'I' for Inactive)
REMARK    1  A    between atoms: C_9  and  N_12
REMARK    2  A    between atoms: N_15  and  C_16
REMARK    3  A    between atoms: C_16  and  C_17
REMARK                            x       y       z     vdW  Elec       q    Type
REMARK                         _______ _______ _______ _____ _____    ______ ____
ROOT
ATOM      1  N   UNL     1       3.037  -5.641  -0.058  0.00  0.00    -0.268 N 
ATOM      2  C   UNL     1       2.119  -6.624   0.041  0.00  0.00    +0.304 C 
ATOM      3  O   UNL     1       0.935  -6.351   0.049  0.00  0.00    -0.252 OA
ATOM      4  N   UNL     1       2.515  -7.909   0.131  0.00  0.00    -0.295 N 
ATOM      5  H   UNL     1       3.977  -5.863  -0.142  0.00  0.00    +0.156 HD
ATOM      6  H   UNL     1       3.461  -8.127   0.125  0.00  0.00    +0.151 HD
ENDROOT
BRANCH   1  15
ATOM      7  C   UNL     1       1.521   1.821  -0.513  0.00  0.00    +0.041 A 
ATOM      8  C   UNL     1       0.459   1.537   0.354  0.00  0.00    +0.135 A 
ATOM      9  N   UNL     1       0.474   0.256   0.618  0.00  0.00    -0.173 NA
ATOM     10  N   UNL     1       1.547  -0.322  -0.072  0.00  0.00    -0.222 N 
ATOM     11  C   UNL     1       2.177   0.664  -0.762  0.00  0.00    +0.116 A 
ATOM     12  C   UNL     1       1.907  -1.675  -0.054  0.00  0.00    +0.154 A 
ATOM     13  C   UNL     1       1.160  -2.573   0.698  0.00  0.00    +0.050 A 
ATOM     14  C   UNL     1       1.524  -3.908   0.709  0.00  0.00    +0.028 A 
ATOM     15  C   UNL     1       2.632  -4.300  -0.040  0.00  0.00    +0.053 A 
ATOM     16  C   UNL     1       3.329  -3.346  -0.767  0.00  0.00    +0.136 A 
ATOM     17  N   UNL     1       2.950  -2.083  -0.758  0.00  0.00    -0.234 NA
ENDBRANCH   1  15
BRANCH   4  18
ATOM     18  C   UNL     1       1.518  -8.977   0.239  0.00  0.00    +0.148 C 
BRANCH  18  19
ATOM     19  C   UNL     1       2.217 -10.309   0.325  0.00  0.00    +0.008 A 
ATOM     20  C   UNL     1       2.633 -10.985   1.424  0.00  0.00    +0.014 A 
ATOM     21  C   UNL     1       3.260 -12.207   1.262  0.00  0.00    +0.028 A 
ATOM     22  C   UNL     1       3.439 -12.693   0.009  0.00  0.00    +0.078 A 
ATOM     23  S   UNL     1       2.703 -11.411  -0.993  0.00  0.00    -0.080 S 
ATOM     24 CL   UNL     1       4.183 -14.179  -0.492  0.00  0.00    -0.076 Cl
ENDBRANCH  18  19
ENDBRANCH   4  18
TORSDOF 3
