REMARK  Name = ZINC64128793
REMARK  4 active torsions:
REMARK  status: ('A' for Active; 'I' for Inactive)
REMARK    1  A    between atoms: N_10  and  C_14
REMARK    2  A    between atoms: C_14  and  N_15
REMARK    3  A    between atoms: N_18  and  C_21
REMARK    4  A    between atoms: C_21  and  C_22
REMARK                            x       y       z     vdW  Elec       q    Type
REMARK                         _______ _______ _______ _____ _____    ______ ____
ROOT
ATOM      1  C   UNL     1       3.899  -1.772  -1.421  0.00  0.00    +0.204 C 
ENDROOT
BRANCH   1  11
ATOM      2  C   UNL     1       0.248   2.061   0.364  0.00  0.00    +0.000 C 
ATOM      3  C   UNL     1       1.682   2.611   0.237  0.00  0.00    +0.000 C 
ATOM      4  C   UNL     1       2.303   2.649   1.607  0.00  0.00    +0.003 C 
ATOM      5  C   UNL     1       3.122   1.380   1.913  0.00  0.00    +0.035 C 
ATOM      6  C   UNL     1       2.427   0.092   1.433  0.00  0.00    +0.113 C 
ATOM      7  C   UNL     1       0.949   0.085   1.710  0.00  0.00    +0.035 C 
ATOM      8  C   UNL     1       0.212   0.609   0.459  0.00  0.00    +0.003 C 
ATOM      9  C   UNL     1       2.695  -0.084  -0.049  0.00  0.00    +0.248 C 
ATOM     10  O   UNL     1       2.337   0.643  -0.950  0.00  0.00    -0.273 OA
ATOM     11  N   UNL     1       3.417  -1.217  -0.154  0.00  0.00    -0.211 N 
ATOM     12  C   UNL     1       3.638  -1.775   1.042  0.00  0.00    +0.310 C 
ATOM     13  O   UNL     1       4.266  -2.803   1.203  0.00  0.00    -0.252 OA
ATOM     14  N   UNL     1       3.088  -1.069   2.048  0.00  0.00    -0.285 N 
ATOM     15  H   UNL     1       3.121  -1.284   2.993  0.00  0.00    +0.151 HD
ENDBRANCH   1  11
BRANCH   1  16
ATOM     16  N   UNL     1       5.229  -1.224  -1.721  0.00  0.00    -0.290 NA
ATOM     17  C   UNL     1       5.125   0.113  -2.322  0.00  0.00    +0.067 C 
ATOM     18  C   UNL     1       6.529   0.671  -2.563  0.00  0.00    -0.063 C 
ATOM     19  N   UNL     1       7.267  -0.230  -3.458  0.00  0.00    +0.382 N 
ATOM     20  C   UNL     1       7.384  -1.555  -2.833  0.00  0.00    -0.063 C 
ATOM     21  C   UNL     1       5.987  -2.131  -2.594  0.00  0.00    +0.067 C 
ATOM     22  H   UNL     1       6.773  -0.314  -4.333  0.00  0.00    -0.082 HD
BRANCH  19  23
ATOM     23  C   UNL     1       8.609   0.315  -3.703  0.00  0.00    -0.075 C 
BRANCH  23  24
ATOM     24  C   UNL     1       8.492   1.623  -4.489  0.00  0.00    -0.028 C 
ATOM     25  C   UNL     1       7.922   1.333  -5.879  0.00  0.00    +0.002 C 
ATOM     26  C   UNL     1       7.805   2.640  -6.665  0.00  0.00    +0.000 C 
ATOM     27  C   UNL     1       9.189   3.277  -6.805  0.00  0.00    +0.000 C 
ATOM     28  C   UNL     1       9.759   3.567  -5.415  0.00  0.00    +0.000 C 
ATOM     29  C   UNL     1       9.876   2.260  -4.629  0.00  0.00    +0.002 C 
ENDBRANCH  23  24
ENDBRANCH  19  23
ENDBRANCH   1  16
TORSDOF 4
