REMARK  Name = ZINC67584896
REMARK  10 active torsions:
REMARK  status: ('A' for Active; 'I' for Inactive)
REMARK    1  A    between atoms: C_1  and  C_2
REMARK    2  A    between atoms: C_2  and  C_3
REMARK    3  A    between atoms: C_3  and  C_4
REMARK    4  A    between atoms: N_6  and  C_7
REMARK    5  A    between atoms: C_11  and  N_14
REMARK    6  A    between atoms: C_12  and  C_13
REMARK    7  A    between atoms: N_17  and  C_18
REMARK    8  A    between atoms: C_18  and  C_19
REMARK    9  A    between atoms: C_19  and  C_21
REMARK   10  A    between atoms: C_19  and  O_29
REMARK                            x       y       z     vdW  Elec       q    Type
REMARK                         _______ _______ _______ _____ _____    ______ ____
ROOT
ATOM      1  N   UNL     1      -4.765  -7.012  -0.386  0.00  0.00    -0.269 N 
ATOM      2  C   UNL     1      -4.833  -8.227   0.193  0.00  0.00    +0.304 C 
ATOM      3  O   UNL     1      -3.848  -8.704   0.723  0.00  0.00    -0.253 OA
ATOM      4  N   UNL     1      -5.993  -8.914   0.184  0.00  0.00    -0.296 N 
ATOM      5  H   UNL     1      -5.530  -6.661  -0.869  0.00  0.00    +0.156 HD
ATOM      6  H   UNL     1      -6.778  -8.534  -0.239  0.00  0.00    +0.150 HD
ENDROOT
BRANCH   1  11
ATOM      7  C   UNL     1      -2.495  -4.128  -0.099  0.00  0.00    +0.038 A 
ATOM      8  C   UNL     1      -1.261  -4.767  -0.103  0.00  0.00    +0.024 A 
ATOM      9  C   UNL     1      -1.195  -6.143  -0.200  0.00  0.00    +0.004 A 
ATOM     10  C   UNL     1      -2.355  -6.889  -0.294  0.00  0.00    +0.024 A 
ATOM     11  C   UNL     1      -3.591  -6.256  -0.291  0.00  0.00    +0.039 A 
ATOM     12  C   UNL     1      -3.661  -4.874  -0.187  0.00  0.00    -0.008 A 
ATOM     13  C   UNL     1      -5.001  -4.185  -0.177  0.00  0.00    +0.047 C 
BRANCH   7  16
ATOM     14  C   UNL     1      -1.553  -2.050   0.575  0.00  0.00    +0.217 C 
ATOM     15  O   UNL     1      -0.636  -2.648   1.098  0.00  0.00    -0.275 OA
ATOM     16  N   UNL     1      -2.561  -2.734  -0.001  0.00  0.00    -0.285 N 
ATOM     17  H   UNL     1      -3.333  -2.259  -0.347  0.00  0.00    +0.155 HD
BRANCH  14  18
ATOM     18  C   UNL     1      -1.564  -0.543   0.570  0.00  0.00    +0.096 C 
BRANCH  18  20
ATOM     19  C   UNL     1      -0.327   1.509   1.277  0.00  0.00    +0.004 C 
ATOM     20  C   UNL     1      -0.315  -0.021   1.283  0.00  0.00    +0.006 C 
ENDBRANCH  18  20
ENDBRANCH  14  18
ENDBRANCH   7  16
ENDBRANCH   1  11
BRANCH   4  21
ATOM     21  C   UNL     1      -6.067 -10.235   0.813  0.00  0.00    +0.142 C 
BRANCH  21  22
ATOM     22  C   UNL     1      -7.484 -10.793   0.663  0.00  0.00    +0.164 C 
BRANCH  22  23
ATOM     23  C   UNL     1      -7.593 -12.094   1.415  0.00  0.00    +0.018 A 
ATOM     24  C   UNL     1      -7.401 -13.292   0.754  0.00  0.00    +0.012 A 
ATOM     25  C   UNL     1      -7.501 -14.486   1.442  0.00  0.00    +0.039 A 
ATOM     26  C   UNL     1      -7.794 -14.484   2.795  0.00  0.00    +0.126 A 
ATOM     27  C   UNL     1      -7.987 -13.284   3.459  0.00  0.00    +0.077 A 
ATOM     28  C   UNL     1      -7.881 -12.088   2.769  0.00  0.00    +0.132 A 
ATOM     29  F   UNL     1      -8.064 -10.917   3.417  0.00  0.00    -0.205 F 
ATOM     30  F   UNL     1      -7.893 -15.651   3.468  0.00  0.00    -0.205 F 
ENDBRANCH  22  23
BRANCH  22  31
ATOM     31  O   UNL     1      -7.763 -11.017  -0.720  0.00  0.00    -0.386 OA
ATOM     32  H   UNL     1      -7.163 -11.644  -1.146  0.00  0.00    +0.210 HD
ENDBRANCH  22  31
ENDBRANCH  21  22
ENDBRANCH   4  21
TORSDOF 8
