REMARK  Name = ZINC20149644
REMARK  3 active torsions:
REMARK  status: ('A' for Active; 'I' for Inactive)
REMARK    1  A    between atoms: C_4  and  N_7
REMARK    2  A    between atoms: C_9  and  C_21
REMARK    3  A    between atoms: N_12  and  C_15
REMARK                            x       y       z     vdW  Elec       q    Type
REMARK                         _______ _______ _______ _____ _____    ______ ____
ROOT
ATOM      1  N   UNL     1      -1.825   3.676  -2.538  0.00  0.00    -0.256 N 
ATOM      2  C   UNL     1      -1.357   3.308  -1.300  0.00  0.00    +0.265 A 
ATOM      3  C   UNL     1      -0.942   2.026  -1.095  0.00  0.00    +0.072 A 
ATOM      4  C   UNL     1      -0.999   1.110  -2.160  0.00  0.00    +0.265 A 
ATOM      5  O   UNL     1      -0.629  -0.040  -2.001  0.00  0.00    -0.267 OA
ATOM      6  N   UNL     1      -1.471   1.511  -3.357  0.00  0.00    -0.256 N 
ATOM      7  C   UNL     1      -1.876   2.781  -3.541  0.00  0.00    +0.175 A 
ATOM      8  S   UNL     1      -2.465   3.265  -5.074  0.00  0.00    -0.012 S 
ATOM      9  O   UNL     1      -1.308   4.209  -0.296  0.00  0.00    -0.267 OA
ENDROOT
BRANCH   3  10
ATOM     10  C   UNL     1      -0.423   1.598   0.254  0.00  0.00    +0.001 C 
ATOM     11  C   UNL     1       1.039   1.255   0.139  0.00  0.00    -0.054 A 
ATOM     12  C   UNL     1       1.853   2.083  -0.620  0.00  0.00    +0.002 A 
ATOM     13  C   UNL     1       3.200   1.808  -0.750  0.00  0.00    +0.000 A 
ATOM     14  C   UNL     1       3.741   0.703  -0.120  0.00  0.00    +0.000 A 
ATOM     15  C   UNL     1       2.932  -0.122   0.634  0.00  0.00    +0.004 A 
ATOM     16  C   UNL     1       1.579   0.151   0.764  0.00  0.00    -0.047 A 
ATOM     17  C   UNL     1       0.733  -0.780   1.595  0.00  0.00    +0.016 C 
ATOM     18  C   UNL     1      -0.591  -0.103   1.953  0.00  0.00    -0.077 C 
ATOM     19  N   UNL     1      -1.188   0.437   0.721  0.00  0.00    +0.387 N 
ATOM     20  H   UNL     1      -2.225   0.739   0.927  0.00  0.00    -0.085 HD
ATOM     21  H   UNL     1      -1.180  -0.343  -0.055  0.00  0.00    -0.085 HD
ENDBRANCH   3  10
BRANCH   1  25
ATOM     22  C   UNL     1      -3.100   7.590  -3.189  0.00  0.00    +0.000 A 
ATOM     23  C   UNL     1      -4.002   6.633  -2.761  0.00  0.00    +0.002 A 
ATOM     24  C   UNL     1      -3.583   5.335  -2.545  0.00  0.00    +0.026 A 
ATOM     25  C   UNL     1      -2.254   4.992  -2.757  0.00  0.00    +0.052 A 
ATOM     26  C   UNL     1      -1.349   5.957  -3.180  0.00  0.00    +0.026 A 
ATOM     27  C   UNL     1      -1.776   7.252  -3.400  0.00  0.00    +0.002 A 
ENDBRANCH   1  25
BRANCH   6  28
ATOM     28  C   UNL     1      -1.535   0.600  -4.419  0.00  0.00    +0.052 A 
ATOM     29  C   UNL     1      -2.676  -0.169  -4.608  0.00  0.00    +0.026 A 
ATOM     30  C   UNL     1      -2.738  -1.062  -5.660  0.00  0.00    +0.002 A 
ATOM     31  C   UNL     1      -1.662  -1.199  -6.517  0.00  0.00    +0.000 A 
ATOM     32  C   UNL     1      -0.523  -0.438  -6.329  0.00  0.00    +0.002 A 
ATOM     33  C   UNL     1      -0.457   0.461  -5.282  0.00  0.00    +0.026 A 
ENDBRANCH   6  28
TORSDOF 3
