REMARK  Name = ZINC54436796
REMARK  10 active torsions:
REMARK  status: ('A' for Active; 'I' for Inactive)
REMARK    1  A    between atoms: C_1  and  C_2
REMARK    2  A    between atoms: C_6  and  O_8
REMARK    3  A    between atoms: O_8  and  C_9
REMARK    4  A    between atoms: C_9  and  C_10
REMARK    5  A    between atoms: C_10  and  C_12
REMARK    6  A    between atoms: C_10  and  N_13
REMARK    7  A    between atoms: N_16  and  C_17
REMARK    8  A    between atoms: C_21  and  N_23
REMARK    9  A    between atoms: C_24  and  O_26
REMARK   10  A    between atoms: O_26  and  C_27
REMARK                            x       y       z     vdW  Elec       q    Type
REMARK                         _______ _______ _______ _____ _____    ______ ____
ROOT
ATOM      1  N   UNL     1       1.346  -4.416   4.367  0.00  0.00    -0.293 N 
ATOM      2  C   UNL     1       1.821  -5.187   5.366  0.00  0.00    +0.304 C 
ATOM      3  O   UNL     1       1.207  -6.177   5.715  0.00  0.00    -0.252 OA
ATOM      4  N   UNL     1       2.977  -4.860   5.977  0.00  0.00    -0.269 N 
ATOM      5  H   UNL     1       1.835  -3.627   4.089  0.00  0.00    +0.151 HD
ATOM      6  H   UNL     1       3.501  -4.110   5.655  0.00  0.00    +0.156 HD
ENDROOT
BRANCH   4   7
ATOM      7  C   UNL     1       3.422  -5.604   7.076  0.00  0.00    +0.037 A 
ATOM      8  C   UNL     1       4.087  -4.973   8.120  0.00  0.00    +0.023 A 
ATOM      9  C   UNL     1       4.527  -5.706   9.205  0.00  0.00    +0.004 A 
ATOM     10  C   UNL     1       4.306  -7.069   9.256  0.00  0.00    +0.023 A 
ATOM     11  C   UNL     1       3.641  -7.706   8.216  0.00  0.00    +0.038 A 
ATOM     12  C   UNL     1       3.193  -6.971   7.128  0.00  0.00    +0.046 A 
BRANCH  11  13
ATOM     13  N   UNL     1       3.417  -9.086   8.270  0.00  0.00    -0.251 N 
ATOM     14  C   UNL     1       3.164  -9.683   9.451  0.00  0.00    +0.404 C 
ATOM     15  O   UNL     1       3.212  -9.038  10.480  0.00  0.00    -0.226 OA
ATOM     16  H   UNL     1       3.445  -9.614   7.456  0.00  0.00    +0.158 HD
BRANCH  14  17
ATOM     17  O   UNL     1       2.857 -10.994   9.491  0.00  0.00    -0.453 OA
ATOM     18  C   UNL     1       2.600 -11.560  10.778  0.00  0.00    +0.282 C 
ENDBRANCH  14  17
ENDBRANCH  11  13
ENDBRANCH   4   7
BRANCH   1  19
ATOM     19  C   UNL     1       0.089  -4.771   3.703  0.00  0.00    +0.109 C 
ATOM     20  C   UNL     1      -1.087  -4.207   4.502  0.00  0.00    +0.031 C 
BRANCH  19  21
ATOM     21  C   UNL     1       0.075  -4.183   2.291  0.00  0.00    +0.251 C 
BRANCH  21  22
ATOM     22  O   UNL     1       0.072  -2.756   2.369  0.00  0.00    -0.490 OA
BRANCH  22  28
ATOM     23  C   UNL     1       0.039   1.511   0.000  0.00  0.00    +0.044 C 
ATOM     24  C   UNL     1       0.043   0.004  -0.001  0.00  0.00    -0.047 A 
ATOM     25  C   UNL     1       0.035  -0.686  -1.199  0.00  0.00    +0.003 A 
ATOM     26  C   UNL     1       0.040  -2.068  -1.204  0.00  0.00    +0.004 A 
ATOM     27  C   UNL     1       0.052  -2.764  -0.010  0.00  0.00    +0.045 A 
ATOM     28  C   UNL     1       0.060  -2.074   1.193  0.00  0.00    +0.121 A 
ATOM     29  C   UNL     1       0.062  -0.687   1.195  0.00  0.00    +0.049 A 
ENDBRANCH  22  28
ENDBRANCH  21  22
ENDBRANCH  19  21
ENDBRANCH   1  19
TORSDOF 7
