REMARK  Name = ZINC63948174
REMARK  5 active torsions:
REMARK  status: ('A' for Active; 'I' for Inactive)
REMARK    1  A    between atoms: C_1  and  C_2
REMARK    2  A    between atoms: C_5  and  C_24
REMARK    3  A    between atoms: C_7  and  N_8
REMARK    4  A    between atoms: C_9  and  C_11
REMARK    5  A    between atoms: C_11  and  N_12
REMARK                            x       y       z     vdW  Elec       q    Type
REMARK                         _______ _______ _______ _____ _____    ______ ____
ROOT
ATOM      1  N   UNL     1       0.025  -0.007   2.417  0.00  0.00    -0.284 N 
ATOM      2  C   UNL     1      -0.057  -0.683   3.581  0.00  0.00    +0.235 C 
ATOM      3  O   UNL     1      -0.040  -1.895   3.580  0.00  0.00    -0.274 OA
ATOM      4  H   UNL     1       0.078   0.961   2.421  0.00  0.00    +0.155 HD
ENDROOT
BRANCH   1  11
ATOM      5  C   UNL     1      -1.264   1.184   0.183  0.00  0.00    +0.045 C 
ATOM      6  C   UNL     1      -0.585  -0.158   0.085  0.00  0.00    -0.029 A 
ATOM      7  C   UNL     1      -0.575  -0.839  -1.118  0.00  0.00    +0.006 A 
ATOM      8  C   UNL     1       0.045  -2.068  -1.215  0.00  0.00    +0.013 A 
ATOM      9  C   UNL     1       0.665  -2.627  -0.096  0.00  0.00    +0.038 A 
ATOM     10  C   UNL     1       0.655  -1.940   1.117  0.00  0.00    +0.036 A 
ATOM     11  C   UNL     1       0.033  -0.704   1.203  0.00  0.00    +0.037 A 
BRANCH   9  12
ATOM     12  C   UNL     1       1.329  -3.944  -0.197  0.00  0.00    +0.242 C 
ATOM     13  O   UNL     1       1.868  -4.429   0.778  0.00  0.00    -0.270 OA
ATOM     14  N   UNL     1       1.337  -4.607  -1.371  0.00  0.00    -0.325 N 
ATOM     15  H   UNL     1       0.907  -4.220  -2.149  0.00  0.00    +0.145 HD
ATOM     16  H   UNL     1       1.773  -5.471  -1.437  0.00  0.00    +0.145 HD
ENDBRANCH   9  12
ENDBRANCH   1  11
BRANCH   2  17
ATOM     17  C   UNL     1      -0.168   0.069   4.882  0.00  0.00    +0.214 C 
BRANCH  17  18
ATOM     18  N   UNL     1      -0.242  -0.884   5.992  0.00  0.00    -0.215 N 
ATOM     19  C   UNL     1      -1.392  -1.397   6.476  0.00  0.00    +0.247 C 
ATOM     20  O   UNL     1      -2.518  -1.165   6.092  0.00  0.00    -0.273 OA
ATOM     21  C   UNL     1      -0.981  -2.321   7.600  0.00  0.00    +0.113 C 
ATOM     22  C   UNL     1      -1.411  -3.751   7.296  0.00  0.00    +0.035 C 
ATOM     23  C   UNL     1      -0.959  -4.674   8.431  0.00  0.00    +0.003 C 
ATOM     24  C   UNL     1      -1.581  -4.205   9.747  0.00  0.00    +0.000 C 
ATOM     25  C   UNL     1      -1.122  -2.777  10.050  0.00  0.00    +0.003 C 
ATOM     26  C   UNL     1      -1.575  -1.847   8.922  0.00  0.00    +0.035 C 
ATOM     27  N   UNL     1       0.484  -2.218   7.628  0.00  0.00    -0.285 N 
ATOM     28  C   UNL     1       0.824  -1.359   6.648  0.00  0.00    +0.310 C 
ATOM     29  O   UNL     1       1.970  -1.048   6.390  0.00  0.00    -0.252 OA
ATOM     30  H   UNL     1       1.087  -2.681   8.230  0.00  0.00    +0.151 HD
ENDBRANCH  17  18
ENDBRANCH   2  17
TORSDOF 4
