REMARK  Name = ZINC01428876
REMARK  5 active torsions:
REMARK  status: ('A' for Active; 'I' for Inactive)
REMARK    1  A    between atoms: C_1  and  C_2
REMARK    2  A    between atoms: C_8  and  C_10
REMARK    3  A    between atoms: C_11  and  N_30
REMARK    4  A    between atoms: C_13  and  C_26
REMARK    5  A    between atoms: C_23  and  C_25
REMARK                            x       y       z     vdW  Elec       q    Type
REMARK                         _______ _______ _______ _____ _____    ______ ____
ROOT
ATOM      1  C   UNL     1      -2.303   0.905   0.089  0.00  0.00    +0.097 A 
ATOM      2  C   UNL     1      -3.526   1.407   0.475  0.00  0.00    +0.054 A 
ATOM      3  C   UNL     1      -4.578   0.467   0.830  0.00  0.00    +0.041 A 
ATOM      4  C   UNL     1      -5.900   0.732   1.256  0.00  0.00    +0.073 A 
ATOM      5  C   UNL     1      -6.748  -0.319   1.545  0.00  0.00    +0.004 A 
ATOM      6  C   UNL     1      -6.309  -1.623   1.409  0.00  0.00    +0.049 A 
ATOM      7  N   UNL     1      -5.064  -1.863   1.016  0.00  0.00    -0.244 NA
ATOM      8  C   UNL     1      -4.221  -0.898   0.733  0.00  0.00    +0.112 A 
ATOM      9  S   UNL     1      -2.533  -0.860   0.184  0.00  0.00    -0.062 S 
ATOM     10  C   UNL     1      -7.193  -2.814   1.673  0.00  0.00    +0.075 C 
ATOM     11  C   UNL     1      -8.376  -2.427   2.558  0.00  0.00    +0.114 C 
ATOM     12  N   UNL     1      -8.969  -1.196   2.010  0.00  0.00    -0.297 N 
ATOM     13  C   UNL     1      -8.140   0.014   2.020  0.00  0.00    +0.145 C 
ATOM     14  C   UNL     1     -10.224  -1.181   1.518  0.00  0.00    +0.213 C 
ATOM     15  O   UNL     1     -10.688  -0.153   1.072  0.00  0.00    -0.276 OA
ATOM     16  C   UNL     1     -11.049  -2.442   1.522  0.00  0.00    +0.109 C 
ENDROOT
BRANCH   1  24
ATOM     17  C   UNL     1       3.234   4.553  -1.769  0.00  0.00    +0.089 C 
ATOM     18  C   UNL     1       2.538   3.239  -1.521  0.00  0.00    +0.136 A 
ATOM     19  C   UNL     1       1.264   3.066  -1.102  0.00  0.00    +0.091 A 
ATOM     20  C   UNL     1       1.115   1.655  -1.030  0.00  0.00    +0.168 A 
ATOM     21  N   UNL     1       2.265   1.148  -1.393  0.00  0.00    -0.063 NA
ATOM     22  O   UNL     1       3.062   2.014  -1.672  0.00  0.00    -0.358 OA
ATOM     23  N   UNL     1      -0.025   0.952  -0.645  0.00  0.00    -0.263 N 
ATOM     24  C   UNL     1      -1.142   1.619  -0.296  0.00  0.00    +0.258 C 
ATOM     25  O   UNL     1      -1.154   2.837  -0.312  0.00  0.00    -0.269 OA
ATOM     26  H   UNL     1      -0.015  -0.018  -0.633  0.00  0.00    +0.157 HD
ENDBRANCH   1  24
BRANCH   4  27
ATOM     27  C   UNL     1      -6.381   2.154   1.394  0.00  0.00    +0.418 C 
ATOM     28  F   UNL     1      -6.634   2.686   0.125  0.00  0.00    -0.166 F 
ATOM     29  F   UNL     1      -7.557   2.177   2.152  0.00  0.00    -0.166 F 
ATOM     30  F   UNL     1      -5.400   2.918   2.034  0.00  0.00    -0.166 F 
ENDBRANCH   4  27
BRANCH   2  31
ATOM     31  N   UNL     1      -3.750   2.776   0.526  0.00  0.00    -0.356 N 
ATOM     32  H   UNL     1      -3.027   3.377   0.765  0.00  0.00    +0.142 HD
ATOM     33  H   UNL     1      -4.629   3.132   0.322  0.00  0.00    +0.142 HD
ENDBRANCH   2  31
TORSDOF 3
