REMARK  Name = ZINC08791838
REMARK  7 active torsions:
REMARK  status: ('A' for Active; 'I' for Inactive)
REMARK    1  A    between atoms: C_4  and  C_8
REMARK    2  A    between atoms: N_9  and  N_10
REMARK    3  A    between atoms: C_11  and  C_13
REMARK    4  A    between atoms: C_13  and  N_14
REMARK    5  A    between atoms: C_15  and  C_17
REMARK    6  A    between atoms: C_20  and  S_23
REMARK    7  A    between atoms: S_23  and  N_26
REMARK                            x       y       z     vdW  Elec       q    Type
REMARK                         _______ _______ _______ _____ _____    ______ ____
ROOT
ATOM      1  N   UNL     1       1.143   1.901   0.001  0.00  0.00    -0.303 N 
ATOM      2  C   UNL     1      -0.014   1.211   0.009  0.00  0.00    +0.244 C 
ATOM      3  O   UNL     1       0.002  -0.004   0.002  0.00  0.00    -0.270 OA
ATOM      4  H   UNL     1       1.130   2.871   0.007  0.00  0.00    +0.150 HD
ENDROOT
BRANCH   2   5
ATOM      5  C   UNL     1      -1.305   1.933   0.019  0.00  0.00    +0.037 A 
ATOM      6  C   UNL     1      -1.327   3.329   0.032  0.00  0.00    +0.015 A 
ATOM      7  C   UNL     1      -2.534   3.996   0.036  0.00  0.00    +0.029 A 
ATOM      8  C   UNL     1      -3.721   3.285   0.038  0.00  0.00    +0.106 A 
ATOM      9  C   UNL     1      -3.706   1.901   0.030  0.00  0.00    +0.029 A 
ATOM     10  C   UNL     1      -2.506   1.222   0.021  0.00  0.00    +0.015 A 
BRANCH   8  11
ATOM     11  S   UNL     1      -5.259   4.145   0.050  0.00  0.00    +0.061 S 
ATOM     12  O   UNL     1      -5.008   5.433  -0.495  0.00  0.00    -0.153 OA
ATOM     13  O   UNL     1      -6.224   3.260  -0.502  0.00  0.00    -0.153 OA
BRANCH  11  14
ATOM     14  N   UNL     1      -5.680   4.375   1.635  0.00  0.00    -0.172 NA
ATOM     15  C   UNL     1      -6.493   3.383   2.354  0.00  0.00    +0.137 C 
ATOM     16  C   UNL     1      -5.785   3.053   3.679  0.00  0.00    +0.177 C 
ATOM     17  O   UNL     1      -5.505   4.269   4.376  0.00  0.00    -0.377 OA
ATOM     18  C   UNL     1      -4.613   5.148   3.685  0.00  0.00    +0.177 C 
ATOM     19  C   UNL     1      -5.256   5.582   2.363  0.00  0.00    +0.137 C 
ENDBRANCH  11  14
ENDBRANCH   8  11
ENDBRANCH   2   5
BRANCH   1  20
ATOM     20  C   UNL     1       2.422   1.186  -0.015  0.00  0.00    +0.202 C 
BRANCH  20  22
ATOM     21  N   UNL     1       4.831   1.749  -0.035  0.00  0.00    -0.206 N 
ATOM     22  C   UNL     1       3.554   2.181  -0.020  0.00  0.00    +0.249 C 
ATOM     23  O   UNL     1       3.316   3.370  -0.011  0.00  0.00    -0.272 OA
ATOM     24  H   UNL     1       5.021   0.798  -0.042  0.00  0.00    +0.177 HD
BRANCH  21  26
ATOM     25  C   UNL     1       7.112   2.258  -0.054  0.00  0.00    +0.141 C 
ATOM     26  N   UNL     1       5.883   2.674  -0.040  0.00  0.00    -0.188 NA
BRANCH  25  30
ATOM     27  C   UNL     1      10.301   5.060  -0.070  0.00  0.00    +0.003 A 
ATOM     28  C   UNL     1      10.577   3.704  -0.080  0.00  0.00    +0.021 A 
ATOM     29  C   UNL     1       9.545   2.787  -0.074  0.00  0.00    +0.051 A 
ATOM     30  C   UNL     1       8.220   3.231  -0.059  0.00  0.00    +0.031 A 
ATOM     31  C   UNL     1       7.950   4.603  -0.055  0.00  0.00    +0.051 A 
ATOM     32  C   UNL     1       8.992   5.508  -0.056  0.00  0.00    +0.021 A 
ATOM     33 CL   UNL     1       6.308   5.166  -0.043  0.00  0.00    -0.083 Cl
ATOM     34 CL   UNL     1       9.893   1.086  -0.086  0.00  0.00    -0.083 Cl
ENDBRANCH  25  30
ENDBRANCH  21  26
ENDBRANCH  20  22
ENDBRANCH   1  20
TORSDOF 7
