REMARK  Name = ZINC67556225
REMARK  6 active torsions:
REMARK  status: ('A' for Active; 'I' for Inactive)
REMARK    1  A    between atoms: C_1  and  O_2
REMARK    2  A    between atoms: O_2  and  C_3
REMARK    3  A    between atoms: C_6  and  N_24
REMARK    4  A    between atoms: C_8  and  N_9
REMARK    5  A    between atoms: N_12  and  C_13
REMARK    6  A    between atoms: C_16  and  C_18
REMARK                            x       y       z     vdW  Elec       q    Type
REMARK                         _______ _______ _______ _____ _____    ______ ____
ROOT
ATOM      1  N   UNL     1       0.095  -2.777  -0.112  0.00  0.00    -0.266 N 
ATOM      2  C   UNL     1       0.060  -4.120  -0.232  0.00  0.00    +0.304 C 
ATOM      3  O   UNL     1       0.600  -4.659  -1.178  0.00  0.00    -0.252 OA
ATOM      4  N   UNL     1      -0.573  -4.863   0.697  0.00  0.00    -0.296 N 
ATOM      5  H   UNL     1      -0.263  -2.352   0.683  0.00  0.00    +0.156 HD
ATOM      6  H   UNL     1      -1.004  -4.432   1.452  0.00  0.00    +0.151 HD
ENDROOT
BRANCH   1  12
ATOM      7  C   UNL     1       1.157  -0.731  -0.851  0.00  0.00    +0.141 A 
ATOM      8  C   UNL     1       1.709   0.034  -1.865  0.00  0.00    +0.050 A 
ATOM      9  C   UNL     1       1.750  -0.456  -3.157  0.00  0.00    +0.036 A 
ATOM     10  C   UNL     1       1.242  -1.710  -3.441  0.00  0.00    +0.128 A 
ATOM     11  C   UNL     1       0.690  -2.480  -2.435  0.00  0.00    +0.059 A 
ATOM     12  C   UNL     1       0.650  -1.996  -1.135  0.00  0.00    +0.079 A 
BRANCH  10  13
ATOM     13  N   UNL     1       1.288  -2.229  -4.827  0.00  0.00    +0.056 N 
ATOM     14  O   UNL     1       1.771  -1.557  -5.708  0.00  0.00    -0.126 OA
ATOM     15  O   UNL     1       0.844  -3.325  -5.077  0.00  0.00    -0.126 OA
ENDBRANCH  10  13
BRANCH   7  17
ATOM     16  C   UNL     1       1.655   1.056   0.638  0.00  0.00    +0.277 C 
ATOM     17  O   UNL     1       1.116  -0.250   0.421  0.00  0.00    -0.493 OA
ENDBRANCH   7  17
ENDBRANCH   1  12
BRANCH   4  18
ATOM     18  C   UNL     1      -0.611  -6.322   0.566  0.00  0.00    +0.083 C 
ATOM     19  C   UNL     1      -0.350  -7.151   1.825  0.00  0.00    +0.033 C 
ATOM     20  C   UNL     1      -1.764  -7.062   1.246  0.00  0.00    +0.041 C 
BRANCH  20  21
ATOM     21  C   UNL     1      -2.774  -6.235   2.000  0.00  0.00    -0.042 A 
ATOM     22  C   UNL     1      -2.369  -5.446   3.060  0.00  0.00    +0.004 A 
ATOM     23  C   UNL     1      -3.295  -4.687   3.751  0.00  0.00    +0.000 A 
ATOM     24  C   UNL     1      -4.627  -4.717   3.381  0.00  0.00    +0.000 A 
ATOM     25  C   UNL     1      -5.032  -5.506   2.321  0.00  0.00    +0.000 A 
ATOM     26  C   UNL     1      -4.105  -6.261   1.627  0.00  0.00    +0.004 A 
ENDBRANCH  20  21
ENDBRANCH   4  18
TORSDOF 5
