REMARK  Name = ZINC39313416
REMARK  6 active torsions:
REMARK  status: ('A' for Active; 'I' for Inactive)
REMARK    1  A    between atoms: C_4  and  C_7
REMARK    2  A    between atoms: C_7  and  C_8
REMARK    3  A    between atoms: C_10  and  O_29
REMARK    4  A    between atoms: N_14  and  C_17
REMARK    5  A    between atoms: C_17  and  C_18
REMARK    6  A    between atoms: C_18  and  C_19
REMARK                            x       y       z     vdW  Elec       q    Type
REMARK                         _______ _______ _______ _____ _____    ______ ____
ROOT
ATOM      1  C   UNL     1       4.171  -0.963   1.399  0.00  0.00    +0.112 C 
ATOM      2  C   UNL     1       5.442  -1.816   1.384  0.00  0.00    +0.151 C 
ATOM      3  C   UNL     1       6.603  -0.982   0.911  0.00  0.00    +0.020 C 
ATOM      4  C   UNL     1       6.672   0.300   1.204  0.00  0.00    +0.076 C 
ATOM      5  N   UNL     1       5.678   0.917   1.954  0.00  0.00    -0.277 N 
ATOM      6  C   UNL     1       4.461   0.352   2.076  0.00  0.00    +0.226 C 
ATOM      7  O   UNL     1       3.600   0.899   2.732  0.00  0.00    -0.275 OA
ENDROOT
BRANCH   2   8
ATOM      8  O   UNL     1       5.261  -2.924   0.500  0.00  0.00    -0.387 OA
ATOM      9  H   UNL     1       6.029  -3.509   0.441  0.00  0.00    +0.210 HD
ENDBRANCH   2   8
BRANCH   1  10
ATOM     10  C   UNL     1       3.711  -0.707  -0.038  0.00  0.00    +0.050 C 
BRANCH  10  14
ATOM     11  C   UNL     1      -0.017   1.378   0.010  0.00  0.00    +0.000 A 
ATOM     12  C   UNL     1       1.171   2.086   0.002  0.00  0.00    +0.000 A 
ATOM     13  C   UNL     1       2.377   1.411  -0.013  0.00  0.00    +0.003 A 
ATOM     14  C   UNL     1       2.396   0.029  -0.020  0.00  0.00    -0.047 A 
ATOM     15  C   UNL     1       1.208  -0.679  -0.012  0.00  0.00    +0.003 A 
ATOM     16  C   UNL     1       0.002  -0.004   0.002  0.00  0.00    +0.000 A 
ENDBRANCH  10  14
ENDBRANCH   1  10
BRANCH   5  17
ATOM     17  C   UNL     1       5.956   2.193   2.618  0.00  0.00    +0.119 C 
BRANCH  17  18
ATOM     18  C   UNL     1       5.606   3.346   1.675  0.00  0.00    +0.072 C 
BRANCH  18  19
ATOM     19  C   UNL     1       5.892   4.658   2.358  0.00  0.00    +0.018 A 
ATOM     20  H   UNL     1       4.035   5.176   3.145  0.00  0.00    +0.166 HD
ATOM     21  C   UNL     1       7.088   5.267   2.388  0.00  0.00    +0.031 A 
ATOM     22  C   UNL     1       6.919   6.506   3.151  0.00  0.00    -0.000 A 
ATOM     23  C   UNL     1       7.777   7.543   3.519  0.00  0.00    +0.010 A 
ATOM     24  C   UNL     1       7.299   8.591   4.254  0.00  0.00    +0.001 A 
ATOM     25  C   UNL     1       5.966   8.633   4.638  0.00  0.00    +0.002 A 
ATOM     26  C   UNL     1       5.101   7.619   4.285  0.00  0.00    +0.026 A 
ATOM     27  C   UNL     1       5.567   6.543   3.537  0.00  0.00    +0.047 A 
ATOM     28  N   UNL     1       4.969   5.409   3.034  0.00  0.00    -0.358 N 
ENDBRANCH  18  19
ENDBRANCH  17  18
ENDBRANCH   5  17
TORSDOF 6
