REMARK  Name = ZINC38707356
REMARK  8 active torsions:
REMARK  status: ('A' for Active; 'I' for Inactive)
REMARK    1  A    between atoms: C_1  and  C_2
REMARK    2  A    between atoms: C_4  and  S_10
REMARK    3  A    between atoms: S_10  and  N_13
REMARK    4  A    between atoms: N_13  and  C_14
REMARK    5  A    between atoms: C_22  and  C_29
REMARK    6  A    between atoms: C_22  and  C_30
REMARK    7  A    between atoms: N_25  and  C_26
REMARK    8  A    between atoms: C_26  and  C_27
REMARK                            x       y       z     vdW  Elec       q    Type
REMARK                         _______ _______ _______ _____ _____    ______ ____
ROOT
ATOM      1  C   UNL     1       2.240  -4.930  -3.010  0.00  0.00    +0.078 A 
ATOM      2  C   UNL     1       1.395  -4.620  -4.068  0.00  0.00    +0.029 A 
ATOM      3  C   UNL     1       1.647  -5.127  -5.329  0.00  0.00    +0.029 A 
ATOM      4  C   UNL     1       2.745  -5.946  -5.537  0.00  0.00    +0.079 A 
ATOM      5  C   UNL     1       3.593  -6.262  -4.477  0.00  0.00    +0.144 A 
ATOM      6  C   UNL     1       3.343  -5.747  -3.217  0.00  0.00    +0.074 A 
ATOM      7  O   UNL     1       4.661  -7.075  -4.689  0.00  0.00    -0.489 OA
ATOM      8  C   UNL     1       4.399  -8.468  -4.840  0.00  0.00    +0.244 C 
ATOM      9  C   UNL     1       3.193  -8.689  -5.750  0.00  0.00    +0.076 C 
ATOM     10  C   UNL     1       3.277  -7.783  -6.951  0.00  0.00    +0.229 C 
ATOM     11  O   UNL     1       3.578  -8.235  -8.036  0.00  0.00    -0.275 OA
ATOM     12  N   UNL     1       3.016  -6.464  -6.814  0.00  0.00    -0.264 N 
ATOM     13  C   UNL     1       3.168 -10.147  -6.214  0.00  0.00    +0.024 C 
ATOM     14  C   UNL     1       1.910  -8.384  -4.973  0.00  0.00    +0.024 C 
ENDROOT
BRANCH   1  15
ATOM     15  N   UNL     1       1.983  -4.413  -1.736  0.00  0.00    -0.098 NA
BRANCH  15  16
ATOM     16  S   UNL     1       0.667  -3.439  -1.488  0.00  0.00    +0.093 S 
ATOM     17  O   UNL     1      -0.483  -4.248  -1.692  0.00  0.00    -0.148 OA
ATOM     18  O   UNL     1       0.900  -2.246  -2.225  0.00  0.00    -0.148 OA
BRANCH  16  22
ATOM     19  C   UNL     1       1.048   0.131   2.311  0.00  0.00    +0.045 C 
ATOM     20  C   UNL     1       0.850  -1.310   1.915  0.00  0.00    -0.030 A 
ATOM     21  C   UNL     1       0.850  -1.666   0.579  0.00  0.00    +0.035 A 
ATOM     22  C   UNL     1       0.668  -2.986   0.215  0.00  0.00    +0.129 A 
ATOM     23  C   UNL     1       0.486  -3.954   1.188  0.00  0.00    +0.069 A 
ATOM     24  C   UNL     1       0.486  -3.598   2.525  0.00  0.00    +0.042 A 
ATOM     25  C   UNL     1       0.673  -2.277   2.889  0.00  0.00    +0.045 A 
ATOM     26 CL   UNL     1       0.679  -1.831   4.566  0.00  0.00    -0.083 Cl
ATOM     27 CL   UNL     1       0.257  -5.613   0.731  0.00  0.00    -0.081 Cl
ENDBRANCH  16  22
ENDBRANCH  15  16
ENDBRANCH   1  15
BRANCH  12  28
ATOM     28  C   UNL     1       3.017  -5.584  -7.985  0.00  0.00    +0.140 C 
BRANCH  28  29
ATOM     29  C   UNL     1       4.401  -5.027  -8.195  0.00  0.00    -0.015 C 
ATOM     30  C   UNL     1       5.000  -5.180  -9.350  0.00  0.00    +0.005 C 
ENDBRANCH  28  29
ENDBRANCH  12  28
TORSDOF 5
