REMARK  Name = ZINC09491408
REMARK  8 active torsions:
REMARK  status: ('A' for Active; 'I' for Inactive)
REMARK    1  A    between atoms: C_1  and  C_2
REMARK    2  A    between atoms: C_5  and  S_25
REMARK    3  A    between atoms: C_7  and  C_8
REMARK    4  A    between atoms: N_10  and  N_11
REMARK    5  A    between atoms: C_12  and  C_14
REMARK    6  A    between atoms: C_14  and  C_15
REMARK    7  A    between atoms: N_23  and  C_24
REMARK    8  A    between atoms: S_25  and  N_28
REMARK                            x       y       z     vdW  Elec       q    Type
REMARK                         _______ _______ _______ _____ _____    ______ ____
ROOT
ATOM      1  C   UNL     1       6.587  -0.145  -2.661  0.00  0.00    +0.260 C 
ATOM      2  O   UNL     1       6.989  -0.511  -3.748  0.00  0.00    -0.269 OA
ATOM      3  N   UNL     1       7.166   0.904  -2.046  0.00  0.00    -0.230 N 
ATOM      4  H   UNL     1       6.845   1.196  -1.178  0.00  0.00    +0.173 HD
ENDROOT
BRANCH   1  11
ATOM      5  C   UNL     1       5.177  -2.218  -4.106  0.00  0.00    +0.044 C 
ATOM      6  C   UNL     1       4.774  -1.854  -2.700  0.00  0.00    -0.038 A 
ATOM      7  C   UNL     1       3.725  -2.510  -2.090  0.00  0.00    +0.006 A 
ATOM      8  C   UNL     1       3.357  -2.181  -0.797  0.00  0.00    +0.029 A 
ATOM      9  C   UNL     1       4.031  -1.185  -0.112  0.00  0.00    +0.106 A 
ATOM     10  C   UNL     1       5.082  -0.522  -0.711  0.00  0.00    +0.042 A 
ATOM     11  C   UNL     1       5.462  -0.853  -2.013  0.00  0.00    +0.043 A 
BRANCH   9  12
ATOM     12  S   UNL     1       3.550  -0.769   1.531  0.00  0.00    +0.061 S 
ATOM     13  O   UNL     1       4.688  -0.189   2.152  0.00  0.00    -0.153 OA
ATOM     14  O   UNL     1       2.890  -1.910   2.062  0.00  0.00    -0.153 OA
BRANCH  12  15
ATOM     15  N   UNL     1       2.410   0.427   1.419  0.00  0.00    -0.177 NA
ATOM     16  C   UNL     1       0.983   0.094   1.323  0.00  0.00    +0.109 C 
ATOM     17  C   UNL     1       0.395   0.792   0.092  0.00  0.00    +0.017 C 
ATOM     18  C   UNL     1       0.687   2.292   0.174  0.00  0.00    +0.003 C 
ATOM     19  C   UNL     1       2.200   2.520   0.182  0.00  0.00    +0.017 C 
ATOM     20  C   UNL     1       2.808   1.842   1.414  0.00  0.00    +0.109 C 
ENDBRANCH  12  15
ENDBRANCH   9  12
ENDBRANCH   1  11
BRANCH   3  21
ATOM     21  N   UNL     1       8.232   1.575  -2.659  0.00  0.00    -0.234 N 
ATOM     22  C   UNL     1       8.812   2.625  -2.044  0.00  0.00    +0.236 C 
ATOM     23  O   UNL     1       8.411   2.989  -0.960  0.00  0.00    -0.274 OA
ATOM     24  H   UNL     1       8.553   1.283  -3.527  0.00  0.00    +0.173 HD
BRANCH  22  25
ATOM     25  C   UNL     1       9.959   3.346  -2.705  0.00  0.00    +0.171 C 
BRANCH  25  26
ATOM     26  C   UNL     1      10.422   4.471  -1.817  0.00  0.00    +0.119 A 
ATOM     27  N   UNL     1       9.966   5.689  -1.858  0.00  0.00    -0.232 NA
ATOM     28  C   UNL     1      10.598   6.445  -0.923  0.00  0.00    +0.089 A 
ATOM     29  C   UNL     1      10.500   7.786  -0.541  0.00  0.00    +0.030 A 
ATOM     30  C   UNL     1      11.296   8.268   0.459  0.00  0.00    +0.002 A 
ATOM     31  C   UNL     1      12.205   7.440   1.103  0.00  0.00    +0.002 A 
ATOM     32  C   UNL     1      12.318   6.114   0.743  0.00  0.00    +0.028 A 
ATOM     33  C   UNL     1      11.517   5.606  -0.272  0.00  0.00    +0.069 A 
ATOM     34  N   UNL     1      11.383   4.364  -0.859  0.00  0.00    -0.330 N 
ATOM     35  C   UNL     1      12.134   3.154  -0.515  0.00  0.00    +0.150 C 
ENDBRANCH  25  26
ENDBRANCH  22  25
ENDBRANCH   3  21
TORSDOF 6
