REMARK  Name = ZINC45743489
REMARK  7 active torsions:
REMARK  status: ('A' for Active; 'I' for Inactive)
REMARK    1  A    between atoms: C_1  and  N_2
REMARK    2  A    between atoms: N_2  and  C_3
REMARK    3  A    between atoms: N_2  and  S_4
REMARK    4  A    between atoms: S_4  and  N_7
REMARK    5  A    between atoms: N_7  and  C_8
REMARK    6  A    between atoms: C_8  and  C_9
REMARK    7  A    between atoms: N_13  and  C_15
REMARK                            x       y       z     vdW  Elec       q    Type
REMARK                         _______ _______ _______ _____ _____    ______ ____
ROOT
ATOM      1  C   UNL     1       3.720  -2.230  -1.853  0.00  0.00    +0.023 C 
ATOM      2  C   UNL     1       3.395  -3.199  -3.021  0.00  0.00    +0.025 C 
ATOM      3  C   UNL     1       4.732  -3.939  -3.237  0.00  0.00    +0.105 C 
ATOM      4  N   UNL     1       5.499  -3.830  -1.988  0.00  0.00    -0.330 N 
ATOM      5  C   UNL     1       4.696  -3.082  -1.003  0.00  0.00    +0.110 C 
ENDROOT
BRANCH   4   6
ATOM      6  C   UNL     1       6.777  -4.349  -1.770  0.00  0.00    +0.030 A 
ATOM      7  C   UNL     1       7.394  -4.183  -0.536  0.00  0.00    +0.023 A 
ATOM      8  C   UNL     1       8.658  -4.698  -0.324  0.00  0.00    +0.002 A 
ATOM      9  C   UNL     1       9.309  -5.378  -1.337  0.00  0.00    +0.000 A 
ATOM     10  C   UNL     1       8.697  -5.545  -2.566  0.00  0.00    +0.002 A 
ATOM     11  C   UNL     1       7.431  -5.038  -2.783  0.00  0.00    +0.023 A 
ENDBRANCH   4   6
BRANCH   1  12
ATOM     12  C   UNL     1       2.458  -1.886  -1.059  0.00  0.00    +0.112 C 
BRANCH  12  13
ATOM     13  N   UNL     1       1.581  -1.045  -1.877  0.00  0.00    -0.179 NA
ATOM     14  H   UNL     1       1.926  -0.618  -2.676  0.00  0.00    +0.149 HD
BRANCH  13  15
ATOM     15  S   UNL     1      -0.000  -0.824  -1.437  0.00  0.00    +0.097 S 
ATOM     16  O   UNL     1      -0.531  -2.115  -1.167  0.00  0.00    -0.141 OA
ATOM     17  O   UNL     1      -0.572   0.049  -2.401  0.00  0.00    -0.141 OA
BRANCH  15  19
ATOM     18  C   UNL     1      -0.018   1.461   0.010  0.00  0.00    +0.132 C 
ATOM     19  N   UNL     1       0.002  -0.004   0.002  0.00  0.00    -0.173 NA
ATOM     20  C   UNL     1       0.024  -0.743   1.267  0.00  0.00    +0.132 C 
ENDBRANCH  15  19
ENDBRANCH  13  15
ENDBRANCH  12  13
ENDBRANCH   1  12
TORSDOF 5
