REMARK  Name = ZINC12083090
REMARK  6 active torsions:
REMARK  status: ('A' for Active; 'I' for Inactive)
REMARK    1  A    between atoms: C_1  and  C_2
REMARK    2  A    between atoms: N_6  and  C_28
REMARK    3  A    between atoms: C_10  and  N_14
REMARK    4  A    between atoms: C_15  and  C_17
REMARK    5  A    between atoms: C_18  and  C_19
REMARK    6  A    between atoms: C_22  and  N_25
REMARK                            x       y       z     vdW  Elec       q    Type
REMARK                         _______ _______ _______ _____ _____    ______ ____
ROOT
ATOM      1  N   UNL     1       1.178  -0.662  -0.013  0.00  0.00    -0.282 N 
ATOM      2  C   UNL     1       0.240  -0.010  -0.728  0.00  0.00    +0.241 C 
ATOM      3  O   UNL     1      -0.576  -0.637  -1.377  0.00  0.00    -0.270 OA
ATOM      4  H   UNL     1       1.875  -0.164   0.443  0.00  0.00    +0.155 HD
ENDROOT
BRANCH   1  13
ATOM      5  C   UNL     1       3.353  -5.730   2.584  0.00  0.00    +0.062 C 
ATOM      6  C   UNL     1       3.406  -6.077   1.095  0.00  0.00    +0.256 C 
ATOM      7  C   UNL     1       2.179  -6.869   0.720  0.00  0.00    +0.260 C 
ATOM      8  O   UNL     1       2.198  -8.081   0.771  0.00  0.00    -0.271 OA
ATOM      9  N   UNL     1       1.060  -6.224   0.326  0.00  0.00    -0.268 N 
ATOM     10  C   UNL     1       1.077  -4.822   0.241  0.00  0.00    +0.078 A 
ATOM     11  C   UNL     1      -0.105  -4.105   0.157  0.00  0.00    +0.029 A 
ATOM     12  C   UNL     1      -0.071  -2.726   0.079  0.00  0.00    +0.025 A 
ATOM     13  C   UNL     1       1.147  -2.058   0.073  0.00  0.00    +0.037 A 
ATOM     14  C   UNL     1       2.335  -2.775   0.157  0.00  0.00    +0.071 A 
ATOM     15  C   UNL     1       2.301  -4.155   0.242  0.00  0.00    +0.145 A 
ATOM     16  O   UNL     1       3.454  -4.872   0.327  0.00  0.00    -0.478 OA
ATOM     17  C   UNL     1      -0.153  -6.974  -0.006  0.00  0.00    +0.138 C 
ENDBRANCH   1  13
BRANCH   2  18
ATOM     18  C   UNL     1       0.203   1.454  -0.723  0.00  0.00    +0.068 C 
ATOM     19  C   UNL     1      -0.732   2.107  -1.443  0.00  0.00    +0.013 C 
BRANCH  19  20
ATOM     20  C   UNL     1      -0.769   3.578  -1.438  0.00  0.00    -0.025 A 
ATOM     21  C   UNL     1       0.160   4.303  -0.685  0.00  0.00    +0.010 A 
ATOM     22  C   UNL     1       0.122   5.681  -0.691  0.00  0.00    +0.033 A 
ATOM     23  C   UNL     1      -0.839   6.347  -1.431  0.00  0.00    +0.126 A 
ATOM     24  C   UNL     1      -1.766   5.637  -2.174  0.00  0.00    +0.033 A 
ATOM     25  C   UNL     1      -1.737   4.259  -2.183  0.00  0.00    +0.010 A 
BRANCH  23  26
ATOM     26  N   UNL     1      -0.877   7.827  -1.426  0.00  0.00    +0.056 N 
ATOM     27  O   UNL     1      -1.722   8.417  -2.076  0.00  0.00    -0.126 OA
ATOM     28  O   UNL     1      -0.063   8.455  -0.772  0.00  0.00    -0.126 OA
ENDBRANCH  23  26
ENDBRANCH  19  20
ENDBRANCH   2  18
TORSDOF 4
