REMARK  Name = ZINC37694763
REMARK  5 active torsions:
REMARK  status: ('A' for Active; 'I' for Inactive)
REMARK    1  A    between atoms: C_1  and  C_2
REMARK    2  A    between atoms: C_6  and  O_11
REMARK    3  A    between atoms: C_7  and  N_8
REMARK    4  A    between atoms: O_11  and  C_12
REMARK    5  A    between atoms: C_17  and  O_19
REMARK                            x       y       z     vdW  Elec       q    Type
REMARK                         _______ _______ _______ _____ _____    ______ ____
ROOT
ATOM      1  C   UNL     1       0.432   1.473  -0.014  0.00  0.00    +0.046 C 
ATOM      2  C   UNL     1       0.211  -0.018  -0.009  0.00  0.00    -0.017 A 
ATOM      3  C   UNL     1      -0.013  -0.687  -1.199  0.00  0.00    +0.006 A 
ATOM      4  C   UNL     1      -0.216  -2.054  -1.198  0.00  0.00    +0.004 A 
ATOM      5  C   UNL     1      -0.195  -2.756  -0.008  0.00  0.00    +0.048 A 
ATOM      6  C   UNL     1       0.030  -2.087   1.187  0.00  0.00    +0.151 A 
ATOM      7  C   UNL     1       0.239  -0.716   1.182  0.00  0.00    +0.170 A 
ENDROOT
BRANCH   7   8
ATOM      8  N   UNL     1       0.485   0.000   2.454  0.00  0.00    +0.060 N 
ATOM      9  O   UNL     1      -0.444   0.445   3.087  0.00  0.00    -0.126 OA
ATOM     10  O   UNL     1       1.615   0.140   2.860  0.00  0.00    -0.126 OA
ENDBRANCH   7   8
BRANCH   6  11
ATOM     11  O   UNL     1       0.051  -2.776   2.358  0.00  0.00    -0.484 OA
BRANCH  11  12
ATOM     12  C   UNL     1      -0.042  -4.199   2.277  0.00  0.00    +0.202 C 
ATOM     13  C   UNL     1      -1.522  -4.631   2.243  0.00  0.00    +0.047 C 
ATOM     14  C   UNL     1      -1.556  -5.937   3.076  0.00  0.00    +0.006 C 
ATOM     15  C   UNL     1      -0.552  -5.640   4.218  0.00  0.00    +0.035 C 
ATOM     16  C   UNL     1       0.576  -4.840   3.531  0.00  0.00    +0.155 C 
BRANCH  16  17
ATOM     17  O   UNL     1       1.642  -5.717   3.159  0.00  0.00    -0.388 OA
ATOM     18  H   UNL     1       2.073  -6.152   3.907  0.00  0.00    +0.210 HD
ENDBRANCH  16  17
ENDBRANCH  11  12
ENDBRANCH   6  11
TORSDOF 4
