REMARK  Name = ZINC05077279
REMARK  6 active torsions:
REMARK  status: ('A' for Active; 'I' for Inactive)
REMARK    1  A    between atoms: C_1  and  C_2
REMARK    2  A    between atoms: C_2  and  C_20
REMARK    3  A    between atoms: N_5  and  C_9
REMARK    4  A    between atoms: C_9  and  C_10
REMARK    5  A    between atoms: N_12  and  C_13
REMARK    6  A    between atoms: C_13  and  C_14
REMARK                            x       y       z     vdW  Elec       q    Type
REMARK                         _______ _______ _______ _____ _____    ______ ____
ROOT
ATOM      1  C   UNL     1       2.017   1.935  -1.263  0.00  0.00    +0.047 C 
ATOM      2  C   UNL     1       1.181   2.140   0.002  0.00  0.00    +0.135 C 
ATOM      3  C   UNL     1      -0.014   1.208   0.009  0.00  0.00    +0.251 C 
ATOM      4  O   UNL     1       0.002  -0.004   0.002  0.00  0.00    -0.272 OA
ATOM      5  N   UNL     1      -1.099   2.007   0.017  0.00  0.00    -0.215 N 
ATOM      6  C   UNL     1      -0.759   3.301   0.026  0.00  0.00    +0.310 C 
ATOM      7  O   UNL     1      -1.564   4.212   0.038  0.00  0.00    -0.252 OA
ATOM      8  N   UNL     1       0.574   3.482   0.015  0.00  0.00    -0.281 N 
ATOM      9  H   UNL     1       1.044   4.331   0.015  0.00  0.00    +0.152 HD
ENDROOT
BRANCH   2  10
ATOM     10  C   UNL     1       2.025   1.928   1.233  0.00  0.00    -0.012 A 
ATOM     11  C   UNL     1       2.076   0.682   1.828  0.00  0.00    +0.010 A 
ATOM     12  C   UNL     1       2.849   0.484   2.957  0.00  0.00    +0.050 A 
ATOM     13  C   UNL     1       3.575   1.536   3.496  0.00  0.00    +0.162 A 
ATOM     14  C   UNL     1       3.524   2.789   2.896  0.00  0.00    +0.162 A 
ATOM     15  C   UNL     1       2.751   2.979   1.761  0.00  0.00    +0.055 A 
ATOM     16  O   UNL     1       4.232   3.834   3.406  0.00  0.00    -0.485 OA
ATOM     17  C   UNL     1       4.700   3.698   4.752  0.00  0.00    +0.270 C 
ATOM     18  C   UNL     1       5.330   2.306   4.903  0.00  0.00    +0.270 C 
ATOM     19  O   UNL     1       4.327   1.327   4.610  0.00  0.00    -0.485 OA
ENDBRANCH   2  10
BRANCH   5  20
ATOM     20  C   UNL     1      -2.481   1.520   0.020  0.00  0.00    +0.213 C 
BRANCH  20  21
ATOM     21  C   UNL     1      -2.949   1.345   1.442  0.00  0.00    +0.231 C 
ATOM     22  O   UNL     1      -2.202   1.602   2.362  0.00  0.00    -0.274 OA
ATOM     23  N   UNL     1      -4.197   0.902   1.690  0.00  0.00    -0.310 N 
ATOM     24  H   UNL     1      -4.795   0.697   0.954  0.00  0.00    +0.149 HD
BRANCH  23  25
ATOM     25  C   UNL     1      -4.653   0.732   3.072  0.00  0.00    +0.139 C 
BRANCH  25  26
ATOM     26  C   UNL     1      -6.074   0.230   3.075  0.00  0.00    -0.030 A 
ATOM     27  C   UNL     1      -7.124   1.129   3.090  0.00  0.00    +0.005 A 
ATOM     28  C   UNL     1      -8.428   0.669   3.088  0.00  0.00    +0.000 A 
ATOM     29  C   UNL     1      -8.681  -0.690   3.081  0.00  0.00    +0.000 A 
ATOM     30  C   UNL     1      -7.630  -1.589   3.071  0.00  0.00    +0.000 A 
ATOM     31  C   UNL     1      -6.327  -1.129   3.068  0.00  0.00    +0.005 A 
ENDBRANCH  25  26
ENDBRANCH  23  25
ENDBRANCH  20  21
ENDBRANCH   5  20
TORSDOF 5
