REMARK  Name = ZINC16988894
REMARK  10 active torsions:
REMARK  status: ('A' for Active; 'I' for Inactive)
REMARK    1  A    between atoms: C_1  and  C_2
REMARK    2  A    between atoms: C_2  and  C_4
REMARK    3  A    between atoms: C_2  and  S_14
REMARK    4  A    between atoms: N_9  and  C_10
REMARK    5  A    between atoms: C_10  and  C_11
REMARK    6  A    between atoms: C_10  and  C_12
REMARK    7  A    between atoms: C_10  and  C_13
REMARK    8  A    between atoms: S_14  and  C_15
REMARK    9  A    between atoms: C_18  and  C_21
REMARK   10  A    between atoms: N_19  and  N_20
REMARK                            x       y       z     vdW  Elec       q    Type
REMARK                         _______ _______ _______ _____ _____    ______ ____
ROOT
ATOM      1  S   UNL     1      -3.763   1.852   0.806  0.00  0.00    -0.072 S 
ENDROOT
BRANCH   1   2
ATOM      2  C   UNL     1      -5.119   0.729   0.734  0.00  0.00    +0.209 A 
ATOM      3  N   UNL     1      -5.095  -0.492   0.248  0.00  0.00    -0.121 NA
ATOM      4  N   UNL     1      -6.257  -1.031   0.352  0.00  0.00    -0.127 NA
ATOM      5  C   UNL     1      -7.094  -0.188   0.911  0.00  0.00    +0.183 A 
ATOM      6  N   UNL     1      -6.390   0.963   1.177  0.00  0.00    -0.224 N 
BRANCH   5   7
ATOM      7  C   UNL     1      -8.522  -0.432   1.204  0.00  0.00    +0.035 A 
ATOM      8  C   UNL     1      -9.482   0.519   0.855  0.00  0.00    +0.013 A 
ATOM      9  C   UNL     1     -10.813   0.285   1.131  0.00  0.00    +0.001 A 
ATOM     10  C   UNL     1     -11.198  -0.890   1.754  0.00  0.00    +0.001 A 
ATOM     11  C   UNL     1     -10.253  -1.837   2.103  0.00  0.00    +0.016 A 
ATOM     12  C   UNL     1      -8.918  -1.618   1.827  0.00  0.00    +0.029 A 
ATOM     13 BR   UNL     1      -7.627  -2.917   2.298  0.00  0.00    -0.050 Br
ENDBRANCH   5   7
BRANCH   6  14
ATOM     14  N   UNL     1      -6.863   2.104   1.761  0.00  0.00    -0.295 N 
ATOM     15  H   UNL     1      -7.299   2.706   1.078  0.00  0.00    +0.163 HD
ATOM     16  H   UNL     1      -7.501   1.888   2.512  0.00  0.00    +0.163 HD
ENDBRANCH   6  14
ENDBRANCH   1   2
BRANCH   1  18
ATOM     17  C   UNL     1      -2.827   0.554  -1.407  0.00  0.00    +0.029 C 
ATOM     18  C   UNL     1      -2.471   0.832   0.054  0.00  0.00    +0.137 C 
BRANCH  18  19
ATOM     19  C   UNL     1      -1.154   1.562   0.120  0.00  0.00    +0.234 C 
ATOM     20  O   UNL     1      -1.134   2.764   0.278  0.00  0.00    -0.274 OA
ATOM     21  N   UNL     1       0.002   0.878   0.004  0.00  0.00    -0.239 N 
ATOM     22  C   UNL     1       1.180   1.532   0.058  0.00  0.00    +0.306 C 
ATOM     23  O   UNL     1       1.200   2.736   0.216  0.00  0.00    -0.252 OA
ATOM     24  N   UNL     1       2.335   0.849  -0.064  0.00  0.00    -0.294 N 
ATOM     25  H   UNL     1      -0.014  -0.083  -0.122  0.00  0.00    +0.159 HD
ATOM     26  H   UNL     1       2.319  -0.113  -0.190  0.00  0.00    +0.151 HD
BRANCH  24  27
ATOM     27  C   UNL     1       3.615   1.559  -0.006  0.00  0.00    +0.028 C 
ATOM     28  C   UNL     1       3.745   2.267   1.344  0.00  0.00    +0.031 C 
ATOM     29  C   UNL     1       4.761   0.558  -0.169  0.00  0.00    +0.031 C 
ATOM     30  C   UNL     1       3.677   2.592  -1.132  0.00  0.00    +0.031 C 
ENDBRANCH  24  27
ENDBRANCH  18  19
ENDBRANCH   1  18
TORSDOF 6
