REMARK  Name = ZINC61712729
REMARK  6 active torsions:
REMARK  status: ('A' for Active; 'I' for Inactive)
REMARK    1  A    between atoms: C_3  and  N_20
REMARK    2  A    between atoms: C_4  and  N_17
REMARK    3  A    between atoms: C_6  and  S_7
REMARK    4  A    between atoms: S_7  and  N_10
REMARK    5  A    between atoms: C_13  and  O_16
REMARK    6  A    between atoms: N_20  and  N_21
REMARK                            x       y       z     vdW  Elec       q    Type
REMARK                         _______ _______ _______ _____ _____    ______ ____
ROOT
ATOM      1  C   UNL     1      -0.004   1.372  -0.204  0.00  0.00    +0.030 A 
ATOM      2  C   UNL     1       1.191   2.062  -0.266  0.00  0.00    +0.028 A 
ATOM      3  C   UNL     1       2.390   1.390  -0.067  0.00  0.00    +0.071 A 
ATOM      4  C   UNL     1       2.383   0.025   0.194  0.00  0.00    +0.150 A 
ATOM      5  C   UNL     1       1.185  -0.658   0.254  0.00  0.00    +0.063 A 
ATOM      6  C   UNL     1      -0.007   0.014   0.056  0.00  0.00    +0.108 A 
ENDROOT
BRANCH   6   7
ATOM      7  S   UNL     1      -1.534  -0.862   0.133  0.00  0.00    +0.061 S 
ATOM      8  O   UNL     1      -1.300  -2.015   0.929  0.00  0.00    -0.153 OA
ATOM      9  O   UNL     1      -2.535   0.095   0.454  0.00  0.00    -0.153 OA
BRANCH   7  10
ATOM     10  N   UNL     1      -1.867  -1.402  -1.396  0.00  0.00    -0.174 NA
ATOM     11  C   UNL     1      -2.629  -0.664  -2.421  0.00  0.00    +0.112 C 
ATOM     12  C   UNL     1      -2.147  -1.250  -3.771  0.00  0.00    +0.050 C 
ATOM     13  C   UNL     1      -1.962  -2.748  -3.413  0.00  0.00    +0.131 C 
ATOM     14  C   UNL     1      -1.447  -2.693  -1.960  0.00  0.00    +0.140 C 
BRANCH  13  15
ATOM     15  O   UNL     1      -3.208  -3.443  -3.491  0.00  0.00    -0.390 OA
ATOM     16  H   UNL     1      -3.607  -3.438  -4.372  0.00  0.00    +0.210 HD
ENDBRANCH  13  15
ENDBRANCH   7  10
ENDBRANCH   6   7
BRANCH   4  17
ATOM     17  N   UNL     1       3.659  -0.695   0.405  0.00  0.00    +0.058 N 
ATOM     18  O   UNL     1       3.797  -1.817  -0.023  0.00  0.00    -0.126 OA
ATOM     19  O   UNL     1       4.562  -0.162   1.007  0.00  0.00    -0.126 OA
ENDBRANCH   4  17
BRANCH   3  20
ATOM     20  N   UNL     1       3.601   2.084  -0.129  0.00  0.00    -0.281 N 
ATOM     21  H   UNL     1       4.440   1.602  -0.067  0.00  0.00    +0.166 HD
BRANCH  20  22
ATOM     22  N   UNL     1       3.602   3.442  -0.277  0.00  0.00    -0.256 NA
ATOM     23  H   UNL     1       4.545   3.802  -0.306  0.00  0.00    +0.140 HD
ATOM     24  H   UNL     1       3.085   3.717  -1.099  0.00  0.00    +0.140 HD
ENDBRANCH  20  22
ENDBRANCH   3  20
TORSDOF 6
