REMARK  Name = ZINC32124395
REMARK  7 active torsions:
REMARK  status: ('A' for Active; 'I' for Inactive)
REMARK    1  A    between atoms: C_1  and  C_2
REMARK    2  A    between atoms: C_2  and  O_3
REMARK    3  A    between atoms: O_3  and  C_4
REMARK    4  A    between atoms: N_6  and  C_7
REMARK    5  A    between atoms: C_14  and  C_17
REMARK    6  A    between atoms: N_15  and  C_16
REMARK    7  A    between atoms: C_17  and  N_18
REMARK                            x       y       z     vdW  Elec       q    Type
REMARK                         _______ _______ _______ _____ _____    ______ ____
ROOT
ATOM      1  C   UNL     1      -1.206   1.696   0.061  0.00  0.00    +0.039 A 
ATOM      2  C   UNL     1      -1.172   3.087  -0.010  0.00  0.00    +0.025 A 
ATOM      3  C   UNL     1      -2.339   3.817   0.036  0.00  0.00    +0.030 A 
ATOM      4  C   UNL     1      -3.558   3.165   0.165  0.00  0.00    +0.069 A 
ATOM      5  C   UNL     1      -3.602   1.763   0.243  0.00  0.00    +0.091 A 
ATOM      6  C   UNL     1      -2.411   1.033   0.190  0.00  0.00    +0.053 A 
ATOM      7  N   UNL     1      -4.908   1.413   0.363  0.00  0.00    -0.231 NA
ATOM      8  C   UNL     1      -5.649   2.482   0.363  0.00  0.00    +0.125 A 
ATOM      9  N   UNL     1      -4.871   3.591   0.244  0.00  0.00    -0.330 N 
ATOM     10  C   UNL     1      -5.337   4.979   0.205  0.00  0.00    +0.150 C 
ENDROOT
BRANCH   1  13
ATOM     11  C   UNL     1       0.018  -0.234  -0.606  0.00  0.00    +0.405 C 
ATOM     12  O   UNL     1      -1.007  -0.718  -1.043  0.00  0.00    -0.226 OA
ATOM     13  N   UNL     1      -0.011   0.966   0.007  0.00  0.00    -0.251 N 
ATOM     14  H   UNL     1       0.903   1.372   0.466  0.00  0.00    +0.158 HD
BRANCH  11  15
ATOM     15  O   UNL     1       1.184  -0.896  -0.734  0.00  0.00    -0.450 OA
BRANCH  15  17
ATOM     16  C   UNL     1       2.549  -2.780  -1.455  0.00  0.00    +0.048 C 
ATOM     17  C   UNL     1       1.141  -2.183  -1.405  0.00  0.00    +0.230 C 
ENDBRANCH  15  17
ENDBRANCH  11  15
ENDBRANCH   1  13
BRANCH   8  18
ATOM     18  C   UNL     1      -7.152   2.491   0.480  0.00  0.00    +0.158 C 
BRANCH  18  19
ATOM     19  N   UNL     1      -7.748   2.421  -0.861  0.00  0.00    -0.294 NA
ATOM     20  C   UNL     1      -9.193   2.189  -0.783  0.00  0.00    +0.090 C 
ATOM     21  C   UNL     1      -9.822   2.176  -2.168  0.00  0.00    +0.024 C 
ATOM     22  C   UNL     1      -9.133   1.145  -3.067  0.00  0.00    +0.017 C 
ATOM     23  C   UNL     1      -7.641   1.492  -3.109  0.00  0.00    +0.050 C 
ATOM     24  C   UNL     1      -7.088   1.390  -1.678  0.00  0.00    +0.094 C 
ATOM     25  C   UNL     1      -7.477   2.927  -3.558  0.00  0.00    +0.026 A 
ATOM     26  C   UNL     1      -6.329   3.253  -4.209  0.00  0.00    +0.022 A 
ATOM     27  C   UNL     1      -6.083   4.575  -4.598  0.00  0.00    +0.007 A 
ATOM     28  C   UNL     1      -7.002   5.534  -4.288  0.00  0.00    +0.070 A 
ATOM     29  C   UNL     1      -8.173   5.165  -3.611  0.00  0.00    +0.251 A 
ATOM     30  O   UNL     1      -8.973   6.024  -3.276  0.00  0.00    -0.268 OA
ATOM     31  N   UNL     1      -8.426   3.864  -3.327  0.00  0.00    -0.312 N 
ATOM     32  C   UNL     1      -9.764   3.543  -2.829  0.00  0.00    +0.130 C 
ENDBRANCH  18  19
ENDBRANCH   8  18
TORSDOF 5
