REMARK  Name = ZINC52860369
REMARK  4 active torsions:
REMARK  status: ('A' for Active; 'I' for Inactive)
REMARK    1  A    between atoms: C_3  and  N_19
REMARK    2  A    between atoms: C_4  and  O_8
REMARK    3  A    between atoms: O_8  and  C_9
REMARK    4  A    between atoms: C_14  and  C_15
REMARK                            x       y       z     vdW  Elec       q    Type
REMARK                         _______ _______ _______ _____ _____    ______ ____
ROOT
ATOM      1  C   UNL     1       3.711  -1.990  -0.219  0.00  0.00    +0.139 A 
ATOM      2  C   UNL     1       2.566  -2.758  -0.369  0.00  0.00    +0.048 A 
ATOM      3  C   UNL     1       2.633  -4.131  -0.248  0.00  0.00    +0.023 A 
ATOM      4  C   UNL     1       3.842  -4.753   0.023  0.00  0.00    +0.042 A 
ATOM      5  C   UNL     1       4.990  -4.003   0.175  0.00  0.00    +0.035 A 
ATOM      6  C   UNL     1       4.936  -2.614   0.050  0.00  0.00    +0.056 A 
ATOM      7 CL   UNL     1       3.912  -6.481   0.173  0.00  0.00    -0.084 Cl
ENDROOT
BRANCH   6   8
ATOM      8  C   UNL     1       6.162  -1.806   0.204  0.00  0.00    +0.098 C 
ATOM      9  N   UNL     1       6.208  -0.831   1.112  0.00  0.00    -0.387 N 
ATOM     10  N   UNL     1       7.224  -2.052  -0.563  0.00  0.00    -0.344 N 
ATOM     11  H   UNL     1       6.985  -0.253   1.164  0.00  0.00    +0.157 HD
ATOM     12  H   UNL     1       7.191  -2.762  -1.224  0.00  0.00    +0.144 HD
ATOM     13  H   UNL     1       8.029  -1.522  -0.461  0.00  0.00    +0.144 HD
ATOM     14  H   UNL     1       5.464  -0.700   1.720  0.00  0.00    +0.157 HD
ENDBRANCH   6   8
BRANCH   1  15
ATOM     15  O   UNL     1       3.646  -0.640  -0.337  0.00  0.00    -0.453 OA
BRANCH  15  19
ATOM     16  C   UNL     1       4.470   1.027  -4.022  0.00  0.00    +0.041 A 
ATOM     17  C   UNL     1       4.246   1.843  -2.929  0.00  0.00    +0.039 A 
ATOM     18  C   UNL     1       3.970   1.287  -1.695  0.00  0.00    +0.168 A 
ATOM     19  C   UNL     1       3.917  -0.092  -1.551  0.00  0.00    +0.161 A 
ATOM     20  C   UNL     1       4.141  -0.911  -2.648  0.00  0.00    +0.087 A 
ATOM     21  C   UNL     1       4.418  -0.350  -3.882  0.00  0.00    +0.127 A 
ATOM     22  F   UNL     1       4.636  -1.146  -4.952  0.00  0.00    -0.205 F 
BRANCH  18  23
ATOM     23  N   UNL     1       3.732   2.163  -0.525  0.00  0.00    +0.060 N 
ATOM     24  O   UNL     1       3.872   3.360  -0.627  0.00  0.00    -0.126 OA
ATOM     25  O   UNL     1       3.396   1.682   0.532  0.00  0.00    -0.126 OA
ENDBRANCH  18  23
ENDBRANCH  15  19
ENDBRANCH   1  15
TORSDOF 4
