REMARK  Name = ZINC00943099
REMARK  6 active torsions:
REMARK  status: ('A' for Active; 'I' for Inactive)
REMARK    1  A    between atoms: C_2  and  C_10
REMARK    2  A    between atoms: C_5  and  O_8
REMARK    3  A    between atoms: N_11  and  N_12
REMARK    4  A    between atoms: C_13  and  C_15
REMARK    5  A    between atoms: C_15  and  C_16
REMARK    6  A    between atoms: C_16  and  C_17
REMARK                            x       y       z     vdW  Elec       q    Type
REMARK                         _______ _______ _______ _____ _____    ______ ____
ROOT
ATOM      1  N   UNL     1       0.585  -0.664  -1.018  0.00  0.00    -0.207 N 
ATOM      2  C   UNL     1       0.002  -0.004   0.002  0.00  0.00    +0.233 C 
ATOM      3  O   UNL     1      -0.506  -0.623   0.913  0.00  0.00    -0.274 OA
ATOM      4  H   UNL     1       0.992  -0.170  -1.747  0.00  0.00    +0.177 HD
ENDROOT
BRANCH   1   6
ATOM      5  C   UNL     1       1.165  -2.701  -2.008  0.00  0.00    +0.138 C 
ATOM      6  N   UNL     1       0.604  -2.065  -1.026  0.00  0.00    -0.188 NA
BRANCH   5   8
ATOM      7  C   UNL     1       1.789  -4.862  -3.072  0.00  0.00    +0.028 A 
ATOM      8  C   UNL     1       1.185  -4.175  -2.016  0.00  0.00    -0.003 A 
ATOM      9  C   UNL     1       0.606  -4.890  -0.964  0.00  0.00    +0.028 A 
ATOM     10  C   UNL     1       0.623  -6.269  -0.978  0.00  0.00    +0.061 A 
ATOM     11  C   UNL     1       1.224  -6.947  -2.031  0.00  0.00    +0.145 A 
ATOM     12  C   UNL     1       1.806  -6.241  -3.076  0.00  0.00    +0.061 A 
ATOM     13 BR   UNL     1       2.623  -7.172  -4.505  0.00  0.00    -0.046 Br
ATOM     14 BR   UNL     1      -0.166  -7.237   0.442  0.00  0.00    -0.046 Br
BRANCH  11  15
ATOM     15  O   UNL     1       1.244  -8.306  -2.038  0.00  0.00    -0.505 OA
ATOM     16  H   UNL     1       2.018  -8.691  -1.605  0.00  0.00    +0.292 HD
ENDBRANCH  11  15
ENDBRANCH   5   8
ENDBRANCH   1   6
BRANCH   2  17
ATOM     17  C   UNL     1      -0.018   1.503   0.010  0.00  0.00    +0.104 C 
BRANCH  17  18
ATOM     18  C   UNL     1      -0.735   1.996   1.269  0.00  0.00    +0.072 C 
BRANCH  18  19
ATOM     19  C   UNL     1      -0.755   3.503   1.277  0.00  0.00    +0.126 A 
ATOM     20  C   UNL     1      -1.386   4.232   2.381  0.00  0.00    +0.276 A 
ATOM     21  O   UNL     1      -1.901   3.627   3.304  0.00  0.00    -0.266 OA
ATOM     22  N   UNL     1      -1.389   5.581   2.362  0.00  0.00    -0.272 N 
ATOM     23  H   UNL     1      -1.816   6.090   3.110  0.00  0.00    +0.174 HD
ATOM     24  C   UNL     1      -0.817   6.241   1.338  0.00  0.00    +0.343 A 
ATOM     25  O   UNL     1      -0.825   7.457   1.331  0.00  0.00    -0.245 OA
ATOM     26  N   UNL     1      -0.237   5.577   0.323  0.00  0.00    -0.228 N 
ATOM     27  H   UNL     1       0.178   6.089  -0.429  0.00  0.00    +0.194 HD
ATOM     28  N   UNL     1      -0.206   4.177   0.305  0.00  0.00    -0.169 NA
ENDBRANCH  18  19
ENDBRANCH  17  18
ENDBRANCH   2  17
TORSDOF 6
