REMARK  Name = ZINC11840799
REMARK  10 active torsions:
REMARK  status: ('A' for Active; 'I' for Inactive)
REMARK    1  A    between atoms: C_1  and  N_2
REMARK    2  A    between atoms: N_2  and  C_3
REMARK    3  A    between atoms: C_3  and  C_4
REMARK    4  A    between atoms: C_6  and  C_9
REMARK    5  A    between atoms: C_15  and  C_17
REMARK    6  A    between atoms: C_17  and  C_18
REMARK    7  A    between atoms: C_25  and  C_26
REMARK    8  A    between atoms: C_25  and  N_61
REMARK    9  A    between atoms: C_26  and  C_27
REMARK   10  A    between atoms: C_27  and  C_28
REMARK                            x       y       z     vdW  Elec       q    Type
REMARK                         _______ _______ _______ _____ _____    ______ ____
ROOT
ATOM      1  C   UNL     1       2.070   1.670  -1.272  0.00  0.00    +0.028 C 
ATOM      2  C   UNL     1       1.791   0.281  -1.774  0.00  0.00    +0.200 C 
ATOM      3  O   UNL     1       2.520  -0.188  -2.622  0.00  0.00    -0.278 OA
ATOM      4  N   UNL     1       0.772  -0.459  -1.324  0.00  0.00    -0.318 N 
ATOM      5  C   UNL     1      -0.141  -0.002  -0.281  0.00  0.00    +0.085 C 
ATOM      6  C   UNL     1      -0.049   1.518  -0.132  0.00  0.00    -0.059 C 
ATOM      7  H   UNL     1       0.633  -1.338  -1.709  0.00  0.00    +0.149 HD
ATOM      8  N   UNL     1       1.375   1.878   0.012  0.00  0.00    +0.389 N 
ATOM      9  H   UNL     1       1.803   1.277   0.727  0.00  0.00    -0.081 HD
ENDROOT
BRANCH   1  10
ATOM     10  C   UNL     1       3.575   1.837  -1.053  0.00  0.00    +0.090 C 
BRANCH  10  13
ATOM     11  C   UNL     1       6.261   1.867  -0.148  0.00  0.00    +0.132 C 
ATOM     12  N   UNL     1       5.316   0.917   0.444  0.00  0.00    -0.296 N 
ATOM     13  C   UNL     1       4.035   0.890   0.025  0.00  0.00    +0.215 C 
ATOM     14  O   UNL     1       3.253   0.104   0.515  0.00  0.00    -0.276 OA
BRANCH  12  15
ATOM     15  C   UNL     1       5.763  -0.004   1.492  0.00  0.00    +0.206 C 
BRANCH  15  16
ATOM     16  C   UNL     1       6.260  -1.279   0.862  0.00  0.00    +0.245 A 
ATOM     17  N   UNL     1       7.487  -1.531   0.480  0.00  0.00    -0.190 NA
ATOM     18  C   UNL     1       7.461  -2.786  -0.023  0.00  0.00    +0.204 A 
ATOM     19  N   UNL     1       6.231  -3.218   0.082  0.00  0.00    -0.056 NA
ATOM     20  O   UNL     1       5.533  -2.368   0.593  0.00  0.00    -0.336 OA
BRANCH  18  21
ATOM     21  C   UNL     1       8.612  -3.533  -0.589  0.00  0.00    +0.041 A 
ATOM     22  C   UNL     1       8.445  -4.832  -1.077  0.00  0.00    +0.014 A 
ATOM     23  C   UNL     1       9.550  -5.486  -1.594  0.00  0.00    +0.020 A 
ATOM     24  C   UNL     1      10.772  -4.839  -1.611  0.00  0.00    +0.111 A 
ATOM     25  N   UNL     1      10.899  -3.613  -1.142  0.00  0.00    -0.263 NA
ATOM     26  C   UNL     1       9.875  -2.949  -0.646  0.00  0.00    +0.122 A 
ENDBRANCH  18  21
ENDBRANCH  15  16
ENDBRANCH  12  15
ENDBRANCH  10  13
ENDBRANCH   1  10
BRANCH   8  27
ATOM     27  C   UNL     1       1.502   3.292   0.434  0.00  0.00    -0.077 C 
BRANCH  27  28
ATOM     28  C   UNL     1       1.181   3.394   1.926  0.00  0.00    -0.014 C 
BRANCH  28  29
ATOM     29  C   UNL     1       1.322   4.848   2.380  0.00  0.00    +0.033 C 
BRANCH  29  30
ATOM     30  C   UNL     1       1.006   4.949   3.850  0.00  0.00    -0.047 A 
ATOM     31  C   UNL     1      -0.291   5.194   4.263  0.00  0.00    +0.003 A 
ATOM     32  C   UNL     1      -0.582   5.281   5.611  0.00  0.00    +0.000 A 
ATOM     33  C   UNL     1       0.426   5.134   6.547  0.00  0.00    +0.000 A 
ATOM     34  C   UNL     1       1.723   4.895   6.133  0.00  0.00    +0.000 A 
ATOM     35  C   UNL     1       2.013   4.802   4.785  0.00  0.00    +0.003 A 
ENDBRANCH  29  30
ENDBRANCH  28  29
ENDBRANCH  27  28
ENDBRANCH   8  27
TORSDOF 9
