REMARK  Name = ZINC61592380
REMARK  5 active torsions:
REMARK  status: ('A' for Active; 'I' for Inactive)
REMARK    1  A    between atoms: C_1  and  N_2
REMARK    2  A    between atoms: C_8  and  S_9
REMARK    3  A    between atoms: S_9  and  C_10
REMARK    4  A    between atoms: C_10  and  C_11
REMARK    5  A    between atoms: C_16  and  N_21
REMARK                            x       y       z     vdW  Elec       q    Type
REMARK                         _______ _______ _______ _____ _____    ______ ____
ROOT
ATOM      1  C   UNL     1       0.072  -1.470   5.223  0.00  0.00    +0.118 A 
ATOM      2  N   UNL     1       1.193  -1.278   5.973  0.00  0.00    -0.341 N 
ATOM      3  H   UNL     1       2.110  -1.330   5.660  0.00  0.00    +0.167 HD
ATOM      4  C   UNL     1       0.783  -0.996   7.260  0.00  0.00    +0.068 A 
ATOM      5  C   UNL     1       1.448  -0.716   8.446  0.00  0.00    +0.050 A 
ATOM      6  C   UNL     1       0.720  -0.471   9.598  0.00  0.00    +0.027 A 
ATOM      7  C   UNL     1      -0.673  -0.506   9.570  0.00  0.00    +0.025 A 
ATOM      8  C   UNL     1      -1.338  -0.781   8.411  0.00  0.00    +0.031 A 
ATOM      9  C   UNL     1      -0.622  -1.030   7.237  0.00  0.00    +0.089 A 
ATOM     10  N   UNL     1      -0.989  -1.319   5.961  0.00  0.00    -0.232 NA
ENDROOT
BRANCH   6  11
ATOM     11  N   UNL     1       1.386  -0.189  10.795  0.00  0.00    -0.358 N 
ATOM     12  H   UNL     1       2.355  -0.164  10.817  0.00  0.00    +0.142 HD
ATOM     13  H   UNL     1       0.878  -0.017  11.603  0.00  0.00    +0.142 HD
ENDBRANCH   6  11
BRANCH   1  14
ATOM     14  C   UNL     1       0.062  -1.801   3.753  0.00  0.00    +0.151 C 
BRANCH  14  15
ATOM     15  S   UNL     1       0.033  -0.266   2.788  0.00  0.00    -0.078 S 
BRANCH  15  23
ATOM     16  C   UNL     1      -0.018   1.461   0.010  0.00  0.00    +0.156 C 
ATOM     17  N   UNL     1       0.002  -0.004   0.002  0.00  0.00    -0.274 N 
ATOM     18  C   UNL     1       0.008  -0.787  -1.095  0.00  0.00    +0.345 A 
ATOM     19  O   UNL     1      -0.001  -0.405  -2.252  0.00  0.00    -0.245 OA
ATOM     20  N   UNL     1       0.027  -2.070  -0.680  0.00  0.00    -0.226 N 
ATOM     21  H   UNL     1       0.036  -2.857  -1.246  0.00  0.00    +0.194 HD
ATOM     22  N   UNL     1       0.033  -2.057   0.722  0.00  0.00    -0.145 NA
ATOM     23  C   UNL     1       0.024  -0.816   1.114  0.00  0.00    +0.192 A 
ENDBRANCH  15  23
ENDBRANCH  14  15
ENDBRANCH   1  14
TORSDOF 4
