REMARK  Name = ZINC59293603
REMARK  7 active torsions:
REMARK  status: ('A' for Active; 'I' for Inactive)
REMARK    1  A    between atoms: C_1  and  C_2
REMARK    2  A    between atoms: C_5  and  C_8
REMARK    3  A    between atoms: C_10  and  C_29
REMARK    4  A    between atoms: C_22  and  N_28
REMARK    5  A    between atoms: C_23  and  C_24
REMARK    6  A    between atoms: C_24  and  O_26
REMARK    7  A    between atoms: O_26  and  C_27
REMARK                            x       y       z     vdW  Elec       q    Type
REMARK                         _______ _______ _______ _____ _____    ______ ____
ROOT
ATOM      1  C   UNL     1       0.313  -4.582  -0.034  0.00  0.00    +0.102 C 
ATOM      2  C   UNL     1       1.385  -4.956   0.960  0.00  0.00    +0.070 C 
ATOM      3  C   UNL     1       1.107  -4.944   2.288  0.00  0.00    +0.095 C 
ATOM      4  N   UNL     1      -0.170  -4.664   2.744  0.00  0.00    -0.216 N 
ATOM      5  C   UNL     1      -0.404  -4.202   3.976  0.00  0.00    +0.258 C 
ATOM      6  O   UNL     1      -1.563  -4.119   4.335  0.00  0.00    -0.269 OA
ATOM      7  C   UNL     1       0.631  -3.789   4.927  0.00  0.00    +0.051 A 
ATOM      8  C   UNL     1       0.305  -2.936   5.989  0.00  0.00    +0.014 A 
ATOM      9  C   UNL     1       1.279  -2.539   6.877  0.00  0.00    +0.001 A 
ATOM     10  C   UNL     1       2.588  -2.973   6.733  0.00  0.00    +0.001 A 
ATOM     11  C   UNL     1       2.930  -3.817   5.695  0.00  0.00    +0.016 A 
ATOM     12  C   UNL     1       1.959  -4.231   4.798  0.00  0.00    +0.026 A 
ATOM     13  S   UNL     1       2.360  -5.328   3.473  0.00  0.00    -0.072 S 
ATOM     14  C   UNL     1      -1.235  -4.909   1.891  0.00  0.00    +0.106 C 
ATOM     15  C   UNL     1      -1.043  -4.895   0.542  0.00  0.00    +0.085 C 
ENDROOT
BRANCH   1  20
ATOM     16  C   UNL     1       0.651   1.069  -1.192  0.00  0.00    +0.044 C 
ATOM     17  C   UNL     1       0.563  -0.405  -0.890  0.00  0.00    -0.050 A 
ATOM     18  C   UNL     1       0.715  -1.329  -1.907  0.00  0.00    +0.003 A 
ATOM     19  C   UNL     1       0.635  -2.681  -1.630  0.00  0.00    +0.005 A 
ATOM     20  C   UNL     1       0.402  -3.108  -0.336  0.00  0.00    -0.035 A 
ATOM     21  C   UNL     1       0.251  -2.184   0.681  0.00  0.00    +0.005 A 
ATOM     22  C   UNL     1       0.336  -0.832   0.404  0.00  0.00    +0.003 A 
ENDBRANCH   1  20
BRANCH  14  23
ATOM     23  N   UNL     1      -2.480  -5.166   2.404  0.00  0.00    -0.345 N 
ATOM     24  H   UNL     1      -3.266  -4.786   1.981  0.00  0.00    +0.143 HD
ATOM     25  H   UNL     1      -2.574  -5.726   3.190  0.00  0.00    +0.143 HD
ENDBRANCH  14  23
BRANCH  15  26
ATOM     26  C   UNL     1      -2.117  -5.173  -0.316  0.00  0.00    +0.339 C 
ATOM     27  O   UNL     1      -3.185  -5.538   0.143  0.00  0.00    -0.245 OA
BRANCH  26  28
ATOM     28  O   UNL     1      -1.967  -5.035  -1.651  0.00  0.00    -0.465 OA
ATOM     29  C   UNL     1      -3.103  -5.336  -2.466  0.00  0.00    +0.280 C 
ENDBRANCH  26  28
ENDBRANCH  15  26
BRANCH   2  30
ATOM     30  C   UNL     1       2.691  -5.324   0.503  0.00  0.00    +0.098 C 
ATOM     31  N   UNL     1       3.728  -5.616   0.141  0.00  0.00    -0.191 NA
ENDBRANCH   2  30
TORSDOF 5
