REMARK  Name = ZINC35176517
REMARK  10 active torsions:
REMARK  status: ('A' for Active; 'I' for Inactive)
REMARK    1  A    between atoms: C_1  and  C_2
REMARK    2  A    between atoms: C_5  and  C_11
REMARK    3  A    between atoms: N_8  and  C_10
REMARK    4  A    between atoms: N_13  and  C_14
REMARK    5  A    between atoms: C_14  and  C_16
REMARK    6  A    between atoms: C_14  and  C_19
REMARK    7  A    between atoms: C_16  and  C_17
REMARK    8  A    between atoms: C_16  and  C_18
REMARK    9  A    between atoms: C_19  and  O_21
REMARK   10  A    between atoms: O_21  and  C_22
REMARK                            x       y       z     vdW  Elec       q    Type
REMARK                         _______ _______ _______ _____ _____    ______ ____
ROOT
ATOM      1  C   UNL     1       0.005  -1.888  -4.818  0.00  0.00    +0.251 C 
ATOM      2  O   UNL     1      -0.012  -0.871  -5.487  0.00  0.00    -0.270 OA
ATOM      3  N   UNL     1       0.019  -3.092  -5.423  0.00  0.00    -0.298 N 
ATOM      4  H   UNL     1       0.033  -3.902  -4.890  0.00  0.00    +0.150 HD
ENDROOT
BRANCH   1   9
ATOM      5  C   UNL     1      -0.018   1.503   0.010  0.00  0.00    +0.068 C 
ATOM      6  C   UNL     1       0.002  -0.004   0.002  0.00  0.00    +0.068 A 
ATOM      7  C   UNL     1       0.008  -0.829  -1.170  0.00  0.00    +0.031 A 
ATOM      8  C   UNL     1      -0.000  -0.690  -2.567  0.00  0.00    +0.032 A 
ATOM      9  C   UNL     1       0.011  -1.802  -3.355  0.00  0.00    +0.076 A 
ATOM     10  S   UNL     1       0.035  -3.128  -2.161  0.00  0.00    -0.064 S 
ATOM     11  C   UNL     1       0.028  -2.145  -0.684  0.00  0.00    +0.107 A 
ATOM     12  N   UNL     1       0.033  -2.107   0.662  0.00  0.00    -0.260 N 
ATOM     13  N   UNL     1       0.023  -0.763   1.056  0.00  0.00    -0.175 NA
ATOM     14  C   UNL     1       0.053  -3.267   1.556  0.00  0.00    +0.173 C 
ENDBRANCH   1   9
BRANCH   3  15
ATOM     15  C   UNL     1       0.013  -3.178  -6.886  0.00  0.00    +0.185 C 
BRANCH  15  16
ATOM     16  C   UNL     1       1.446  -3.062  -7.409  0.00  0.00    +0.014 C 
ATOM     17  C   UNL     1       2.260  -4.268  -6.936  0.00  0.00    +0.009 C 
ATOM     18  C   UNL     1       1.429  -3.026  -8.938  0.00  0.00    +0.009 C 
ENDBRANCH  15  16
BRANCH  15  19
ATOM     19  C   UNL     1      -0.571  -4.500  -7.309  0.00  0.00    +0.328 C 
ATOM     20  O   UNL     1      -0.945  -5.291  -6.475  0.00  0.00    -0.249 OA
BRANCH  19  21
ATOM     21  O   UNL     1      -0.677  -4.801  -8.613  0.00  0.00    -0.467 OA
ATOM     22  C   UNL     1      -1.241  -6.072  -8.942  0.00  0.00    +0.280 C 
ENDBRANCH  19  21
ENDBRANCH  15  19
ENDBRANCH   3  15
TORSDOF 5
