REMARK  Name = ZINC14360137
REMARK  8 active torsions:
REMARK  status: ('A' for Active; 'I' for Inactive)
REMARK    1  A    between atoms: C_1  and  C_2
REMARK    2  A    between atoms: C_4  and  C_33
REMARK    3  A    between atoms: N_9  and  N_10
REMARK    4  A    between atoms: C_11  and  C_13
REMARK    5  A    between atoms: C_17  and  S_19
REMARK    6  A    between atoms: S_19  and  N_22
REMARK    7  A    between atoms: N_22  and  C_23
REMARK    8  A    between atoms: C_30  and  O_32
REMARK                            x       y       z     vdW  Elec       q    Type
REMARK                         _______ _______ _______ _____ _____    ______ ____
ROOT
ATOM      1  N   UNL     1       0.141  -1.760   4.034  0.00  0.00    -0.202 N 
ATOM      2  C   UNL     1       0.246  -1.587   5.366  0.00  0.00    +0.263 C 
ATOM      3  O   UNL     1       0.263  -2.552   6.105  0.00  0.00    -0.268 OA
ATOM      4  H   UNL     1       0.128  -0.989   3.444  0.00  0.00    +0.178 HD
ENDROOT
BRANCH   1  13
ATOM      5  C   UNL     1       0.991   1.416   0.024  0.00  0.00    +0.044 C 
ATOM      6  C   UNL     1       0.712  -0.065   0.012  0.00  0.00    -0.049 A 
ATOM      7  C   UNL     1       0.621  -0.741  -1.195  0.00  0.00    +0.008 A 
ATOM      8  C   UNL     1       0.367  -2.095  -1.228  0.00  0.00    -0.024 A 
ATOM      9  C   UNL     1       0.197  -2.804  -0.034  0.00  0.00    +0.080 A 
ATOM     10  C   UNL     1       0.290  -2.108   1.188  0.00  0.00    +0.033 A 
ATOM     11  C   UNL     1       0.552  -0.746   1.203  0.00  0.00    +0.015 A 
ATOM     12  C   UNL     1       0.066  -3.124   2.241  0.00  0.00    +0.152 C 
ATOM     13  N   UNL     1       0.058  -2.949   3.542  0.00  0.00    -0.174 NA
ATOM     14  C   UNL     1      -0.147  -4.379   1.493  0.00  0.00    +0.241 C 
ATOM     15  N   UNL     1      -0.058  -4.115   0.216  0.00  0.00    -0.211 NA
ATOM     16  C   UNL     1       0.273  -2.811  -2.550  0.00  0.00    +0.046 C 
BRANCH  14  17
ATOM     17  O   UNL     1      -0.393  -5.595   2.037  0.00  0.00    -0.491 OA
ATOM     18  H   UNL     1      -0.506  -6.301   1.386  0.00  0.00    +0.294 HD
ENDBRANCH  14  17
ENDBRANCH   1  13
BRANCH   2  19
ATOM     19  C   UNL     1       0.341  -0.224   5.929  0.00  0.00    +0.040 A 
ATOM     20  C   UNL     1       0.316   0.887   5.084  0.00  0.00    +0.013 A 
ATOM     21  C   UNL     1       0.405   2.156   5.616  0.00  0.00    +0.003 A 
ATOM     22  C   UNL     1       0.517   2.330   6.984  0.00  0.00    +0.029 A 
ATOM     23  C   UNL     1       0.543   1.234   7.827  0.00  0.00    +0.111 A 
ATOM     24  C   UNL     1       0.449  -0.042   7.309  0.00  0.00    +0.042 A 
BRANCH  23  25
ATOM     25  S   UNL     1       0.688   1.466   9.568  0.00  0.00    +0.092 S 
ATOM     26  O   UNL     1       1.237   0.266  10.094  0.00  0.00    -0.148 OA
ATOM     27  O   UNL     1       1.303   2.733   9.758  0.00  0.00    -0.148 OA
BRANCH  25  28
ATOM     28  N   UNL     1      -0.848   1.590  10.175  0.00  0.00    -0.096 NA
BRANCH  28  29
ATOM     29  C   UNL     1      -1.044   1.781  11.545  0.00  0.00    +0.093 A 
ATOM     30  C   UNL     1       0.048   1.874  12.399  0.00  0.00    +0.028 A 
ATOM     31  C   UNL     1      -0.150   2.064  13.752  0.00  0.00    +0.002 A 
ATOM     32  C   UNL     1      -1.433   2.161  14.259  0.00  0.00    +0.002 A 
ATOM     33  C   UNL     1      -2.523   2.069  13.413  0.00  0.00    +0.022 A 
ATOM     34  C   UNL     1      -2.332   1.885  12.057  0.00  0.00    +0.065 A 
ATOM     35 CL   UNL     1      -3.701   1.776  10.994  0.00  0.00    -0.082 Cl
ENDBRANCH  28  29
ENDBRANCH  25  28
ENDBRANCH  23  25
ENDBRANCH   2  19
TORSDOF 6
