REMARK  Name = ZINC09508701
REMARK  6 active torsions:
REMARK  status: ('A' for Active; 'I' for Inactive)
REMARK    1  A    between atoms: C_4  and  S_7
REMARK    2  A    between atoms: S_7  and  N_10
REMARK    3  A    between atoms: N_10  and  C_11
REMARK    4  A    between atoms: C_20  and  N_51
REMARK    5  A    between atoms: C_22  and  C_23
REMARK    6  A    between atoms: C_22  and  N_51
REMARK                            x       y       z     vdW  Elec       q    Type
REMARK                         _______ _______ _______ _____ _____    ______ ____
ROOT
ATOM      1  C   UNL     1       7.767   2.740  -3.260  0.00  0.00    +0.071 C 
ATOM      2  C   UNL     1       8.946   3.733  -3.332  0.00  0.00    +0.054 C 
ATOM      3  C   UNL     1       8.699   4.723  -2.213  0.00  0.00    -0.044 A 
ATOM      4  C   UNL     1       9.231   5.982  -1.996  0.00  0.00    +0.004 A 
ATOM      5  C   UNL     1       8.851   6.716  -0.889  0.00  0.00    +0.000 A 
ATOM      6  C   UNL     1       7.937   6.191   0.006  0.00  0.00    +0.000 A 
ATOM      7  C   UNL     1       7.406   4.935  -0.209  0.00  0.00    +0.002 A 
ATOM      8  C   UNL     1       7.785   4.198  -1.319  0.00  0.00    -0.057 A 
ATOM      9  C   UNL     1       7.356   2.820  -1.775  0.00  0.00    -0.021 C 
ENDROOT
BRANCH   9  10
ATOM     10  N   UNL     1       5.894   2.671  -1.648  0.00  0.00    +0.387 N 
ATOM     11  H   UNL     1       5.563   1.978  -2.330  0.00  0.00    -0.084 HD
ATOM     12  H   UNL     1       5.443   3.575  -1.832  0.00  0.00    -0.084 HD
BRANCH  10  13
ATOM     13  C   UNL     1       5.541   2.220  -0.288  0.00  0.00    -0.046 C 
BRANCH  13  14
ATOM     14  C   UNL     1       4.044   2.076  -0.188  0.00  0.00    -0.061 A 
ATOM     15  C   UNL     1       3.274   3.151   0.214  0.00  0.00    +0.005 A 
ATOM     16  C   UNL     1       1.900   3.024   0.308  0.00  0.00    +0.050 A 
ATOM     17  C   UNL     1       1.293   1.818  -0.001  0.00  0.00    +0.166 A 
ATOM     18  C   UNL     1       2.069   0.735  -0.406  0.00  0.00    +0.166 A 
ATOM     19  C   UNL     1       3.445   0.870  -0.498  0.00  0.00    +0.051 A 
ATOM     20  O   UNL     1       1.245  -0.326  -0.649  0.00  0.00    -0.453 OA
ATOM     21  C   UNL     1       0.002  -0.004   0.002  0.00  0.00    +0.466 C 
ATOM     22  O   UNL     1      -0.018   1.436   0.010  0.00  0.00    -0.453 OA
ENDBRANCH  13  14
ENDBRANCH  10  13
ENDBRANCH   9  10
BRANCH   1  23
ATOM     23  N   UNL     1       6.669   3.172  -4.129  0.00  0.00    -0.188 NA
ATOM     24  H   UNL     1       6.075   3.884  -3.842  0.00  0.00    +0.148 HD
BRANCH  23  25
ATOM     25  S   UNL     1       6.441   2.445  -5.599  0.00  0.00    +0.059 S 
ATOM     26  O   UNL     1       5.299   3.057  -6.182  0.00  0.00    -0.153 OA
ATOM     27  O   UNL     1       7.708   2.426  -6.244  0.00  0.00    -0.153 OA
BRANCH  25  31
ATOM     28  C   UNL     1       5.331  -1.870  -4.803  0.00  0.00    +0.000 A 
ATOM     29  C   UNL     1       4.343  -0.908  -4.894  0.00  0.00    +0.002 A 
ATOM     30  C   UNL     1       4.682   0.410  -5.138  0.00  0.00    +0.028 A 
ATOM     31  C   UNL     1       6.009   0.765  -5.289  0.00  0.00    +0.105 A 
ATOM     32  C   UNL     1       6.997  -0.198  -5.202  0.00  0.00    +0.028 A 
ATOM     33  C   UNL     1       6.658  -1.515  -4.955  0.00  0.00    +0.002 A 
ENDBRANCH  25  31
ENDBRANCH  23  25
ENDBRANCH   1  23
TORSDOF 6
