REMARK  Name = ZINC41863594
REMARK  8 active torsions:
REMARK  status: ('A' for Active; 'I' for Inactive)
REMARK    1  A    between atoms: C_1  and  C_2
REMARK    2  A    between atoms: C_3  and  C_28
REMARK    3  A    between atoms: C_11  and  C_13
REMARK    4  A    between atoms: C_13  and  C_15
REMARK    5  A    between atoms: C_13  and  N_16
REMARK    6  A    between atoms: N_16  and  C_17
REMARK    7  A    between atoms: C_22  and  C_27
REMARK    8  A    between atoms: C_24  and  C_26
REMARK                            x       y       z     vdW  Elec       q    Type
REMARK                         _______ _______ _______ _____ _____    ______ ____
ROOT
ATOM      1  C   UNL     1      -0.018   1.503   0.010  0.00  0.00    +0.045 C 
ATOM      2  C   UNL     1       0.002  -0.004   0.002  0.00  0.00    -0.026 A 
ATOM      3  C   UNL     1       0.006  -0.677  -1.160  0.00  0.00    -0.008 A 
ATOM      4  S   UNL     1       0.032  -2.385  -0.648  0.00  0.00    -0.073 S 
ATOM      5  C   UNL     1       0.037  -2.144   1.110  0.00  0.00    +0.116 A 
ATOM      6  C   UNL     1       0.024  -0.745   1.250  0.00  0.00    +0.075 A 
ATOM      7  C   UNL     1       0.029  -0.257   2.597  0.00  0.00    +0.260 A 
ATOM      8  O   UNL     1       0.014   0.942   2.821  0.00  0.00    -0.267 OA
ATOM      9  N   UNL     1       0.051  -1.142   3.611  0.00  0.00    -0.312 N 
ATOM     10  H   UNL     1       0.054  -0.817   4.525  0.00  0.00    +0.170 HD
ATOM     11  C   UNL     1       0.067  -2.480   3.380  0.00  0.00    +0.097 A 
ATOM     12  N   UNL     1       0.053  -2.956   2.163  0.00  0.00    -0.228 NA
ATOM     13  C   UNL     1      -0.009  -0.122  -2.561  0.00  0.00    +0.052 C 
ENDROOT
BRANCH  11  14
ATOM     14  C   UNL     1       0.090  -3.432   4.547  0.00  0.00    -0.007 C 
ATOM     15  C   UNL     1      -1.088  -3.129   5.476  0.00  0.00    -0.006 C 
BRANCH  14  16
ATOM     16  N   UNL     1      -0.016  -4.812   4.056  0.00  0.00    +0.387 N 
ATOM     17  H   UNL     1      -0.917  -4.946   3.620  0.00  0.00    -0.084 HD
ATOM     18  H   UNL     1       0.713  -4.986   3.380  0.00  0.00    -0.084 HD
BRANCH  16  19
ATOM     19  C   UNL     1       0.126  -5.745   5.181  0.00  0.00    -0.068 C 
ATOM     20  C   UNL     1       1.537  -5.631   5.763  0.00  0.00    -0.015 C 
ATOM     21  C   UNL     1       1.685  -6.603   6.935  0.00  0.00    -0.001 C 
ATOM     22  C   UNL     1       1.451  -8.033   6.445  0.00  0.00    +0.003 C 
ATOM     23  C   UNL     1       0.041  -8.148   5.863  0.00  0.00    -0.013 C 
ATOM     24  C   UNL     1      -0.108  -7.176   4.691  0.00  0.00    -0.025 C 
ATOM     25  C   UNL     1       0.919  -7.519   3.610  0.00  0.00    +0.006 C 
ATOM     26  C   UNL     1      -0.194  -9.578   5.373  0.00  0.00    +0.008 C 
ENDBRANCH  16  19
ENDBRANCH  14  16
ENDBRANCH  11  14
TORSDOF 3
