REMARK  Name = ZINC41627512
REMARK  9 active torsions:
REMARK  status: ('A' for Active; 'I' for Inactive)
REMARK    1  A    between atoms: C_1  and  C_2
REMARK    2  A    between atoms: C_2  and  C_3
REMARK    3  A    between atoms: C_3  and  C_4
REMARK    4  A    between atoms: C_10  and  S_12
REMARK    5  A    between atoms: S_12  and  C_13
REMARK    6  A    between atoms: C_13  and  C_15
REMARK    7  A    between atoms: C_13  and  C_16
REMARK    8  A    between atoms: N_18  and  C_19
REMARK    9  A    between atoms: C_22  and  O_25
REMARK                            x       y       z     vdW  Elec       q    Type
REMARK                         _______ _______ _______ _____ _____    ______ ____
ROOT
ATOM      1  C   UNL     1      -1.074  -3.479  -3.945  0.00  0.00    +0.137 C 
ATOM      2  C   UNL     1       0.203  -2.668  -3.716  0.00  0.00    +0.029 C 
ENDROOT
BRANCH   1   3
ATOM      3  C   UNL     1      -1.067  -4.044  -5.342  0.00  0.00    +0.230 C 
ATOM      4  O   UNL     1      -0.748  -5.200  -5.527  0.00  0.00    -0.274 OA
ATOM      5  N   UNL     1      -1.415  -3.265  -6.385  0.00  0.00    -0.285 N 
ATOM      6  H   UNL     1      -1.735  -2.362  -6.231  0.00  0.00    +0.155 HD
BRANCH   5   7
ATOM      7  C   UNL     1      -1.316  -3.760  -7.692  0.00  0.00    +0.034 A 
ATOM      8  C   UNL     1      -0.947  -2.913  -8.729  0.00  0.00    +0.027 A 
ATOM      9  C   UNL     1      -0.849  -3.402 -10.017  0.00  0.00    +0.047 A 
ATOM     10  C   UNL     1      -1.120  -4.737 -10.275  0.00  0.00    +0.117 A 
ATOM     11  C   UNL     1      -1.489  -5.584  -9.240  0.00  0.00    +0.047 A 
ATOM     12  C   UNL     1      -1.582  -5.098  -7.950  0.00  0.00    +0.027 A 
BRANCH  10  13
ATOM     13  O   UNL     1      -1.023  -5.217 -11.544  0.00  0.00    -0.507 OA
ATOM     14  H   UNL     1      -0.146  -5.556 -11.771  0.00  0.00    +0.292 HD
ENDBRANCH  10  13
ENDBRANCH   5   7
ENDBRANCH   1   3
BRANCH   1  15
ATOM     15  S   UNL     1      -1.151  -4.837  -2.744  0.00  0.00    -0.075 S 
BRANCH  15  22
ATOM     16  C   UNL     1      -1.442  -2.051   0.006  0.00  0.00    +0.049 A 
ATOM     17  C   UNL     1      -1.529  -2.742   1.180  0.00  0.00    +0.093 A 
ATOM     18  C   UNL     1      -1.499  -4.147   1.146  0.00  0.00    +0.252 A 
ATOM     19  O   UNL     1      -1.576  -4.796   2.176  0.00  0.00    -0.268 OA
ATOM     20  N   UNL     1      -1.385  -4.765  -0.050  0.00  0.00    -0.302 N 
ATOM     21  H   UNL     1      -1.363  -5.733  -0.097  0.00  0.00    +0.171 HD
ATOM     22  C   UNL     1      -1.301  -4.023  -1.189  0.00  0.00    +0.170 A 
ATOM     23  N   UNL     1      -1.335  -2.705  -1.147  0.00  0.00    -0.228 NA
BRANCH  16  24
ATOM     24  C   UNL     1      -1.472  -0.544   0.017  0.00  0.00    +0.055 C 
BRANCH  24  26
ATOM     25  C   UNL     1      -0.071   1.525   0.022  0.00  0.00    +0.004 C 
ATOM     26  C   UNL     1      -0.040  -0.005   0.012  0.00  0.00    +0.003 C 
ENDBRANCH  24  26
ENDBRANCH  16  24
ENDBRANCH  15  22
ENDBRANCH   1  15
TORSDOF 7
