REMARK  Name = ZINC39684241
REMARK  8 active torsions:
REMARK  status: ('A' for Active; 'I' for Inactive)
REMARK    1  A    between atoms: C_1  and  C_2
REMARK    2  A    between atoms: C_7  and  C_11
REMARK    3  A    between atoms: C_11  and  C_12
REMARK    4  A    between atoms: C_12  and  N_13
REMARK    5  A    between atoms: C_14  and  C_16
REMARK    6  A    between atoms: C_27  and  C_29
REMARK    7  A    between atoms: C_30  and  C_41
REMARK    8  A    between atoms: C_33  and  C_35
REMARK                            x       y       z     vdW  Elec       q    Type
REMARK                         _______ _______ _______ _____ _____    ______ ____
ROOT
ATOM      1  C   UNL     1      -8.999   2.185  -7.369  0.00  0.00    +0.100 C 
ATOM      2  C   UNL     1     -10.031   2.394  -6.239  0.00  0.00    +0.121 C 
ATOM      3  N   UNL     1     -11.333   2.035  -6.850  0.00  0.00    -0.296 N 
ATOM      4  C   UNL     1     -11.030   0.857  -7.697  0.00  0.00    +0.115 C 
ATOM      5  C   UNL     1      -9.657   1.175  -8.323  0.00  0.00    -0.004 C 
ATOM      6  C   UNL     1      -8.813  -0.093  -8.415  0.00  0.00    -0.010 C 
ATOM      7  C   UNL     1      -9.458  -1.059  -9.414  0.00  0.00    -0.082 C 
ATOM      8  N   UNL     1      -9.552  -0.414 -10.729  0.00  0.00    +0.379 N 
ATOM      9  C   UNL     1     -10.441   0.752 -10.652  0.00  0.00    -0.082 C 
ATOM     10  C   UNL     1      -9.838   1.794  -9.706  0.00  0.00    -0.010 C 
ATOM     11  C   UNL     1     -12.523   2.642  -6.675  0.00  0.00    +0.248 C 
ATOM     12  O   UNL     1     -13.527   2.171  -7.178  0.00  0.00    -0.270 OA
ATOM     13  H   UNL     1      -8.634  -0.116 -11.024  0.00  0.00    -0.086 HD
ATOM     14  H   UNL     1      -9.921  -1.072 -11.400  0.00  0.00    -0.086 HD
ENDROOT
BRANCH  11  15
ATOM     15  C   UNL     1     -12.607   3.830  -5.904  0.00  0.00    +0.078 C 
ATOM     16  C   UNL     1     -12.283   5.068  -6.315  0.00  0.00    +0.132 C 
ATOM     17  O   UNL     1     -12.466   5.982  -5.343  0.00  0.00    -0.410 OA
ATOM     18  N   UNL     1     -13.343   5.390  -4.318  0.00  0.00    -0.144 NA
ATOM     19  C   UNL     1     -13.084   3.937  -4.468  0.00  0.00    +0.161 C 
ATOM     20  C   UNL     1     -11.776   5.394  -7.696  0.00  0.00    +0.089 C 
ATOM     21  H   UNL     1     -14.312   5.603  -4.504  0.00  0.00    +0.168 HD
BRANCH  19  22
ATOM     22  C   UNL     1     -14.349   3.143  -4.265  0.00  0.00    -0.023 A 
ATOM     23  C   UNL     1     -15.543   3.600  -4.790  0.00  0.00    +0.005 A 
ATOM     24  C   UNL     1     -16.704   2.872  -4.604  0.00  0.00    +0.000 A 
ATOM     25  C   UNL     1     -16.670   1.687  -3.892  0.00  0.00    +0.000 A 
ATOM     26  C   UNL     1     -15.475   1.230  -3.367  0.00  0.00    +0.000 A 
ATOM     27  C   UNL     1     -14.314   1.956  -3.557  0.00  0.00    +0.005 A 
ENDBRANCH  19  22
ENDBRANCH  11  15
BRANCH   1  29
ATOM     28  N   UNL     1      -6.560   1.789  -7.481  0.00  0.00    -0.315 N 
ATOM     29  C   UNL     1      -7.717   1.621  -6.811  0.00  0.00    +0.218 C 
ATOM     30  O   UNL     1      -7.728   1.017  -5.760  0.00  0.00    -0.275 OA
ATOM     31  H   UNL     1      -6.551   2.272  -8.322  0.00  0.00    +0.149 HD
BRANCH  28  32
ATOM     32  C   UNL     1      -5.314   1.241  -6.938  0.00  0.00    +0.109 C 
BRANCH  32  33
ATOM     33  C   UNL     1      -4.158   1.568  -7.885  0.00  0.00    +0.056 C 
BRANCH  33  40
ATOM     34  C   UNL     1       0.876  -1.692  -6.054  0.00  0.00    +0.046 C 
ATOM     35  C   UNL     1      -0.434  -1.609  -6.793  0.00  0.00    -0.027 A 
ATOM     36  C   UNL     1      -0.924  -2.713  -7.457  0.00  0.00    +0.005 A 
ATOM     37  C   UNL     1      -2.130  -2.650  -8.141  0.00  0.00    +0.001 A 
ATOM     38  C   UNL     1      -2.853  -1.491  -8.168  0.00  0.00    +0.010 A 
ATOM     39  C   UNL     1      -2.376  -0.361  -7.502  0.00  0.00    +0.003 A 
ATOM     40  C   UNL     1      -2.876   1.005  -7.327  0.00  0.00    -0.021 A 
ATOM     41  C   UNL     1      -1.976   1.659  -6.576  0.00  0.00    +0.087 A 
ATOM     42  N   UNL     1      -0.941   0.824  -6.256  0.00  0.00    -0.360 N 
ATOM     43  C   UNL     1      -1.157  -0.421  -6.802  0.00  0.00    +0.050 A 
ATOM     44  H   UNL     1      -0.171   1.072  -5.720  0.00  0.00    +0.165 HD
ENDBRANCH  33  40
ENDBRANCH  32  33
ENDBRANCH  28  32
ENDBRANCH   1  29
TORSDOF 6
