REMARK  Name = ZINC39578311
REMARK  6 active torsions:
REMARK  status: ('A' for Active; 'I' for Inactive)
REMARK    1  A    between atoms: C_1  and  C_2
REMARK    2  A    between atoms: C_9  and  C_11
REMARK    3  A    between atoms: C_11  and  S_12
REMARK    4  A    between atoms: S_12  and  C_13
REMARK    5  A    between atoms: C_16  and  C_19
REMARK    6  A    between atoms: N_17  and  N_18
REMARK                            x       y       z     vdW  Elec       q    Type
REMARK                         _______ _______ _______ _____ _____    ______ ____
ROOT
ATOM      1  C   UNL     1       3.777   0.514   5.386  0.00  0.00    +0.209 A 
ATOM      2  N   UNL     1       4.131  -0.749   5.444  0.00  0.00    -0.121 NA
ATOM      3  N   UNL     1       4.921  -0.936   6.440  0.00  0.00    -0.132 NA
ATOM      4  C   UNL     1       5.117   0.186   7.072  0.00  0.00    +0.154 A 
ATOM      5  N   UNL     1       4.401   1.151   6.420  0.00  0.00    -0.228 N 
ENDROOT
BRANCH   4   6
ATOM      6  C   UNL     1       5.979   0.385   8.292  0.00  0.00    +0.059 C 
ATOM      7  C   UNL     1       7.422  -0.007   7.967  0.00  0.00    +0.011 C 
ATOM      8  C   UNL     1       8.297   0.195   9.205  0.00  0.00    +0.001 C 
ATOM      9  C   UNL     1       7.776  -0.681  10.346  0.00  0.00    +0.000 C 
ATOM     10  C   UNL     1       6.333  -0.289  10.672  0.00  0.00    +0.001 C 
ATOM     11  C   UNL     1       5.458  -0.491   9.433  0.00  0.00    +0.011 C 
ENDBRANCH   4   6
BRANCH   5  12
ATOM     12  N   UNL     1       4.322   2.477   6.739  0.00  0.00    -0.295 N 
ATOM     13  H   UNL     1       3.561   2.651   7.379  0.00  0.00    +0.163 HD
ATOM     14  H   UNL     1       5.196   2.811   7.118  0.00  0.00    +0.163 HD
ENDBRANCH   5  12
BRANCH   1  15
ATOM     15  S   UNL     1       2.707   1.249   4.195  0.00  0.00    -0.075 S 
BRANCH  15  16
ATOM     16  C   UNL     1       2.232  -0.133   3.120  0.00  0.00    +0.173 C 
BRANCH  16  24
ATOM     17  C   UNL     1       0.008   1.528  -0.006  0.00  0.00    +0.028 C 
ATOM     18  C   UNL     1       0.016  -0.002  -0.007  0.00  0.00    +0.073 C 
ATOM     19  C   UNL     1       0.633  -0.512  -1.313  0.00  0.00    +0.022 C 
ATOM     20  C   UNL     1       0.765  -2.035  -1.250  0.00  0.00    +0.003 C 
ATOM     21  C   UNL     1       1.692  -2.421  -0.095  0.00  0.00    +0.019 C 
ATOM     22  C   UNL     1       1.087  -1.933   1.225  0.00  0.00    +0.108 C 
ATOM     23  N   UNL     1       0.819  -0.492   1.122  0.00  0.00    -0.298 N 
ATOM     24  C   UNL     1       1.304   0.365   2.042  0.00  0.00    +0.226 C 
ATOM     25  O   UNL     1       0.994   1.537   2.003  0.00  0.00    -0.275 OA
ENDBRANCH  16  24
ENDBRANCH  15  16
ENDBRANCH   1  15
TORSDOF 5
