REMARK  Name = ZINC39447253
REMARK  6 active torsions:
REMARK  status: ('A' for Active; 'I' for Inactive)
REMARK    1  A    between atoms: C_1  and  C_2
REMARK    2  A    between atoms: C_4  and  C_31
REMARK    3  A    between atoms: C_6  and  N_8
REMARK    4  A    between atoms: C_14  and  N_20
REMARK    5  A    between atoms: C_21  and  C_23
REMARK    6  A    between atoms: C_26  and  C_30
REMARK                            x       y       z     vdW  Elec       q    Type
REMARK                         _______ _______ _______ _____ _____    ______ ____
ROOT
ATOM      1  N   UNL     1       0.002  -2.784   2.390  0.00  0.00    -0.221 N 
ATOM      2  C   UNL     1       0.009  -2.207   3.761  0.00  0.00    +0.108 C 
ATOM      3  C   UNL     1       1.437  -1.816   4.091  0.00  0.00    +0.025 C 
ATOM      4  C   UNL     1       1.716  -1.834   5.588  0.00  0.00    +0.004 C 
ATOM      5  C   UNL     1       1.447  -3.248   6.115  0.00  0.00    +0.023 C 
ATOM      6  C   UNL     1      -0.045  -3.531   5.977  0.00  0.00    +0.083 C 
ATOM      7  C   UNL     1      -0.565  -3.362   4.567  0.00  0.00    +0.074 C 
ATOM      8  C   UNL     1      -0.307  -4.573   3.705  0.00  0.00    +0.110 C 
ATOM      9  N   UNL     1       0.018  -4.177   2.537  0.00  0.00    -0.191 NA
ENDROOT
BRANCH   1  15
ATOM     10  C   UNL     1      -0.083   1.522   0.023  0.00  0.00    +0.044 C 
ATOM     11  C   UNL     1      -0.065   0.015   0.011  0.00  0.00    -0.048 A 
ATOM     12  C   UNL     1      -0.074  -0.666  -1.193  0.00  0.00    +0.006 A 
ATOM     13  C   UNL     1      -0.058  -2.049  -1.209  0.00  0.00    -0.048 A 
ATOM     14  C   UNL     1      -0.033  -2.755  -0.023  0.00  0.00    +0.028 A 
ATOM     15  C   UNL     1      -0.024  -2.074   1.189  0.00  0.00    +0.052 A 
ATOM     16  C   UNL     1      -0.034  -0.684   1.201  0.00  0.00    +0.028 A 
ATOM     17  C   UNL     1      -0.069  -2.787  -2.523  0.00  0.00    +0.044 C 
ENDBRANCH   1  15
BRANCH   6  18
ATOM     18  N   UNL     1      -0.307  -4.904   6.414  0.00  0.00    -0.308 N 
ATOM     19  C   UNL     1      -0.501  -5.170   7.721  0.00  0.00    +0.249 C 
ATOM     20  O   UNL     1      -0.368  -4.287   8.547  0.00  0.00    -0.270 OA
ATOM     21  H   UNL     1      -0.341  -5.622   5.763  0.00  0.00    +0.149 HD
BRANCH  19  22
ATOM     22  C   UNL     1      -0.875  -6.529   8.148  0.00  0.00    +0.099 A 
ATOM     23  C   UNL     1      -1.191  -6.795   9.465  0.00  0.00    +0.099 A 
ATOM     24  N   UNL     1      -1.531  -8.039   9.844  0.00  0.00    -0.364 N 
ATOM     25  C   UNL     1      -1.581  -9.076   8.971  0.00  0.00    +0.016 A 
ATOM     26  C   UNL     1      -1.290  -8.919   7.664  0.00  0.00    +0.072 A 
ATOM     27  C   UNL     1      -0.928  -7.636   7.182  0.00  0.00    +0.194 A 
ATOM     28  O   UNL     1      -0.665  -7.458   6.003  0.00  0.00    -0.287 OA
ATOM     29  C   UNL     1      -1.970 -10.441   9.477  0.00  0.00    +0.063 C 
ATOM     30  H   UNL     1      -1.748  -8.201  10.775  0.00  0.00    +0.165 HD
ENDBRANCH  19  22
ENDBRANCH   6  18
TORSDOF 3
