REMARK  Name = ZINC67386046
REMARK  8 active torsions:
REMARK  status: ('A' for Active; 'I' for Inactive)
REMARK    1  A    between atoms: C_1  and  C_2
REMARK    2  A    between atoms: C_4  and  C_26
REMARK    3  A    between atoms: C_5  and  N_9
REMARK    4  A    between atoms: C_10  and  C_12
REMARK    5  A    between atoms: C_12  and  C_14
REMARK    6  A    between atoms: C_12  and  O_15
REMARK    7  A    between atoms: O_15  and  C_16
REMARK    8  A    between atoms: C_19  and  N_23
REMARK                            x       y       z     vdW  Elec       q    Type
REMARK                         _______ _______ _______ _____ _____    ______ ____
ROOT
ATOM      1  N   UNL     1       0.075  -4.148  -0.003  0.00  0.00    -0.281 N 
ATOM      2  C   UNL     1       0.499  -4.834   1.076  0.00  0.00    +0.258 C 
ATOM      3  O   UNL     1       0.821  -4.241   2.084  0.00  0.00    -0.271 OA
ATOM      4  H   UNL     1      -0.231  -4.624  -0.791  0.00  0.00    +0.155 HD
ENDROOT
BRANCH   1   9
ATOM      5  C   UNL     1       0.074   1.526   0.064  0.00  0.00    +0.044 C 
ATOM      6  C   UNL     1       0.075   0.019   0.046  0.00  0.00    -0.049 A 
ATOM      7  C   UNL     1      -0.999  -0.665  -0.493  0.00  0.00    +0.008 A 
ATOM      8  C   UNL     1      -1.002  -2.046  -0.511  0.00  0.00    -0.028 A 
ATOM      9  C   UNL     1       0.075  -2.748   0.013  0.00  0.00    +0.055 A 
ATOM     10  C   UNL     1       1.153  -2.058   0.554  0.00  0.00    +0.063 A 
ATOM     11  C   UNL     1       1.152  -0.676   0.564  0.00  0.00    +0.025 A 
ATOM     12 CL   UNL     1       2.503  -2.931   1.211  0.00  0.00    -0.082 Cl
ATOM     13  C   UNL     1      -2.173  -2.790  -1.099  0.00  0.00    +0.046 C 
ENDBRANCH   1   9
BRANCH   2  14
ATOM     14  C   UNL     1       0.574  -6.339   1.031  0.00  0.00    +0.256 C 
ATOM     15  C   UNL     1       1.626  -6.766   0.005  0.00  0.00    +0.062 C 
BRANCH  14  16
ATOM     16  O   UNL     1       0.937  -6.837   2.320  0.00  0.00    -0.480 OA
BRANCH  16  17
ATOM     17  C   UNL     1       0.592  -8.120   2.605  0.00  0.00    +0.124 A 
ATOM     18  C   UNL     1       0.977  -8.692   3.810  0.00  0.00    +0.048 A 
ATOM     19  C   UNL     1       0.625  -9.996   4.098  0.00  0.00    +0.039 A 
ATOM     20  C   UNL     1      -0.109 -10.734   3.188  0.00  0.00    +0.161 A 
ATOM     21  C   UNL     1      -0.495 -10.166   1.986  0.00  0.00    +0.157 A 
ATOM     22  C   UNL     1      -0.150  -8.858   1.695  0.00  0.00    +0.086 A 
ATOM     23  F   UNL     1      -1.212 -10.889   1.097  0.00  0.00    -0.203 F 
BRANCH  20  24
ATOM     24  N   UNL     1      -0.483 -12.131   3.500  0.00  0.00    +0.059 N 
ATOM     25  O   UNL     1      -0.147 -12.627   4.550  0.00  0.00    -0.126 OA
ATOM     26  O   UNL     1      -1.126 -12.777   2.705  0.00  0.00    -0.126 OA
ENDBRANCH  20  24
ENDBRANCH  16  17
ENDBRANCH  14  16
ENDBRANCH   2  14
TORSDOF 5
