REMARK  Name = ZINC41006806
REMARK  10 active torsions:
REMARK  status: ('A' for Active; 'I' for Inactive)
REMARK    1  A    between atoms: C_1  and  C_2
REMARK    2  A    between atoms: C_2  and  O_3
REMARK    3  A    between atoms: O_3  and  C_4
REMARK    4  A    between atoms: C_7  and  C_10
REMARK    5  A    between atoms: C_12  and  C_31
REMARK    6  A    between atoms: C_17  and  C_29
REMARK    7  A    between atoms: C_17  and  O_30
REMARK    8  A    between atoms: C_18  and  C_20
REMARK    9  A    between atoms: N_22  and  C_23
REMARK   10  A    between atoms: N_33  and  C_34
REMARK                            x       y       z     vdW  Elec       q    Type
REMARK                         _______ _______ _______ _____ _____    ______ ____
ROOT
ATOM      1  C   UNL     1       0.912  -6.274  -1.488  0.00  0.00    +0.053 C 
ATOM      2  C   UNL     1       0.262  -6.506  -2.856  0.00  0.00    +0.149 C 
ATOM      3  C   UNL     1       0.507  -7.941  -3.268  0.00  0.00    +0.148 C 
ATOM      4  O   UNL     1      -0.406  -8.647  -3.623  0.00  0.00    -0.296 OA
ATOM      5  C   UNL     1       1.924  -8.468  -3.223  0.00  0.00    +0.110 C 
ATOM      6  C   UNL     1       2.513  -8.165  -1.841  0.00  0.00    +0.082 C 
ATOM      7  C   UNL     1       2.388  -6.668  -1.553  0.00  0.00    +0.115 C 
ATOM      8  C   UNL     1       1.750  -8.955  -0.776  0.00  0.00    +0.042 C 
ENDROOT
BRANCH   1  12
ATOM      9  C   UNL     1       0.585  -2.144  -0.437  0.00  0.00    +0.121 A 
ATOM     10  C   UNL     1       0.014  -3.115   0.373  0.00  0.00    +0.046 A 
ATOM     11  C   UNL     1       0.121  -4.449   0.031  0.00  0.00    +0.007 A 
ATOM     12  C   UNL     1       0.796  -4.817  -1.118  0.00  0.00    -0.042 A 
ATOM     13  C   UNL     1       1.367  -3.852  -1.927  0.00  0.00    +0.007 A 
ATOM     14  C   UNL     1       1.257  -2.516  -1.592  0.00  0.00    +0.046 A 
BRANCH   9  15
ATOM     15  O   UNL     1       0.481  -0.831  -0.103  0.00  0.00    -0.492 OA
BRANCH  15  17
ATOM     16  C   UNL     1      -0.238   0.994   1.309  0.00  0.00    +0.048 C 
ATOM     17  C   UNL     1      -0.225  -0.522   1.101  0.00  0.00    +0.225 C 
ENDBRANCH  15  17
ENDBRANCH   9  15
ENDBRANCH   1  12
BRANCH   7  18
ATOM     18  C   UNL     1       3.049  -6.355  -0.235  0.00  0.00    +0.224 C 
ATOM     19  O   UNL     1       2.401  -5.865   0.666  0.00  0.00    -0.275 OA
ATOM     20  N   UNL     1       4.358  -6.620  -0.057  0.00  0.00    -0.285 N 
ATOM     21  H   UNL     1       4.861  -7.069  -0.754  0.00  0.00    +0.155 HD
BRANCH  20  22
ATOM     22  C   UNL     1       4.992  -6.247   1.133  0.00  0.00    +0.033 A 
ATOM     23  C   UNL     1       6.312  -5.815   1.113  0.00  0.00    +0.023 A 
ATOM     24  C   UNL     1       6.935  -5.447   2.289  0.00  0.00    +0.002 A 
ATOM     25  C   UNL     1       6.246  -5.509   3.486  0.00  0.00    +0.000 A 
ATOM     26  C   UNL     1       4.932  -5.939   3.510  0.00  0.00    +0.002 A 
ATOM     27  C   UNL     1       4.301  -6.302   2.336  0.00  0.00    +0.023 A 
ENDBRANCH  20  22
ENDBRANCH   7  18
BRANCH   2  28
ATOM     28  C   UNL     1      -1.219  -6.247  -2.764  0.00  0.00    +0.228 C 
ATOM     29  O   UNL     1      -1.711  -5.910  -1.708  0.00  0.00    -0.275 OA
ATOM     30  N   UNL     1      -1.998  -6.391  -3.855  0.00  0.00    -0.285 N 
ATOM     31  H   UNL     1      -1.618  -6.731  -4.680  0.00  0.00    +0.155 HD
BRANCH  30  32
ATOM     32  C   UNL     1      -3.353  -6.049  -3.796  0.00  0.00    +0.033 A 
ATOM     33  C   UNL     1      -4.284  -6.766  -4.536  0.00  0.00    +0.023 A 
ATOM     34  C   UNL     1      -5.622  -6.427  -4.476  0.00  0.00    +0.002 A 
ATOM     35  C   UNL     1      -6.034  -5.373  -3.681  0.00  0.00    +0.000 A 
ATOM     36  C   UNL     1      -5.110  -4.657  -2.943  0.00  0.00    +0.002 A 
ATOM     37  C   UNL     1      -3.772  -4.995  -2.994  0.00  0.00    +0.023 A 
ENDBRANCH  30  32
ENDBRANCH   2  28
BRANCH   6  38
ATOM     38  O   UNL     1       3.891  -8.542  -1.818  0.00  0.00    -0.388 OA
ATOM     39  H   UNL     1       4.046  -9.480  -1.994  0.00  0.00    +0.210 HD
ENDBRANCH   6  38
TORSDOF 8
