REMARK  Name = ZINC41602616
REMARK  5 active torsions:
REMARK  status: ('A' for Active; 'I' for Inactive)
REMARK    1  A    between atoms: C_1  and  C_2
REMARK    2  A    between atoms: C_2  and  C_3
REMARK    3  A    between atoms: N_11  and  C_12
REMARK    4  A    between atoms: C_12  and  C_13
REMARK    5  A    between atoms: C_13  and  C_14
REMARK                            x       y       z     vdW  Elec       q    Type
REMARK                         _______ _______ _______ _____ _____    ______ ____
ROOT
ATOM      1  C   UNL     1      -1.412  -0.526   0.013  0.00  0.00    +0.050 A 
ATOM      2  C   UNL     1      -2.024  -0.857  -1.161  0.00  0.00    +0.093 A 
ATOM      3  C   UNL     1      -3.344  -1.342  -1.125  0.00  0.00    +0.253 A 
ATOM      4  O   UNL     1      -3.922  -1.648  -2.155  0.00  0.00    -0.268 OA
ATOM      5  N   UNL     1      -3.959  -1.463   0.071  0.00  0.00    -0.295 N 
ATOM      6  H   UNL     1      -4.869  -1.796   0.119  0.00  0.00    +0.172 HD
ATOM      7  C   UNL     1      -3.298  -1.117   1.208  0.00  0.00    +0.196 A 
ATOM      8  N   UNL     1      -2.059  -0.667   1.167  0.00  0.00    -0.221 NA
ATOM      9  N   UNL     1      -3.928  -1.242   2.417  0.00  0.00    -0.315 N 
ATOM     10  H   UNL     1      -4.838  -1.575   2.458  0.00  0.00    +0.149 HD
ENDROOT
BRANCH   1  12
ATOM     11  C   UNL     1      -0.019   1.526   0.010  0.00  0.00    +0.010 C 
ATOM     12  C   UNL     1       0.002  -0.004   0.002  0.00  0.00    +0.052 C 
ENDBRANCH   1  12
BRANCH   9  13
ATOM     13  C   UNL     1      -3.228  -0.873   3.650  0.00  0.00    +0.108 C 
BRANCH  13  14
ATOM     14  C   UNL     1      -4.149  -1.107   4.849  0.00  0.00    +0.049 C 
BRANCH  14  15
ATOM     15  C   UNL     1      -3.428  -0.727   6.117  0.00  0.00    -0.072 C 
ATOM     16  C   UNL     1      -3.617   0.464   6.589  0.00  0.00    -0.028 C 
ATOM     17  C   UNL     1      -2.962   0.989   7.833  0.00  0.00    +0.027 C 
ATOM     18  C   UNL     1      -2.411  -0.170   8.668  0.00  0.00    +0.004 C 
ATOM     19  C   UNL     1      -1.587  -1.081   7.749  0.00  0.00    +0.005 C 
ATOM     20  C   UNL     1      -2.542  -1.754   6.758  0.00  0.00    +0.030 C 
ENDBRANCH  14  15
ENDBRANCH  13  14
ENDBRANCH   9  13
TORSDOF 4
