REMARK  Name = ZINC12623459
REMARK  6 active torsions:
REMARK  status: ('A' for Active; 'I' for Inactive)
REMARK    1  A    between atoms: C_3  and  N_27
REMARK    2  A    between atoms: C_6  and  C_7
REMARK    3  A    between atoms: N_9  and  N_10
REMARK    4  A    between atoms: C_11  and  C_13
REMARK    5  A    between atoms: C_13  and  C_14
REMARK    6  A    between atoms: C_23  and  O_26
REMARK                            x       y       z     vdW  Elec       q    Type
REMARK                         _______ _______ _______ _____ _____    ______ ____
ROOT
ATOM      1  N   UNL     1       1.193   1.683  -0.000  0.00  0.00    -0.234 N 
ATOM      2  C   UNL     1       2.369   1.025  -0.015  0.00  0.00    +0.230 C 
ATOM      3  O   UNL     1       2.385  -0.188  -0.022  0.00  0.00    -0.274 OA
ATOM      4  H   UNL     1       1.178   2.783   0.006  0.00  0.00    +0.173 HD
ENDROOT
BRANCH   1   7
ATOM      5  C   UNL     1      -1.187   1.624   0.017  0.00  0.00    +0.260 C 
ATOM      6  O   UNL     1      -1.204   2.839   0.023  0.00  0.00    -0.269 OA
ATOM      7  N   UNL     1      -0.011   0.966   0.007  0.00  0.00    -0.230 N 
ATOM      8  H   UNL     1       0.004  -0.134   0.006  0.00  0.00    +0.173 HD
BRANCH   5  14
ATOM      9  C   UNL     1      -2.442  -0.528   0.005  0.00  0.00    +0.015 A 
ATOM     10  C   UNL     1      -3.631  -1.228   0.011  0.00  0.00    +0.033 A 
ATOM     11  C   UNL     1      -4.837  -0.550   0.021  0.00  0.00    +0.126 A 
ATOM     12  C   UNL     1      -4.859   0.834   0.029  0.00  0.00    +0.033 A 
ATOM     13  C   UNL     1      -3.677   1.546   0.028  0.00  0.00    +0.015 A 
ATOM     14  C   UNL     1      -2.458   0.867   0.018  0.00  0.00    +0.038 A 
BRANCH  11  15
ATOM     15  N   UNL     1      -6.108  -1.307   0.022  0.00  0.00    +0.056 N 
ATOM     16  O   UNL     1      -7.171  -0.713   0.031  0.00  0.00    -0.126 OA
ATOM     17  O   UNL     1      -6.092  -2.525   0.015  0.00  0.00    -0.126 OA
ENDBRANCH  11  15
ENDBRANCH   5  14
ENDBRANCH   1   7
BRANCH   2  18
ATOM     18  C   UNL     1       3.663   1.796  -0.023  0.00  0.00    +0.104 C 
BRANCH  18  19
ATOM     19  C   UNL     1       4.840   0.818  -0.040  0.00  0.00    -0.018 C 
ATOM     20  C   UNL     1       4.782  -0.070   1.205  0.00  0.00    +0.011 C 
ATOM     21  C   UNL     1       5.959  -1.048   1.189  0.00  0.00    -0.007 C 
ATOM     22  C   UNL     1       5.878  -1.922  -0.064  0.00  0.00    +0.007 C 
ATOM     23  C   UNL     1       5.935  -1.034  -1.310  0.00  0.00    -0.007 C 
ATOM     24  C   UNL     1       4.759  -0.056  -1.293  0.00  0.00    +0.011 C 
ATOM     25  C   UNL     1       7.249  -0.252  -1.318  0.00  0.00    +0.038 C 
ATOM     26  C   UNL     1       7.330   0.622  -0.065  0.00  0.00    +0.067 C 
ATOM     27  C   UNL     1       7.273  -0.265   1.181  0.00  0.00    +0.038 C 
ATOM     28  C   UNL     1       6.154   1.601  -0.048  0.00  0.00    +0.042 C 
BRANCH  26  29
ATOM     29  O   UNL     1       8.558   1.354  -0.072  0.00  0.00    -0.389 OA
ATOM     30  H   UNL     1       8.795   2.040   0.754  0.00  0.00    +0.210 HD
ENDBRANCH  26  29
ENDBRANCH  18  19
ENDBRANCH   2  18
TORSDOF 6
