REMARK  Name = ZINC21243368
REMARK  9 active torsions:
REMARK  status: ('A' for Active; 'I' for Inactive)
REMARK    1  A    between atoms: C_1  and  O_2
REMARK    2  A    between atoms: O_2  and  C_3
REMARK    3  A    between atoms: C_7  and  C_10
REMARK    4  A    between atoms: C_8  and  O_9
REMARK    5  A    between atoms: C_15  and  C_20
REMARK    6  A    between atoms: C_23  and  O_28
REMARK    7  A    between atoms: C_24  and  O_26
REMARK    8  A    between atoms: O_26  and  C_27
REMARK    9  A    between atoms: O_28  and  C_29
REMARK                            x       y       z     vdW  Elec       q    Type
REMARK                         _______ _______ _______ _____ _____    ______ ____
ROOT
ATOM      1  C   UNL     1      -5.689  -1.924   0.115  0.00  0.00    +0.140 C 
ATOM      2  C   UNL     1      -4.424  -1.129  -0.104  0.00  0.00    +0.037 C 
ATOM      3  C   UNL     1      -3.914  -0.771  -1.294  0.00  0.00    +0.017 C 
ATOM      4  C   UNL     1      -2.605  -0.002  -1.369  0.00  0.00    +0.059 C 
ATOM      5  C   UNL     1      -2.474   0.920  -0.158  0.00  0.00    +0.032 C 
ATOM      6  C   UNL     1      -2.502   0.044   1.100  0.00  0.00    +0.088 C 
ATOM      7  C   UNL     1      -3.765  -0.763   1.093  0.00  0.00    +0.163 C 
ATOM      8  O   UNL     1      -4.240  -1.117   2.154  0.00  0.00    -0.292 OA
ATOM      9  N   UNL     1      -4.473  -1.056  -2.497  0.00  0.00    -0.316 N 
ATOM     10  C   UNL     1      -4.958  -2.305  -2.870  0.00  0.00    +0.052 A 
ATOM     11  C   UNL     1      -4.429  -3.015  -3.933  0.00  0.00    +0.025 A 
ATOM     12  C   UNL     1      -5.027  -4.202  -4.322  0.00  0.00    +0.002 A 
ATOM     13  C   UNL     1      -6.141  -4.673  -3.651  0.00  0.00    +0.002 A 
ATOM     14  C   UNL     1      -6.659  -3.975  -2.574  0.00  0.00    +0.025 A 
ATOM     15  C   UNL     1      -6.053  -2.795  -2.173  0.00  0.00    +0.049 A 
ATOM     16  N   UNL     1      -6.510  -2.080  -1.067  0.00  0.00    -0.331 N 
ATOM     17  H   UNL     1      -4.568  -0.269  -3.260  0.00  0.00    +0.152 HD
ATOM     18  H   UNL     1      -7.513  -1.631  -1.103  0.00  0.00    +0.147 HD
ENDROOT
BRANCH   1  23
ATOM     19  C   UNL     1      -5.912  -5.360   1.689  0.00  0.00    +0.162 A 
ATOM     20  C   UNL     1      -4.612  -5.814   1.534  0.00  0.00    +0.049 A 
ATOM     21  C   UNL     1      -3.667  -5.011   0.922  0.00  0.00    +0.004 A 
ATOM     22  C   UNL     1      -4.017  -3.754   0.464  0.00  0.00    +0.009 A 
ATOM     23  C   UNL     1      -5.312  -3.295   0.616  0.00  0.00    +0.022 A 
ATOM     24  C   UNL     1      -6.262  -4.092   1.233  0.00  0.00    +0.164 A 
BRANCH  19  26
ATOM     25  C   UNL     1      -6.409  -7.435   2.739  0.00  0.00    +0.277 C 
ATOM     26  O   UNL     1      -6.842  -6.149   2.290  0.00  0.00    -0.491 OA
ENDBRANCH  19  26
BRANCH  24  27
ATOM     27  O   UNL     1      -7.535  -3.640   1.388  0.00  0.00    -0.503 OA
ATOM     28  H   UNL     1      -7.810  -2.638   1.028  0.00  0.00    +0.292 HD
ENDBRANCH  24  27
ENDBRANCH   1  23
BRANCH   5  29
ATOM     29  C   UNL     1      -1.171   1.673  -0.228  0.00  0.00    -0.040 A 
ATOM     30  C   UNL     1       0.024   0.980  -0.282  0.00  0.00    +0.008 A 
ATOM     31  C   UNL     1       1.222   1.666  -0.352  0.00  0.00    +0.049 A 
ATOM     32  C   UNL     1       1.228   3.051  -0.361  0.00  0.00    +0.161 A 
ATOM     33  C   UNL     1       0.026   3.749  -0.301  0.00  0.00    +0.162 A 
ATOM     34  C   UNL     1      -1.172   3.056  -0.232  0.00  0.00    +0.053 A 
BRANCH  33  35
ATOM     35  O   UNL     1       0.026   5.109  -0.310  0.00  0.00    -0.491 OA
ATOM     36  C   UNL     1      -1.245   5.759  -0.246  0.00  0.00    +0.277 C 
ENDBRANCH  33  35
BRANCH  32  37
ATOM     37  O   UNL     1       2.406   3.728  -0.430  0.00  0.00    -0.491 OA
ATOM     38  C   UNL     1       3.600   2.946  -0.490  0.00  0.00    +0.277 C 
ENDBRANCH  32  37
ENDBRANCH   5  29
TORSDOF 6
