REMARK  Name = ZINC39445151
REMARK  8 active torsions:
REMARK  status: ('A' for Active; 'I' for Inactive)
REMARK    1  A    between atoms: C_1  and  C_2
REMARK    2  A    between atoms: C_2  and  C_3
REMARK    3  A    between atoms: C_3  and  N_4
REMARK    4  A    between atoms: C_5  and  C_29
REMARK    5  A    between atoms: C_7  and  C_10
REMARK    6  A    between atoms: N_16  and  C_17
REMARK    7  A    between atoms: C_17  and  C_18
REMARK    8  A    between atoms: C_18  and  C_19
REMARK                            x       y       z     vdW  Elec       q    Type
REMARK                         _______ _______ _______ _____ _____    ______ ____
ROOT
ATOM      1  C   UNL     1      -4.105  -4.154  -1.586  0.00  0.00    +0.075 A 
ATOM      2  C   UNL     1      -4.092  -4.887  -2.782  0.00  0.00    +0.046 A 
ATOM      3  C   UNL     1      -5.224  -5.595  -3.130  0.00  0.00    +0.087 A 
ATOM      4  N   UNL     1      -6.282  -5.563  -2.332  0.00  0.00    -0.334 N 
ATOM      5  C   UNL     1      -6.269  -4.862  -1.207  0.00  0.00    +0.193 A 
ATOM      6  N   UNL     1      -5.205  -4.172  -0.829  0.00  0.00    -0.216 NA
ATOM      7  N   UNL     1      -7.396  -4.856  -0.404  0.00  0.00    -0.315 N 
ATOM      8  H   UNL     1      -7.400  -4.348   0.422  0.00  0.00    +0.149 HD
ATOM      9  H   UNL     1      -7.079  -6.060  -2.575  0.00  0.00    +0.168 HD
ENDROOT
BRANCH   1  12
ATOM     10  N   UNL     1      -1.413  -2.002   0.005  0.00  0.00    -0.222 NA
ATOM     11  C   UNL     1      -2.782  -2.551   0.088  0.00  0.00    +0.106 C 
ATOM     12  C   UNL     1      -2.925  -3.382  -1.169  0.00  0.00    +0.011 C 
ATOM     13  C   UNL     1      -1.763  -3.276  -1.827  0.00  0.00    +0.091 C 
ATOM     14  N   UNL     1      -0.877  -2.478  -1.156  0.00  0.00    -0.284 N 
ATOM     15  C   UNL     1      -3.812  -1.419   0.105  0.00  0.00    +0.031 C 
ATOM     16  H   UNL     1       0.020  -2.276  -1.467  0.00  0.00    +0.166 HD
BRANCH  10  17
ATOM     17  C   UNL     1      -1.433  -0.534   0.013  0.00  0.00    +0.106 C 
BRANCH  17  19
ATOM     18  C   UNL     1      -0.019   1.526   0.010  0.00  0.00    +0.005 C 
ATOM     19  C   UNL     1       0.002  -0.004   0.002  0.00  0.00    +0.014 C 
ENDBRANCH  17  19
ENDBRANCH  10  17
ENDBRANCH   1  12
BRANCH   7  20
ATOM     20  C   UNL     1      -8.583  -5.618  -0.801  0.00  0.00    +0.110 C 
BRANCH  20  21
ATOM     21  C   UNL     1      -9.678  -5.443   0.253  0.00  0.00    +0.076 C 
BRANCH  21  22
ATOM     22  C   UNL     1     -10.899  -6.226  -0.155  0.00  0.00    +0.068 A 
ATOM     23  C   UNL     1     -11.950  -5.754  -0.938  0.00  0.00    -0.004 A 
ATOM     24  C   UNL     1     -12.851  -6.759  -1.079  0.00  0.00    +0.039 A 
ATOM     25  N   UNL     1     -12.385  -7.827  -0.412  0.00  0.00    -0.281 N 
ATOM     26  N   UNL     1     -11.153  -7.473   0.159  0.00  0.00    -0.178 NA
ATOM     27  H   UNL     1     -12.821  -8.691  -0.341  0.00  0.00    +0.189 HD
ATOM     28  C   UNL     1     -14.136  -6.639  -1.861  0.00  0.00    +0.055 C 
ATOM     29  C   UNL     1     -14.430  -5.150  -2.083  0.00  0.00    +0.006 C 
ATOM     30  C   UNL     1     -13.181  -4.460  -2.639  0.00  0.00    +0.005 C 
ATOM     31  C   UNL     1     -12.109  -4.382  -1.545  0.00  0.00    +0.039 C 
ENDBRANCH  21  22
ENDBRANCH  20  21
ENDBRANCH   7  20
TORSDOF 6
