REMARK  Name = ZINC39899539
REMARK  6 active torsions:
REMARK  status: ('A' for Active; 'I' for Inactive)
REMARK    1  A    between atoms: C_4  and  O_7
REMARK    2  A    between atoms: O_7  and  C_8
REMARK    3  A    between atoms: C_10  and  O_38
REMARK    4  A    between atoms: C_13  and  N_14
REMARK    5  A    between atoms: C_15  and  C_17
REMARK    6  A    between atoms: C_23  and  C_25
REMARK                            x       y       z     vdW  Elec       q    Type
REMARK                         _______ _______ _______ _____ _____    ______ ____
ROOT
ATOM      1  C   UNL     1       3.644  -2.158  -0.496  0.00  0.00    +0.154 A 
ATOM      2  C   UNL     1       2.438  -2.833  -0.485  0.00  0.00    +0.094 A 
ATOM      3  C   UNL     1       2.320  -4.054   0.171  0.00  0.00    +0.132 A 
ATOM      4  C   UNL     1       3.426  -4.608   0.825  0.00  0.00    +0.076 A 
ATOM      5  C   UNL     1       4.660  -3.922   0.816  0.00  0.00    +0.061 A 
ATOM      6  C   UNL     1       4.766  -2.700   0.149  0.00  0.00    +0.088 A 
ATOM      7  C   UNL     1       5.829  -4.497   1.502  0.00  0.00    +0.197 C 
ATOM      8  O   UNL     1       6.892  -3.907   1.494  0.00  0.00    -0.287 OA
ATOM      9  C   UNL     1       5.708  -5.794   2.201  0.00  0.00    +0.033 A 
ATOM     10  C   UNL     1       6.807  -6.346   2.854  0.00  0.00    +0.012 A 
ATOM     11  C   UNL     1       6.684  -7.559   3.506  0.00  0.00    +0.001 A 
ATOM     12  C   UNL     1       5.474  -8.230   3.514  0.00  0.00    +0.001 A 
ATOM     13  C   UNL     1       4.372  -7.696   2.871  0.00  0.00    +0.012 A 
ATOM     14  C   UNL     1       4.478  -6.476   2.210  0.00  0.00    +0.033 A 
ATOM     15  C   UNL     1       3.306  -5.897   1.520  0.00  0.00    +0.198 C 
ATOM     16  O   UNL     1       2.243  -6.488   1.528  0.00  0.00    -0.286 OA
ENDROOT
BRANCH   6  17
ATOM     17  N   UNL     1       5.979  -2.019   0.130  0.00  0.00    -0.282 N 
ATOM     18  C   UNL     1       6.024  -0.712   0.457  0.00  0.00    +0.221 C 
ATOM     19  O   UNL     1       4.995  -0.105   0.667  0.00  0.00    -0.275 OA
ATOM     20  H   UNL     1       6.793  -2.485  -0.119  0.00  0.00    +0.155 HD
BRANCH  18  21
ATOM     21  C   UNL     1       7.351  -0.006   0.560  0.00  0.00    +0.093 C 
ATOM     22  C   UNL     1       7.279   1.067   1.649  0.00  0.00    +0.040 C 
ATOM     23  C   UNL     1       6.400   2.198   1.202  0.00  0.00    -0.030 C 
ATOM     24  C   UNL     1       6.057   2.408  -0.028  0.00  0.00    -0.030 C 
ATOM     25  C   UNL     1       6.482   1.544  -1.179  0.00  0.00    +0.042 C 
ATOM     26  C   UNL     1       7.679   0.673  -0.776  0.00  0.00    +0.118 C 
BRANCH  26  27
ATOM     27  C   UNL     1       7.930  -0.376  -1.829  0.00  0.00    +0.360 C 
ATOM     28  O   UNL     1       7.672  -0.140  -2.997  0.00  0.00    -0.246 OA
ATOM     29  O   UNL     1       8.391  -1.459  -1.512  0.00  0.00    -0.246 OA
ENDBRANCH  26  27
ENDBRANCH  18  21
ENDBRANCH   6  17
BRANCH   3  30
ATOM     30  O   UNL     1       1.132  -4.708   0.177  0.00  0.00    -0.506 OA
ATOM     31  H   UNL     1       1.016  -5.319  -0.564  0.00  0.00    +0.292 HD
ENDBRANCH   3  30
BRANCH   1  32
ATOM     32  O   UNL     1       3.745  -0.968  -1.140  0.00  0.00    -0.454 OA
BRANCH  32  36
ATOM     33  C   UNL     1       0.298   0.708  -2.666  0.00  0.00    +0.000 A 
ATOM     34  C   UNL     1       0.494   0.656  -1.298  0.00  0.00    +0.004 A 
ATOM     35  C   UNL     1       1.647   0.096  -0.784  0.00  0.00    +0.046 A 
ATOM     36  C   UNL     1       2.610  -0.416  -1.643  0.00  0.00    +0.129 A 
ATOM     37  C   UNL     1       2.411  -0.363  -3.015  0.00  0.00    +0.046 A 
ATOM     38  C   UNL     1       1.256   0.199  -3.523  0.00  0.00    +0.004 A 
ENDBRANCH  32  36
ENDBRANCH   1  32
TORSDOF 6
