REMARK  Name = ZINC56168654
REMARK  9 active torsions:
REMARK  status: ('A' for Active; 'I' for Inactive)
REMARK    1  A    between atoms: C_1  and  C_2
REMARK    2  A    between atoms: C_5  and  C_8
REMARK    3  A    between atoms: C_8  and  N_9
REMARK    4  A    between atoms: N_12  and  C_13
REMARK    5  A    between atoms: C_13  and  C_14
REMARK    6  A    between atoms: N_16  and  C_17
REMARK    7  A    between atoms: N_21  and  C_23
REMARK    8  A    between atoms: C_23  and  C_25
REMARK    9  A    between atoms: C_23  and  C_26
REMARK                            x       y       z     vdW  Elec       q    Type
REMARK                         _______ _______ _______ _____ _____    ______ ____
ROOT
ATOM      1  C   UNL     1       4.764  -8.152  -0.069  0.00  0.00    +0.230 C 
ATOM      2  O   UNL     1       5.514  -7.199  -0.068  0.00  0.00    -0.274 OA
ATOM      3  N   UNL     1       5.265  -9.403  -0.078  0.00  0.00    -0.313 N 
ATOM      4  H   UNL     1       4.665 -10.166  -0.079  0.00  0.00    +0.149 HD
ENDROOT
BRANCH   3   5
ATOM      5  C   UNL     1       6.715  -9.612  -0.087  0.00  0.00    +0.055 C 
ATOM      6  C   UNL     1       7.270  -9.669   1.360  0.00  0.00    +0.002 C 
ATOM      7  C   UNL     1       8.546 -10.527   1.173  0.00  0.00    -0.076 C 
ATOM      8  N   UNL     1       8.175 -11.538   0.160  0.00  0.00    +0.385 N 
ATOM      9  C   UNL     1       7.062 -11.006  -0.651  0.00  0.00    -0.056 C 
ATOM     10  H   UNL     1       7.887 -12.389   0.620  0.00  0.00    -0.081 HD
BRANCH   8  11
ATOM     11  C   UNL     1       9.328 -11.813  -0.708  0.00  0.00    -0.041 C 
ATOM     12  C   UNL     1      10.476 -12.376   0.132  0.00  0.00    -0.008 C 
BRANCH  11  13
ATOM     13  C   UNL     1       8.935 -12.819  -1.760  0.00  0.00    -0.061 A 
ATOM     14  C   UNL     1       8.118 -13.883  -1.428  0.00  0.00    +0.002 A 
ATOM     15  C   UNL     1       7.758 -14.806  -2.393  0.00  0.00    +0.000 A 
ATOM     16  C   UNL     1       8.215 -14.663  -3.690  0.00  0.00    +0.000 A 
ATOM     17  C   UNL     1       9.031 -13.598  -4.022  0.00  0.00    +0.000 A 
ATOM     18  C   UNL     1       9.388 -12.674  -3.058  0.00  0.00    +0.002 A 
ENDBRANCH  11  13
ENDBRANCH   8  11
ENDBRANCH   3   5
BRANCH   1  19
ATOM     19  C   UNL     1       3.273  -7.937  -0.059  0.00  0.00    +0.201 C 
BRANCH  19  23
ATOM     20  N   UNL     1       1.447  -4.746  -0.032  0.00  0.00    -0.295 N 
ATOM     21  C   UNL     1       1.710  -6.067  -0.040  0.00  0.00    +0.300 C 
ATOM     22  O   UNL     1       0.796  -6.870  -0.040  0.00  0.00    -0.253 OA
ATOM     23  N   UNL     1       2.986  -6.500  -0.050  0.00  0.00    -0.291 N 
ATOM     24  H   UNL     1       2.176  -4.106  -0.032  0.00  0.00    +0.151 HD
ATOM     25  H   UNL     1       3.716  -5.861  -0.050  0.00  0.00    +0.151 HD
BRANCH  20  26
ATOM     26  C   UNL     1       0.059  -4.275  -0.021  0.00  0.00    +0.141 C 
BRANCH  26  31
ATOM     27  C   UNL     1      -0.018   1.503   0.010  0.00  0.00    +0.044 C 
ATOM     28  C   UNL     1       0.002  -0.004   0.002  0.00  0.00    -0.050 A 
ATOM     29  C   UNL     1       0.006  -0.689  -1.199  0.00  0.00    +0.003 A 
ATOM     30  C   UNL     1       0.025  -2.071  -1.206  0.00  0.00    +0.005 A 
ATOM     31  C   UNL     1       0.040  -2.768  -0.013  0.00  0.00    -0.030 A 
ATOM     32  C   UNL     1       0.037  -2.084   1.188  0.00  0.00    +0.005 A 
ATOM     33  C   UNL     1       0.023  -0.702   1.195  0.00  0.00    +0.003 A 
ENDBRANCH  26  31
ENDBRANCH  20  26
ENDBRANCH  19  23
ENDBRANCH   1  19
TORSDOF 7
