REMARK  Name = ZINC20336964
REMARK  3 active torsions:
REMARK  status: ('A' for Active; 'I' for Inactive)
REMARK    1  A    between atoms: C_1  and  N_2
REMARK    2  A    between atoms: C_5  and  N_19
REMARK    3  A    between atoms: C_11  and  C_12
REMARK                            x       y       z     vdW  Elec       q    Type
REMARK                         _______ _______ _______ _____ _____    ______ ____
ROOT
ATOM      1  C   UNL     1      -4.097   3.023  -0.268  0.00  0.00    +0.139 C 
ATOM      2  N   UNL     1      -3.804   1.588  -0.268  0.00  0.00    -0.265 N 
ATOM      3  C   UNL     1      -4.769   0.664  -0.688  0.00  0.00    +0.081 A 
ATOM      4  C   UNL     1      -5.900   1.099  -1.362  0.00  0.00    +0.050 A 
ATOM      5  C   UNL     1      -6.854   0.181  -1.778  0.00  0.00    +0.027 A 
ATOM      6  C   UNL     1      -6.677  -1.172  -1.519  0.00  0.00    +0.026 A 
ATOM      7  C   UNL     1      -5.550  -1.608  -0.846  0.00  0.00    +0.050 A 
ATOM      8  C   UNL     1      -4.596  -0.695  -0.430  0.00  0.00    +0.150 A 
ATOM      9  O   UNL     1      -3.485  -1.123   0.229  0.00  0.00    -0.449 OA
ATOM     10  C   UNL     1      -2.377  -0.326   0.124  0.00  0.00    +0.194 C 
ATOM     11  C   UNL     1      -1.132  -0.855   0.008  0.00  0.00    +0.097 C 
ATOM     12  C   UNL     1      -2.595   1.131   0.138  0.00  0.00    +0.286 C 
ATOM     13  O   UNL     1      -1.720   1.897   0.501  0.00  0.00    -0.266 OA
ENDROOT
BRANCH  11  14
ATOM     14  C   UNL     1      -0.023  -0.008  -0.242  0.00  0.00    +0.131 A 
ATOM     15  C   UNL     1       1.304  -0.381  -0.221  0.00  0.00    +0.049 A 
ATOM     16  C   UNL     1       2.048   0.772  -0.525  0.00  0.00    +0.042 A 
ATOM     17  C   UNL     1       1.167   1.777  -0.715  0.00  0.00    +0.195 A 
ATOM     18  O   UNL     1      -0.077   1.305  -0.544  0.00  0.00    -0.463 OA
ENDBRANCH  11  14
BRANCH   5  19
ATOM     19  N   UNL     1      -7.995   0.618  -2.458  0.00  0.00    -0.358 N 
ATOM     20  H   UNL     1      -8.752  -0.109  -2.788  0.00  0.00    +0.142 HD
ATOM     21  H   UNL     1      -8.136   1.690  -2.663  0.00  0.00    +0.142 HD
ENDBRANCH   5  19
TORSDOF 2
