REMARK  Name = ZINC60767028
REMARK  6 active torsions:
REMARK  status: ('A' for Active; 'I' for Inactive)
REMARK    1  A    between atoms: C_2  and  C_27
REMARK    2  A    between atoms: C_3  and  N_26
REMARK    3  A    between atoms: C_5  and  S_9
REMARK    4  A    between atoms: C_6  and  C_7
REMARK    5  A    between atoms: S_9  and  C_10
REMARK    6  A    between atoms: C_10  and  C_11
REMARK                            x       y       z     vdW  Elec       q    Type
REMARK                         _______ _______ _______ _____ _____    ______ ____
ROOT
ATOM      1  C   UNL     1       3.051  -2.834  -0.042  0.00  0.00    +0.150 C 
ENDROOT
BRANCH   1   2
ATOM      2  C   UNL     1       3.228  -4.330  -0.052  0.00  0.00    +0.121 A 
ATOM      3  N   UNL     1       4.481  -4.854  -0.061  0.00  0.00    -0.310 N 
ATOM      4  H   UNL     1       5.246  -4.256  -0.061  0.00  0.00    +0.170 HD
ATOM      5  C   UNL     1       4.685  -6.184  -0.070  0.00  0.00    +0.260 A 
ATOM      6  O   UNL     1       5.816  -6.638  -0.077  0.00  0.00    -0.267 OA
ATOM      7  C   UNL     1       3.549  -7.059  -0.070  0.00  0.00    +0.075 A 
ATOM      8  C   UNL     1       3.527  -8.521  -0.079  0.00  0.00    -0.023 A 
ATOM      9  C   UNL     1       2.316  -9.115  -0.076  0.00  0.00    -0.004 A 
ATOM     10  S   UNL     1       1.149  -7.781  -0.061  0.00  0.00    -0.073 S 
ATOM     11  C   UNL     1       2.296  -6.426  -0.059  0.00  0.00    +0.116 A 
ATOM     12  N   UNL     1       2.174  -5.101  -0.046  0.00  0.00    -0.226 NA
ATOM     13  C   UNL     1       2.026 -10.585  -0.086  0.00  0.00    +0.043 C 
ATOM     14  C   UNL     1       3.311 -11.330  -0.474  0.00  0.00    +0.005 C 
ATOM     15  C   UNL     1       4.470 -10.777   0.361  0.00  0.00    +0.005 C 
ATOM     16  C   UNL     1       4.805  -9.355  -0.092  0.00  0.00    +0.037 C 
ENDBRANCH   1   2
BRANCH   1  17
ATOM     17  S   UNL     1       1.282  -2.434  -0.023  0.00  0.00    -0.097 S 
BRANCH  17  22
ATOM     18  C   UNL     1      -0.017   1.392   0.010  0.00  0.00    +0.043 A 
ATOM     19  C   UNL     1       1.204   2.072   0.002  0.00  0.00    +0.092 A 
ATOM     20  C   UNL     1       2.402   1.330  -0.014  0.00  0.00    +0.135 A 
ATOM     21  N   UNL     1       2.379   0.007  -0.021  0.00  0.00    -0.224 NA
ATOM     22  C   UNL     1       1.243  -0.673  -0.013  0.00  0.00    +0.117 A 
ATOM     23  C   UNL     1       0.002  -0.004   0.002  0.00  0.00    +0.085 A 
BRANCH  20  24
ATOM     24  N   UNL     1       3.613   1.991  -0.022  0.00  0.00    -0.342 N 
ATOM     25  H   UNL     1       3.636   2.961  -0.018  0.00  0.00    +0.144 HD
ATOM     26  H   UNL     1       4.441   1.486  -0.033  0.00  0.00    +0.144 HD
ENDBRANCH  20  24
BRANCH  23  27
ATOM     27  C   UNL     1      -1.222  -0.746   0.010  0.00  0.00    +0.102 C 
ATOM     28  N   UNL     1      -2.194  -1.335   0.017  0.00  0.00    -0.191 NA
ENDBRANCH  23  27
BRANCH  19  29
ATOM     29  C   UNL     1       1.238   3.503   0.009  0.00  0.00    +0.103 C 
ATOM     30  N   UNL     1       1.264   4.639   0.014  0.00  0.00    -0.191 NA
ENDBRANCH  19  29
ENDBRANCH  17  22
ENDBRANCH   1  17
TORSDOF 6
