REMARK  Name = ZINC52560714
REMARK  8 active torsions:
REMARK  status: ('A' for Active; 'I' for Inactive)
REMARK    1  A    between atoms: C_1  and  C_2
REMARK    2  A    between atoms: N_11  and  C_12
REMARK    3  A    between atoms: C_12  and  C_13
REMARK    4  A    between atoms: C_18  and  O_19
REMARK    5  A    between atoms: O_19  and  C_20
REMARK    6  A    between atoms: C_20  and  C_21
REMARK    7  A    between atoms: C_21  and  C_22
REMARK    8  A    between atoms: C_21  and  C_23
REMARK                            x       y       z     vdW  Elec       q    Type
REMARK                         _______ _______ _______ _____ _____    ______ ____
ROOT
ATOM      1  C   UNL     1       2.492   0.777   4.138  0.00  0.00    +0.144 C 
ENDROOT
BRANCH   1  11
ATOM      2  C   UNL     1       0.005   1.527  -0.004  0.00  0.00    +0.030 C 
ATOM      3  C   UNL     1       0.011  -0.003  -0.004  0.00  0.00    +0.100 C 
ATOM      4  C   UNL     1       0.630  -0.517  -1.308  0.00  0.00    +0.182 C 
ATOM      5  O   UNL     1       0.802  -1.933  -1.222  0.00  0.00    -0.376 OA
ATOM      6  C   UNL     1       1.699  -2.353  -0.191  0.00  0.00    +0.179 C 
ATOM      7  C   UNL     1       1.135  -1.933   1.171  0.00  0.00    +0.137 C 
ATOM      8  N   UNL     1       0.822  -0.495   1.121  0.00  0.00    -0.278 N 
ATOM      9  C   UNL     1       1.265   0.345   2.077  0.00  0.00    +0.303 C 
ATOM     10  O   UNL     1       0.913   1.508   2.075  0.00  0.00    -0.253 OA
ATOM     11  N   UNL     1       2.099  -0.105   3.035  0.00  0.00    -0.295 N 
ATOM     12  H   UNL     1       2.440  -1.012   2.995  0.00  0.00    +0.151 HD
ENDBRANCH   1  11
BRANCH   1  13
ATOM     13  C   UNL     1       3.422   0.038   5.065  0.00  0.00    +0.011 A 
ATOM     14  C   UNL     1       2.938  -0.512   6.237  0.00  0.00    +0.009 A 
ATOM     15  C   UNL     1       3.791  -1.189   7.088  0.00  0.00    +0.001 A 
ATOM     16  C   UNL     1       5.130  -1.319   6.769  0.00  0.00    +0.004 A 
ATOM     17  C   UNL     1       5.619  -0.771   5.599  0.00  0.00    +0.046 A 
ATOM     18  C   UNL     1       4.764  -0.096   4.740  0.00  0.00    +0.125 A 
BRANCH  18  19
ATOM     19  O   UNL     1       5.242   0.439   3.586  0.00  0.00    -0.491 OA
BRANCH  19  20
ATOM     20  C   UNL     1       6.634   0.263   3.316  0.00  0.00    +0.232 C 
BRANCH  20  21
ATOM     21  C   UNL     1       6.983   0.927   1.983  0.00  0.00    +0.020 C 
ATOM     22  C   UNL     1       6.782   2.439   2.099  0.00  0.00    +0.010 C 
ATOM     23  C   UNL     1       8.444   0.632   1.634  0.00  0.00    +0.010 C 
ENDBRANCH  20  21
ENDBRANCH  19  20
ENDBRANCH  18  19
ENDBRANCH   1  13
TORSDOF 5
