REMARK  Name = ZINC40755853
REMARK  6 active torsions:
REMARK  status: ('A' for Active; 'I' for Inactive)
REMARK    1  A    between atoms: C_1  and  O_2
REMARK    2  A    between atoms: O_2  and  C_3
REMARK    3  A    between atoms: C_3  and  C_5
REMARK    4  A    between atoms: C_12  and  N_28
REMARK    5  A    between atoms: C_13  and  N_17
REMARK    6  A    between atoms: N_17  and  C_18
REMARK                            x       y       z     vdW  Elec       q    Type
REMARK                         _______ _______ _______ _____ _____    ______ ____
ROOT
ATOM      1  C   UNL     1      -0.015  -2.920  -0.038  0.00  0.00    +0.101 C 
ATOM      2  C   UNL     1       0.096  -4.440  -0.181  0.00  0.00    +0.033 C 
ATOM      3  C   UNL     1      -1.304  -5.058  -0.125  0.00  0.00    +0.107 C 
ATOM      4  N   UNL     1      -1.967  -4.615   1.109  0.00  0.00    -0.314 N 
ATOM      5  C   UNL     1      -2.049  -3.175   1.390  0.00  0.00    +0.107 C 
ATOM      6  C   UNL     1      -0.640  -2.578   1.316  0.00  0.00    +0.033 C 
ATOM      7  C   UNL     1      -2.507  -5.540   1.995  0.00  0.00    +0.147 A 
ATOM      8  C   UNL     1      -3.853  -5.903   1.908  0.00  0.00    +0.105 A 
ATOM      9  C   UNL     1      -4.344  -6.837   2.821  0.00  0.00    +0.145 A 
ATOM     10  N   UNL     1      -3.518  -7.343   3.733  0.00  0.00    -0.219 NA
ATOM     11  C   UNL     1      -2.254  -6.974   3.781  0.00  0.00    +0.225 A 
ATOM     12  N   UNL     1      -1.749  -6.099   2.935  0.00  0.00    -0.219 NA
ENDROOT
BRANCH   8  13
ATOM     13  N   UNL     1      -4.689  -5.342   0.928  0.00  0.00    -0.353 N 
ATOM     14  H   UNL     1      -4.316  -4.764   0.245  0.00  0.00    +0.143 HD
ATOM     15  H   UNL     1      -5.640  -5.534   0.935  0.00  0.00    +0.143 HD
ENDBRANCH   8  13
BRANCH   1  16
ATOM     16  C   UNL     1       1.358  -2.306  -0.128  0.00  0.00    +0.310 C 
ATOM     17  O   UNL     1       1.792  -1.660   0.796  0.00  0.00    -0.251 OA
BRANCH  16  19
ATOM     18  C   UNL     1       3.390  -1.865  -1.251  0.00  0.00    +0.280 C 
ATOM     19  O   UNL     1       2.098  -2.475  -1.235  0.00  0.00    -0.468 OA
ENDBRANCH  16  19
ENDBRANCH   1  16
BRANCH   9  20
ATOM     20  N   UNL     1      -5.676  -7.232   2.779  0.00  0.00    -0.322 N 
ATOM     21  H   UNL     1      -6.272  -6.858   2.111  0.00  0.00    +0.148 HD
BRANCH  20  22
ATOM     22  C   UNL     1      -6.180  -8.213   3.743  0.00  0.00    +0.034 C 
ATOM     23  C   UNL     1      -6.000  -7.672   5.163  0.00  0.00    +0.029 C 
ATOM     24  C   UNL     1      -6.526  -8.697   6.170  0.00  0.00    -0.008 C 
ATOM     25  C   UNL     1      -8.011  -8.954   5.907  0.00  0.00    +0.007 C 
ATOM     26  C   UNL     1      -8.191  -9.496   4.487  0.00  0.00    -0.008 C 
ATOM     27  C   UNL     1      -7.665  -8.471   3.480  0.00  0.00    +0.029 C 
ATOM     28  C   UNL     1      -7.412 -10.804   4.337  0.00  0.00    +0.007 C 
ATOM     29  C   UNL     1      -5.927 -10.546   4.600  0.00  0.00    -0.008 C 
ATOM     30  C   UNL     1      -5.747 -10.005   6.020  0.00  0.00    +0.007 C 
ATOM     31  C   UNL     1      -5.401  -9.522   3.593  0.00  0.00    +0.029 C 
ENDBRANCH  20  22
ENDBRANCH   9  20
TORSDOF 5
