REMARK  Name = ZINC15388583
REMARK  8 active torsions:
REMARK  status: ('A' for Active; 'I' for Inactive)
REMARK    1  A    between atoms: C_1  and  N_2
REMARK    2  A    between atoms: N_2  and  C_3
REMARK    3  A    between atoms: C_3  and  C_4
REMARK    4  A    between atoms: N_6  and  C_7
REMARK    5  A    between atoms: C_14  and  C_16
REMARK    6  A    between atoms: C_16  and  C_17
REMARK    7  A    between atoms: C_17  and  N_18
REMARK    8  A    between atoms: N_21  and  C_22
REMARK                            x       y       z     vdW  Elec       q    Type
REMARK                         _______ _______ _______ _____ _____    ______ ____
ROOT
ATOM      1  C   UNL     1       4.085  -0.364   1.159  0.00  0.00    +0.114 C 
ENDROOT
BRANCH   1   4
ATOM      2  C   UNL     1       2.966   0.584  -1.266  0.00  0.00    +0.132 C 
ATOM      3  N   UNL     1       2.406   1.042   0.008  0.00  0.00    -0.296 N 
ATOM      4  C   UNL     1       2.927   0.601   1.170  0.00  0.00    +0.217 C 
ATOM      5  O   UNL     1       2.463   0.980   2.225  0.00  0.00    -0.276 OA
BRANCH   3   6
ATOM      6  C   UNL     1       1.280   1.979   0.019  0.00  0.00    +0.203 C 
BRANCH   6   7
ATOM      7  C   UNL     1      -0.015   1.208   0.015  0.00  0.00    +0.235 C 
ATOM      8  O   UNL     1       0.001  -0.005   0.005  0.00  0.00    -0.274 OA
ATOM      9  N   UNL     1      -1.191   1.867   0.018  0.00  0.00    -0.283 N 
ATOM     10  H   UNL     1      -1.205   2.834   0.092  0.00  0.00    +0.155 HD
BRANCH   9  11
ATOM     11  C   UNL     1      -2.392   1.155  -0.086  0.00  0.00    +0.052 A 
ATOM     12  C   UNL     1      -2.510  -0.099   0.499  0.00  0.00    +0.025 A 
ATOM     13  C   UNL     1      -3.698  -0.796   0.399  0.00  0.00    +0.002 A 
ATOM     14  C   UNL     1      -4.766  -0.253  -0.291  0.00  0.00    +0.002 A 
ATOM     15  C   UNL     1      -4.650   0.993  -0.880  0.00  0.00    +0.022 A 
ATOM     16  C   UNL     1      -3.466   1.699  -0.779  0.00  0.00    +0.062 A 
ATOM     17 CL   UNL     1      -3.320   3.263  -1.519  0.00  0.00    -0.082 Cl
ENDBRANCH   9  11
ENDBRANCH   6   7
ENDBRANCH   3   6
ENDBRANCH   1   4
BRANCH   1  18
ATOM     18  C   UNL     1       4.481  -0.702   2.598  0.00  0.00    +0.115 C 
BRANCH  18  19
ATOM     19  N   UNL     1       5.606  -1.639   2.588  0.00  0.00    -0.299 N 
ATOM     20  C   UNL     1       6.127  -2.080   3.750  0.00  0.00    +0.300 C 
ATOM     21  O   UNL     1       5.662  -1.700   4.807  0.00  0.00    -0.253 OA
ATOM     22  N   UNL     1       7.163  -2.943   3.740  0.00  0.00    -0.294 N 
ATOM     23  H   UNL     1       5.977  -1.942   1.744  0.00  0.00    +0.150 HD
ATOM     24  H   UNL     1       7.534  -3.246   2.897  0.00  0.00    +0.151 HD
BRANCH  22  25
ATOM     25  C   UNL     1       7.729  -3.422   5.004  0.00  0.00    +0.037 C 
ATOM     26  C   UNL     1       8.246  -2.232   5.815  0.00  0.00    +0.029 C 
ATOM     27  C   UNL     1       8.837  -2.733   7.134  0.00  0.00    -0.008 C 
ATOM     28  C   UNL     1       9.992  -3.693   6.844  0.00  0.00    +0.007 C 
ATOM     29  C   UNL     1       9.475  -4.883   6.033  0.00  0.00    -0.008 C 
ATOM     30  C   UNL     1       8.884  -4.382   4.713  0.00  0.00    +0.029 C 
ATOM     31  C   UNL     1       8.394  -5.613   6.831  0.00  0.00    +0.007 C 
ATOM     32  C   UNL     1       7.238  -4.653   7.122  0.00  0.00    -0.008 C 
ATOM     33  C   UNL     1       7.755  -3.464   7.933  0.00  0.00    +0.007 C 
ATOM     34  C   UNL     1       6.647  -4.153   5.802  0.00  0.00    +0.029 C 
ENDBRANCH  22  25
ENDBRANCH  18  19
ENDBRANCH   1  18
TORSDOF 7
