REMARK  Name = ZINC41017026
REMARK  11 active torsions:
REMARK  status: ('A' for Active; 'I' for Inactive)
REMARK    1  A    between atoms: C_1  and  C_2
REMARK    2  A    between atoms: N_6  and  C_29
REMARK    3  A    between atoms: C_9  and  N_14
REMARK    4  A    between atoms: C_15  and  C_17
REMARK    5  A    between atoms: C_17  and  O_18
REMARK    6  A    between atoms: O_18  and  C_19
REMARK    7  A    between atoms: C_22  and  C_25
REMARK    8  A    between atoms: C_25  and  C_26
REMARK    9  A    between atoms: C_25  and  C_27
REMARK   10  A    between atoms: C_25  and  C_28
REMARK   11  A    between atoms: C_29  and  C_30
REMARK                            x       y       z     vdW  Elec       q    Type
REMARK                         _______ _______ _______ _____ _____    ______ ____
ROOT
ATOM      1  N   UNL     1       6.197   0.088   1.141  0.00  0.00    -0.283 N 
ATOM      2  C   UNL     1       6.845   0.415   2.277  0.00  0.00    +0.255 C 
ATOM      3  O   UNL     1       6.234   0.494   3.322  0.00  0.00    -0.272 OA
ATOM      4  H   UNL     1       6.695  -0.041   0.319  0.00  0.00    +0.155 HD
ENDROOT
BRANCH   1  12
ATOM      5  C   UNL     1      -0.055   1.788   1.220  0.00  0.00    +0.062 C 
ATOM      6  C   UNL     1      -0.052   0.469   0.444  0.00  0.00    +0.256 C 
ATOM      7  C   UNL     1       0.577   0.684  -0.909  0.00  0.00    +0.261 C 
ATOM      8  O   UNL     1      -0.114   0.981  -1.861  0.00  0.00    -0.271 OA
ATOM      9  N   UNL     1       1.912   0.544  -1.057  0.00  0.00    -0.261 N 
ATOM     10  C   UNL     1       2.683   0.166   0.052  0.00  0.00    +0.080 A 
ATOM     11  C   UNL     1       4.059   0.318   0.040  0.00  0.00    +0.050 A 
ATOM     12  C   UNL     1       4.804  -0.064   1.148  0.00  0.00    +0.035 A 
ATOM     13  C   UNL     1       4.170  -0.598   2.262  0.00  0.00    +0.027 A 
ATOM     14  C   UNL     1       2.796  -0.750   2.274  0.00  0.00    +0.049 A 
ATOM     15  C   UNL     1       2.049  -0.369   1.173  0.00  0.00    +0.143 A 
ATOM     16  O   UNL     1       0.696  -0.509   1.171  0.00  0.00    -0.478 OA
BRANCH   9  17
ATOM     17  C   UNL     1       2.545   0.784  -2.356  0.00  0.00    +0.140 C 
BRANCH  17  18
ATOM     18  C   UNL     1       2.943   2.234  -2.460  0.00  0.00    -0.015 C 
ATOM     19  C   UNL     1       4.183   2.555  -2.735  0.00  0.00    +0.005 C 
ENDBRANCH  17  18
ENDBRANCH   9  17
ENDBRANCH   1  12
BRANCH   2  20
ATOM     20  C   UNL     1       8.328   0.680   2.249  0.00  0.00    +0.324 C 
BRANCH  20  21
ATOM     21  O   UNL     1       8.779   1.004   3.565  0.00  0.00    -0.483 OA
BRANCH  21  22
ATOM     22  C   UNL     1      10.102   1.273   3.715  0.00  0.00    +0.121 A 
ATOM     23  C   UNL     1      10.948   1.233   2.617  0.00  0.00    +0.046 A 
ATOM     24  C   UNL     1      12.293   1.507   2.772  0.00  0.00    +0.008 A 
ATOM     25  C   UNL     1      12.796   1.822   4.021  0.00  0.00    -0.042 A 
ATOM     26  C   UNL     1      11.955   1.863   5.117  0.00  0.00    +0.008 A 
ATOM     27  C   UNL     1      10.608   1.595   4.966  0.00  0.00    +0.046 A 
BRANCH  25  28
ATOM     28  C   UNL     1      14.264   2.121   4.187  0.00  0.00    -0.013 C 
ATOM     29  C   UNL     1      14.641   3.325   3.322  0.00  0.00    +0.015 C 
ATOM     30  C   UNL     1      14.557   2.436   5.655  0.00  0.00    +0.015 C 
ATOM     31  C   UNL     1      15.085   0.904   3.753  0.00  0.00    +0.015 C 
ENDBRANCH  25  28
ENDBRANCH  21  22
ENDBRANCH  20  21
ENDBRANCH   2  20
TORSDOF 7
