REMARK  Name = ZINC36816512
REMARK  8 active torsions:
REMARK  status: ('A' for Active; 'I' for Inactive)
REMARK    1  A    between atoms: C_1  and  O_2
REMARK    2  A    between atoms: O_2  and  C_3
REMARK    3  A    between atoms: C_3  and  CA_5
REMARK    4  A    between atoms: CA_5  and  C_7
REMARK    5  A    between atoms: CA_5  and  N_9
REMARK    6  A    between atoms: C_7  and  O_8
REMARK    7  A    between atoms: C_10  and  C_12
REMARK    8  A    between atoms: C_21  and  O_22
REMARK                            x       y       z     vdW  Elec       q    Type
REMARK                         _______ _______ _______ _____ _____    ______ ____
ROOT
ATOM      1  N   UNL     1       1.354  -2.503  -2.345  0.00  0.00    -0.296 N 
ATOM      2  C   UNL     1       1.111  -3.709  -2.896  0.00  0.00    +0.248 C 
ATOM      3  O   UNL     1       0.314  -4.465  -2.376  0.00  0.00    -0.270 OA
ATOM      4  H   UNL     1       1.990  -1.899  -2.760  0.00  0.00    +0.150 HD
ENDROOT
BRANCH   2   5
ATOM      5  C   UNL     1       1.811  -4.110  -4.128  0.00  0.00    +0.079 A 
ATOM      6  C   UNL     1       2.737  -3.234  -4.724  0.00  0.00    +0.017 A 
ATOM      7  C   UNL     1       3.395  -3.580  -5.858  0.00  0.00    +0.009 A 
ATOM      8  C   UNL     1       3.158  -4.832  -6.460  0.00  0.00    -0.014 A 
ATOM      9  C   UNL     1       3.830  -5.207  -7.635  0.00  0.00    +0.008 A 
ATOM     10  C   UNL     1       3.582  -6.423  -8.195  0.00  0.00    +0.001 A 
ATOM     11  C   UNL     1       2.670  -7.305  -7.621  0.00  0.00    +0.001 A 
ATOM     12  C   UNL     1       2.000  -6.974  -6.482  0.00  0.00    +0.012 A 
ATOM     13  C   UNL     1       2.230  -5.728  -5.877  0.00  0.00    +0.024 A 
ATOM     14  C   UNL     1       1.557  -5.357  -4.694  0.00  0.00    +0.137 A 
BRANCH  14  15
ATOM     15  O   UNL     1       0.670  -6.203  -4.118  0.00  0.00    -0.505 OA
ATOM     16  H   UNL     1      -0.238  -6.096  -4.435  0.00  0.00    +0.292 HD
ENDBRANCH  14  15
ENDBRANCH   2   5
BRANCH   1  17
ATOM     17  CA  UNL     1       0.657  -2.104  -1.120  0.00  0.00    +0.208 C 
BRANCH  17  18
ATOM     18  C   UNL     1       0.598  -0.600  -1.043  0.00  0.00    +0.330 C 
ATOM     19  O   UNL     1       1.088   0.070  -1.921  0.00  0.00    -0.249 OA
BRANCH  18  21
ATOM     20  C   UNL     1      -0.017   1.425   0.010  0.00  0.00    +0.280 C 
ATOM     21  O   UNL     1       0.002  -0.004   0.002  0.00  0.00    -0.467 OA
ENDBRANCH  18  21
ENDBRANCH  17  18
BRANCH  17  22
ATOM     22  C   UNL     1       1.412  -2.647   0.096  0.00  0.00    +0.189 C 
BRANCH  22  23
ATOM     23  O   UNL     1       2.698  -2.030   0.173  0.00  0.00    -0.393 OA
ATOM     24  H   UNL     1       3.233  -2.327   0.922  0.00  0.00    +0.209 HD
ENDBRANCH  22  23
ENDBRANCH  17  22
ENDBRANCH   1  17
TORSDOF 7
