REMARK  Name = ZINC36225199
REMARK  8 active torsions:
REMARK  status: ('A' for Active; 'I' for Inactive)
REMARK    1  A    between atoms: C_1  and  C_2
REMARK    2  A    between atoms: C_3  and  C_25
REMARK    3  A    between atoms: C_5  and  S_8
REMARK    4  A    between atoms: S_8  and  C_9
REMARK    5  A    between atoms: C_9  and  C_10
REMARK    6  A    between atoms: C_12  and  O_13
REMARK    7  A    between atoms: C_22  and  C_24
REMARK    8  A    between atoms: C_25  and  C_26
REMARK                            x       y       z     vdW  Elec       q    Type
REMARK                         _______ _______ _______ _____ _____    ______ ____
ROOT
ATOM      1  C   UNL     1      -6.518   2.843  -1.900  0.00  0.00    -0.020 A 
ATOM      2  C   UNL     1      -6.869   4.148  -2.182  0.00  0.00    +0.092 A 
ATOM      3  C   UNL     1      -8.127   4.431  -2.695  0.00  0.00    +0.285 A 
ATOM      4  O   UNL     1      -9.018   3.461  -2.927  0.00  0.00    -0.425 OA
ATOM      5  C   UNL     1      -8.727   2.169  -2.670  0.00  0.00    +0.141 A 
ATOM      6  C   UNL     1      -7.459   1.823  -2.152  0.00  0.00    +0.022 A 
ATOM      7  C   UNL     1      -7.150   0.476  -1.888  0.00  0.00    +0.013 A 
ATOM      8  C   UNL     1      -8.070  -0.492  -2.136  0.00  0.00    +0.024 A 
ATOM      9  C   UNL     1      -9.332  -0.157  -2.657  0.00  0.00    +0.037 A 
ATOM     10  C   UNL     1      -9.658   1.176  -2.914  0.00  0.00    +0.070 A 
ATOM     11  N   UNL     1     -10.245  -1.137  -2.902  0.00  0.00    -0.286 N 
ATOM     12  C   UNL     1     -11.289  -0.888  -3.669  0.00  0.00    +0.214 C 
ATOM     13  O   UNL     1     -11.374   0.175  -4.256  0.00  0.00    -0.276 OA
ATOM     14  C   UNL     1     -12.376  -1.921  -3.819  0.00  0.00    +0.109 C 
ATOM     15  H   UNL     1     -10.128  -2.017  -2.512  0.00  0.00    +0.155 HD
ENDROOT
BRANCH   3  16
ATOM     16  O   UNL     1      -8.457   5.708  -2.965  0.00  0.00    -0.480 OA
ATOM     17  H   UNL     1      -9.350   5.817  -3.319  0.00  0.00    +0.295 HD
ENDBRANCH   3  16
BRANCH   1  18
ATOM     18  C   UNL     1      -5.157   2.515  -1.343  0.00  0.00    +0.113 C 
BRANCH  18  19
ATOM     19  S   UNL     1      -3.916   2.647  -2.659  0.00  0.00    -0.083 S 
BRANCH  19  24
ATOM     20  C   UNL     1      -0.392   1.273   0.998  0.00  0.00    +0.067 C 
ATOM     21  C   UNL     1      -0.966   1.673  -0.337  0.00  0.00    +0.060 A 
ATOM     22  C   UNL     1      -0.270   1.841  -1.474  0.00  0.00    +0.043 A 
ATOM     23  N   UNL     1      -1.173   2.202  -2.448  0.00  0.00    -0.336 N 
ATOM     24  C   UNL     1      -2.400   2.240  -1.859  0.00  0.00    +0.167 A 
ATOM     25  N   UNL     1      -2.262   1.915  -0.594  0.00  0.00    -0.227 NA
ATOM     26  H   UNL     1      -0.974   2.394  -3.378  0.00  0.00    +0.168 HD
BRANCH  22  27
ATOM     27  C   UNL     1       1.217   1.669  -1.649  0.00  0.00    +0.090 C 
BRANCH  27  28
ATOM     28  C   UNL     1       1.527   0.218  -1.911  0.00  0.00    -0.042 A 
ATOM     29  C   UNL     1       1.781  -0.636  -0.853  0.00  0.00    +0.004 A 
ATOM     30  C   UNL     1       2.066  -1.967  -1.093  0.00  0.00    +0.000 A 
ATOM     31  C   UNL     1       2.096  -2.445  -2.390  0.00  0.00    +0.000 A 
ATOM     32  C   UNL     1       1.841  -1.591  -3.447  0.00  0.00    +0.000 A 
ATOM     33  C   UNL     1       1.552  -0.261  -3.207  0.00  0.00    +0.004 A 
ENDBRANCH  27  28
ENDBRANCH  22  27
ENDBRANCH  19  24
ENDBRANCH  18  19
ENDBRANCH   1  18
TORSDOF 6
