REMARK  Name = ZINC19897972
REMARK  8 active torsions:
REMARK  status: ('A' for Active; 'I' for Inactive)
REMARK    1  A    between atoms: C_1  and  C_2
REMARK    2  A    between atoms: C_3  and  C_22
REMARK    3  A    between atoms: C_10  and  C_12
REMARK    4  A    between atoms: C_16  and  N_18
REMARK    5  A    between atoms: C_22  and  C_24
REMARK    6  A    between atoms: C_22  and  C_30
REMARK    7  A    between atoms: C_30  and  C_32
REMARK    8  A    between atoms: C_30  and  C_34
REMARK                            x       y       z     vdW  Elec       q    Type
REMARK                         _______ _______ _______ _____ _____    ______ ____
ROOT
ATOM      1  C   UNL     1       0.127   1.113   0.014  0.00  0.00    +0.065 C 
ATOM      2  C   UNL     1      -0.649   1.574  -1.192  0.00  0.00    +0.039 A 
ATOM      3  C   UNL     1      -0.915   2.855  -1.517  0.00  0.00    +0.048 A 
ATOM      4  C   UNL     1      -1.664   2.858  -2.716  0.00  0.00    +0.277 A 
ATOM      5  N   UNL     1      -1.836   1.575  -3.094  0.00  0.00    -0.194 N 
ATOM      6  N   UNL     1      -1.198   0.764  -2.146  0.00  0.00    -0.292 N 
ATOM      7  C   UNL     1      -2.518   1.137  -4.220  0.00  0.00    +0.196 A 
ATOM      8  N   UNL     1      -3.122   1.859  -5.141  0.00  0.00    -0.229 NA
ATOM      9  C   UNL     1      -3.731   1.294  -6.162  0.00  0.00    +0.129 A 
ATOM     10  C   UNL     1      -3.704  -0.075  -6.214  0.00  0.00    +0.041 A 
ATOM     11  S   UNL     1      -2.765  -0.444  -4.741  0.00  0.00    -0.048 S 
ATOM     12  O   UNL     1      -2.079   3.842  -3.302  0.00  0.00    -0.265 OA
ATOM     13  H   UNL     1      -1.155  -0.205  -2.163  0.00  0.00    +0.187 HD
ENDROOT
BRANCH  10  14
ATOM     14  C   UNL     1      -4.287  -0.992  -7.215  0.00  0.00    -0.008 A 
ATOM     15  C   UNL     1      -4.984  -0.481  -8.312  0.00  0.00    +0.009 A 
ATOM     16  C   UNL     1      -5.525  -1.343  -9.243  0.00  0.00    +0.003 A 
ATOM     17  C   UNL     1      -5.379  -2.711  -9.092  0.00  0.00    +0.033 A 
ATOM     18  C   UNL     1      -4.690  -3.223  -8.008  0.00  0.00    +0.127 A 
ATOM     19  C   UNL     1      -4.138  -2.372  -7.072  0.00  0.00    +0.041 A 
BRANCH  18  20
ATOM     20  N   UNL     1      -4.539  -4.688  -7.854  0.00  0.00    +0.056 N 
ATOM     21  O   UNL     1      -5.018  -5.434  -8.675  0.00  0.00    -0.126 OA
ATOM     22  O   UNL     1      -3.938  -5.137  -6.907  0.00  0.00    -0.126 OA
ENDBRANCH  18  20
ENDBRANCH  10  14
BRANCH   3  23
ATOM     23  C   UNL     1      -0.489   4.072  -0.737  0.00  0.00    +0.082 C 
BRANCH  23  24
ATOM     24  C   UNL     1       0.526   4.850  -1.534  0.00  0.00    -0.038 A 
ATOM     25  C   UNL     1       0.152   5.473  -2.709  0.00  0.00    +0.004 A 
ATOM     26  C   UNL     1       1.084   6.186  -3.440  0.00  0.00    +0.000 A 
ATOM     27  C   UNL     1       2.390   6.276  -2.995  0.00  0.00    +0.000 A 
ATOM     28  C   UNL     1       2.764   5.653  -1.819  0.00  0.00    +0.000 A 
ATOM     29  C   UNL     1       1.831   4.943  -1.086  0.00  0.00    +0.004 A 
ENDBRANCH  23  24
BRANCH  23  30
ATOM     30  C   UNL     1      -1.708   4.956  -0.464  0.00  0.00    +0.189 C 
BRANCH  30  31
ATOM     31  C   UNL     1      -1.282   6.173   0.316  0.00  0.00    +0.228 C 
ATOM     32  O   UNL     1      -1.757   6.388   1.411  0.00  0.00    -0.275 OA
ATOM     33  N   UNL     1      -0.374   7.022  -0.203  0.00  0.00    -0.328 N 
ATOM     34  H   UNL     1       0.006   6.850  -1.079  0.00  0.00    +0.145 HD
ATOM     35  H   UNL     1      -0.100   7.806   0.299  0.00  0.00    +0.145 HD
ENDBRANCH  30  31
BRANCH  30  36
ATOM     36  C   UNL     1      -2.700   4.197   0.314  0.00  0.00    +0.076 C 
ATOM     37  N   UNL     1      -3.466   3.611   0.915  0.00  0.00    -0.196 NA
ENDBRANCH  30  36
ENDBRANCH  23  30
ENDBRANCH   3  23
TORSDOF 7
