REMARK  Name = ZINC07505926
REMARK  7 active torsions:
REMARK  status: ('A' for Active; 'I' for Inactive)
REMARK    1  A    between atoms: C_3  and  O_27
REMARK    2  A    between atoms: C_4  and  C_8
REMARK    3  A    between atoms: C_8  and  O_10
REMARK    4  A    between atoms: O_10  and  C_11
REMARK    5  A    between atoms: C_11  and  C_12
REMARK    6  A    between atoms: N_14  and  C_15
REMARK    7  A    between atoms: C_16  and  C_24
REMARK                            x       y       z     vdW  Elec       q    Type
REMARK                         _______ _______ _______ _____ _____    ______ ____
ROOT
ATOM      1  C   UNL     1       3.438   7.473   0.009  0.00  0.00    +0.255 C 
ATOM      2  O   UNL     1       2.308   7.913   0.022  0.00  0.00    -0.272 OA
ATOM      3  N   UNL     1       4.490   8.316   0.003  0.00  0.00    -0.277 N 
ATOM      4  H   UNL     1       5.394   7.964  -0.008  0.00  0.00    +0.155 HD
ENDROOT
BRANCH   3   5
ATOM      5  C   UNL     1       4.279   9.686   0.012  0.00  0.00    +0.084 A 
ATOM      6  C   UNL     1       5.223  10.704   0.014  0.00  0.00    +0.068 A 
ATOM      7  C   UNL     1       4.736  12.072   0.021  0.00  0.00    -0.023 A 
ATOM      8  C   UNL     1       3.391  12.204   0.036  0.00  0.00    -0.004 A 
ATOM      9  S   UNL     1       2.774  10.544   0.032  0.00  0.00    -0.077 S 
ATOM     10  C   UNL     1       2.609  13.481   0.052  0.00  0.00    +0.043 C 
ATOM     11  C   UNL     1       3.560  14.626   0.428  0.00  0.00    +0.005 C 
ATOM     12  C   UNL     1       4.829  14.513  -0.423  0.00  0.00    +0.005 C 
ATOM     13  C   UNL     1       5.644  13.296   0.019  0.00  0.00    +0.037 C 
BRANCH   6  14
ATOM     14  C   UNL     1       6.659  10.408   0.004  0.00  0.00    +0.244 C 
ATOM     15  O   UNL     1       7.250  10.293  -1.054  0.00  0.00    -0.270 OA
ATOM     16  N   UNL     1       7.325  10.264   1.167  0.00  0.00    -0.325 N 
ATOM     17  H   UNL     1       6.855  10.356   2.010  0.00  0.00    +0.145 HD
ATOM     18  H   UNL     1       8.275  10.069   1.161  0.00  0.00    +0.145 HD
ENDBRANCH   6  14
ENDBRANCH   3   5
BRANCH   1  19
ATOM     19  C   UNL     1       3.667   5.983  -0.002  0.00  0.00    +0.328 C 
BRANCH  19  20
ATOM     20  O   UNL     1       2.387   5.297   0.007  0.00  0.00    -0.452 OA
BRANCH  20  21
ATOM     21  C   UNL     1       2.416   3.950  -0.000  0.00  0.00    +0.343 C 
ATOM     22  O   UNL     1       3.480   3.365  -0.014  0.00  0.00    -0.245 OA
BRANCH  21  26
ATOM     23  C   UNL     1      -1.218   1.749   0.017  0.00  0.00    +0.023 A 
ATOM     24  C   UNL     1      -0.013   1.076   0.008  0.00  0.00    +0.047 A 
ATOM     25  C   UNL     1       1.179   1.784   0.000  0.00  0.00    +0.131 A 
ATOM     26  C   UNL     1       1.155   3.186   0.008  0.00  0.00    +0.102 A 
ATOM     27  C   UNL     1      -0.072   3.855   0.024  0.00  0.00    +0.038 A 
ATOM     28  C   UNL     1      -1.248   3.135   0.031  0.00  0.00    +0.042 A 
ATOM     29 CL   UNL     1      -2.771   3.967   0.050  0.00  0.00    -0.084 Cl
BRANCH  25  30
ATOM     30  O   UNL     1       2.364   1.124  -0.015  0.00  0.00    -0.506 OA
ATOM     31  H   UNL     1       2.699   0.937  -0.903  0.00  0.00    +0.292 HD
ENDBRANCH  25  30
ENDBRANCH  21  26
ENDBRANCH  20  21
ENDBRANCH  19  20
ENDBRANCH   1  19
TORSDOF 7
