REMARK  Name = ZINC36635771
REMARK  6 active torsions:
REMARK  status: ('A' for Active; 'I' for Inactive)
REMARK    1  A    between atoms: C_1  and  C_2
REMARK    2  A    between atoms: C_4  and  C_25
REMARK    3  A    between atoms: C_5  and  N_9
REMARK    4  A    between atoms: C_6  and  C_8
REMARK    5  A    between atoms: N_9  and  C_10
REMARK    6  A    between atoms: N_15  and  C_18
REMARK                            x       y       z     vdW  Elec       q    Type
REMARK                         _______ _______ _______ _____ _____    ______ ____
ROOT
ATOM      1  C   UNL     1       2.221  -4.370   0.560  0.00  0.00    +0.166 C 
ATOM      2  C   UNL     1       3.556  -5.091   0.279  0.00  0.00    +0.128 C 
ATOM      3  C   UNL     1       3.150  -6.541   0.125  0.00  0.00    +0.229 C 
ATOM      4  O   UNL     1       3.905  -7.460  -0.107  0.00  0.00    -0.275 OA
ATOM      5  N   UNL     1       1.825  -6.647   0.286  0.00  0.00    -0.207 N 
ATOM      6  C   UNL     1       1.200  -5.486   0.538  0.00  0.00    +0.247 C 
ATOM      7  O   UNL     1       0.009  -5.351   0.718  0.00  0.00    -0.273 OA
ENDROOT
BRANCH   5   8
ATOM      8  C   UNL     1       1.147  -7.871   0.201  0.00  0.00    +0.062 A 
ATOM      9  C   UNL     1       0.961  -8.644   1.339  0.00  0.00    +0.025 A 
ATOM     10  C   UNL     1       0.292  -9.849   1.252  0.00  0.00    +0.002 A 
ATOM     11  C   UNL     1      -0.193 -10.287   0.034  0.00  0.00    +0.002 A 
ATOM     12  C   UNL     1      -0.010  -9.520  -1.102  0.00  0.00    +0.022 A 
ATOM     13  C   UNL     1       0.653  -8.310  -1.021  0.00  0.00    +0.063 A 
ATOM     14 CL   UNL     1       0.876  -7.343  -2.446  0.00  0.00    -0.082 Cl
ENDBRANCH   5   8
BRANCH   1  15
ATOM     15  N   UNL     1       1.935  -3.388  -0.489  0.00  0.00    -0.332 N 
ATOM     16  H   UNL     1       1.417  -3.647  -1.268  0.00  0.00    +0.147 HD
BRANCH  15  21
ATOM     17  C   UNL     1       3.855   1.925   0.001  0.00  0.00    +0.044 C 
ATOM     18  C   UNL     1       3.345   0.513  -0.129  0.00  0.00    -0.050 A 
ATOM     19  C   UNL     1       2.283   0.088   0.648  0.00  0.00    +0.008 A 
ATOM     20  C   UNL     1       1.813  -1.205   0.531  0.00  0.00    -0.029 A 
ATOM     21  C   UNL     1       2.408  -2.080  -0.369  0.00  0.00    +0.034 A 
ATOM     22  C   UNL     1       3.474  -1.650  -1.149  0.00  0.00    -0.029 A 
ATOM     23  C   UNL     1       3.936  -0.354  -1.031  0.00  0.00    +0.008 A 
ATOM     24  C   UNL     1       4.123  -2.596  -2.127  0.00  0.00    +0.045 C 
ATOM     25  C   UNL     1       0.656  -1.667   1.380  0.00  0.00    +0.045 C 
ENDBRANCH  15  21
ENDBRANCH   1  15
TORSDOF 3
