REMARK  Name = ZINC04185341
REMARK  8 active torsions:
REMARK  status: ('A' for Active; 'I' for Inactive)
REMARK    1  A    between atoms: C_1  and  C_2
REMARK    2  A    between atoms: C_5  and  N_8
REMARK    3  A    between atoms: N_8  and  C_9
REMARK    4  A    between atoms: C_9  and  C_10
REMARK    5  A    between atoms: N_12  and  C_13
REMARK    6  A    between atoms: C_19  and  C_21
REMARK    7  A    between atoms: C_22  and  N_29
REMARK    8  A    between atoms: C_23  and  C_26
REMARK                            x       y       z     vdW  Elec       q    Type
REMARK                         _______ _______ _______ _____ _____    ______ ____
ROOT
ATOM      1  N   UNL     1       4.640   0.916   0.065  0.00  0.00    -0.258 N 
ATOM      2  C   UNL     1       3.869  -0.168  -0.153  0.00  0.00    +0.261 C 
ATOM      3  O   UNL     1       2.667  -0.041  -0.298  0.00  0.00    -0.269 OA
ENDROOT
BRANCH   1   8
ATOM      4  C   UNL     1       2.240   6.008   0.763  0.00  0.00    +0.044 C 
ATOM      5  C   UNL     1       2.877   4.655   0.578  0.00  0.00    -0.050 A 
ATOM      6  C   UNL     1       2.087   3.522   0.522  0.00  0.00    +0.005 A 
ATOM      7  C   UNL     1       2.668   2.280   0.352  0.00  0.00    +0.024 A 
ATOM      8  C   UNL     1       4.048   2.171   0.237  0.00  0.00    +0.037 A 
ATOM      9  C   UNL     1       4.840   3.311   0.299  0.00  0.00    +0.024 A 
ATOM     10  C   UNL     1       4.252   4.550   0.464  0.00  0.00    +0.005 A 
ENDBRANCH   1   8
BRANCH   2  11
ATOM     11  C   UNL     1       4.478  -1.498  -0.217  0.00  0.00    +0.116 A 
ATOM     12  C   UNL     1       3.864  -2.749  -0.298  0.00  0.00    +0.076 A 
ATOM     13  C   UNL     1       4.786  -3.795  -0.341  0.00  0.00    +0.155 A 
ATOM     14  N   UNL     1       6.071  -3.521  -0.304  0.00  0.00    -0.203 NA
ATOM     15  S   UNL     1       6.199  -1.953  -0.213  0.00  0.00    +0.019 S 
BRANCH  13  16
ATOM     16  C   UNL     1       4.324  -5.193  -0.426  0.00  0.00    +0.262 C 
ATOM     17  O   UNL     1       3.134  -5.439  -0.460  0.00  0.00    -0.269 OA
ATOM     18  N   UNL     1       5.221  -6.197  -0.468  0.00  0.00    -0.324 N 
ATOM     19  H   UNL     1       6.171  -6.001  -0.441  0.00  0.00    +0.145 HD
ATOM     20  H   UNL     1       4.917  -7.117  -0.524  0.00  0.00    +0.145 HD
ENDBRANCH  13  16
BRANCH  12  21
ATOM     21  N   UNL     1       2.488  -2.933  -0.331  0.00  0.00    -0.355 N 
ATOM     22  H   UNL     1       2.119  -3.828  -0.387  0.00  0.00    +0.142 HD
ATOM     23  H   UNL     1       1.895  -2.165  -0.297  0.00  0.00    +0.142 HD
ENDBRANCH  12  21
ENDBRANCH   2  11
BRANCH   1  24
ATOM     24  C   UNL     1       6.097   0.779   0.122  0.00  0.00    +0.209 C 
BRANCH  24  25
ATOM     25  C   UNL     1       6.658   0.784  -1.277  0.00  0.00    +0.231 C 
ATOM     26  O   UNL     1       5.913   0.891  -2.228  0.00  0.00    -0.274 OA
ATOM     27  N   UNL     1       7.986   0.669  -1.471  0.00  0.00    -0.311 N 
ATOM     28  H   UNL     1       8.582   0.583  -0.710  0.00  0.00    +0.149 HD
BRANCH  27  29
ATOM     29  C   UNL     1       8.531   0.674  -2.831  0.00  0.00    +0.073 C 
ATOM     30  C   UNL     1       8.473  -0.742  -3.409  0.00  0.00    +0.022 C 
ATOM     31  C   UNL     1       9.041  -0.737  -4.829  0.00  0.00    +0.002 C 
ATOM     32  C   UNL     1      10.495  -0.259  -4.795  0.00  0.00    +0.000 C 
ATOM     33  C   UNL     1      10.553   1.156  -4.217  0.00  0.00    +0.002 C 
ATOM     34  C   UNL     1       9.984   1.151  -2.796  0.00  0.00    +0.022 C 
ENDBRANCH  27  29
ENDBRANCH  24  25
ENDBRANCH   1  24
TORSDOF 7
