REMARK  Name = ZINC64640213
REMARK  6 active torsions:
REMARK  status: ('A' for Active; 'I' for Inactive)
REMARK    1  A    between atoms: C_1  and  C_2
REMARK    2  A    between atoms: C_7  and  C_8
REMARK    3  A    between atoms: N_22  and  C_23
REMARK    4  A    between atoms: C_23  and  C_24
REMARK    5  A    between atoms: C_27  and  C_29
REMARK    6  A    between atoms: C_29  and  O_30
REMARK                            x       y       z     vdW  Elec       q    Type
REMARK                         _______ _______ _______ _____ _____    ______ ____
ROOT
ATOM      1  C   UNL     1       0.199  -0.078   2.550  0.00  0.00    +0.114 C 
ATOM      2  C   UNL     1      -1.201   0.112   3.139  0.00  0.00    +0.128 C 
ATOM      3  C   UNL     1      -1.000   0.671   4.543  0.00  0.00    -0.035 C 
ATOM      4  C   UNL     1      -1.719   1.783   4.610  0.00  0.00    -0.001 A 
ATOM      5  C   UNL     1      -1.993   2.709   5.721  0.00  0.00    +0.010 A 
ATOM      6  C   UNL     1      -2.778   3.780   5.429  0.00  0.00    +0.001 A 
ATOM      7  C   UNL     1      -3.312   4.019   4.159  0.00  0.00    +0.002 A 
ATOM      8  C   UNL     1      -3.118   3.217   3.082  0.00  0.00    +0.026 A 
ATOM      9  C   UNL     1      -2.312   2.055   3.265  0.00  0.00    +0.043 A 
ATOM     10  N   UNL     1      -1.988   1.105   2.410  0.00  0.00    -0.376 N 
ATOM     11  C   UNL     1      -0.051   0.026   5.524  0.00  0.00    +0.049 C 
ATOM     12  C   UNL     1       1.263  -0.213   4.756  0.00  0.00    +0.090 C 
ATOM     13  N   UNL     1       0.989  -0.893   3.487  0.00  0.00    -0.286 NA
ATOM     14  H   UNL     1      -2.220   1.066   1.468  0.00  0.00    +0.160 HD
ENDROOT
BRANCH   1  21
ATOM     15  C   UNL     1       0.222   1.448   0.097  0.00  0.00    +0.044 C 
ATOM     16  C   UNL     1       0.111  -0.054   0.049  0.00  0.00    -0.046 A 
ATOM     17  C   UNL     1       0.025  -0.702  -1.169  0.00  0.00    +0.003 A 
ATOM     18  C   UNL     1      -0.076  -2.080  -1.214  0.00  0.00    +0.000 A 
ATOM     19  C   UNL     1      -0.092  -2.810  -0.040  0.00  0.00    +0.000 A 
ATOM     20  C   UNL     1      -0.006  -2.162   1.178  0.00  0.00    +0.005 A 
ATOM     21  C   UNL     1       0.100  -0.784   1.222  0.00  0.00    -0.025 A 
ENDBRANCH   1  21
BRANCH  13  22
ATOM     22  C   UNL     1       2.233  -1.358   2.860  0.00  0.00    +0.159 C 
BRANCH  22  23
ATOM     23  C   UNL     1       2.820  -2.479   3.678  0.00  0.00    +0.119 A 
ATOM     24  C   UNL     1       2.563  -3.790   3.515  0.00  0.00    +0.046 A 
ATOM     25  C   UNL     1       3.320  -4.480   4.490  0.00  0.00    +0.047 A 
ATOM     26  C   UNL     1       3.994  -3.550   5.190  0.00  0.00    +0.131 A 
ATOM     27  O   UNL     1       3.692  -2.341   4.690  0.00  0.00    -0.461 OA
BRANCH  26  28
ATOM     28  C   UNL     1       4.933  -3.820   6.337  0.00  0.00    +0.230 C 
BRANCH  28  29
ATOM     29  O   UNL     1       6.259  -3.999   5.835  0.00  0.00    -0.387 OA
ATOM     30  H   UNL     1       6.918  -4.178   6.519  0.00  0.00    +0.210 HD
ENDBRANCH  28  29
ENDBRANCH  26  28
ENDBRANCH  22  23
ENDBRANCH  13  22
TORSDOF 5
