REMARK  Name = ZINC06934495
REMARK  8 active torsions:
REMARK  status: ('A' for Active; 'I' for Inactive)
REMARK    1  A    between atoms: C_1  and  C_2
REMARK    2  A    between atoms: C_2  and  C_3
REMARK    3  A    between atoms: C_12  and  O_27
REMARK    4  A    between atoms: C_14  and  C_17
REMARK    5  A    between atoms: C_20  and  O_25
REMARK    6  A    between atoms: C_22  and  O_23
REMARK    7  A    between atoms: O_23  and  C_24
REMARK    8  A    between atoms: O_25  and  C_26
REMARK                            x       y       z     vdW  Elec       q    Type
REMARK                         _______ _______ _______ _____ _____    ______ ____
ROOT
ATOM      1  C   UNL     1      -0.729   1.579   1.267  0.00  0.00    -0.006 C 
ATOM      2  C   UNL     1      -0.065   0.972   2.506  0.00  0.00    +0.008 C 
ATOM      3  C   UNL     1      -0.917   1.256   3.744  0.00  0.00    +0.037 C 
ATOM      4  C   UNL     1      -1.200   2.753   3.814  0.00  0.00    -0.023 A 
ATOM      5  C   UNL     1      -1.055   3.537   2.720  0.00  0.00    -0.004 A 
ATOM      6  S   UNL     1      -1.481   5.169   3.269  0.00  0.00    -0.078 S 
ATOM      7  C   UNL     1      -1.842   4.814   4.904  0.00  0.00    +0.080 A 
ATOM      8  C   UNL     1      -1.635   3.433   5.021  0.00  0.00    +0.068 A 
ATOM      9  C   UNL     1      -1.865   2.824   6.356  0.00  0.00    +0.220 C 
ATOM     10  N   UNL     1      -2.444   3.556   7.267  0.00  0.00    -0.223 NA
ATOM     11  C   UNL     1      -2.967   4.898   7.045  0.00  0.00    +0.227 C 
ATOM     12  N   UNL     1      -2.243   5.591   5.963  0.00  0.00    -0.313 N 
ATOM     13  C   UNL     1      -0.626   3.109   1.351  0.00  0.00    +0.046 C 
ATOM     14  H   UNL     1      -2.053   6.672   6.034  0.00  0.00    +0.149 HD
ENDROOT
BRANCH  11  15
ATOM     15  C   UNL     1      -4.425   4.803   6.677  0.00  0.00    +0.036 A 
ATOM     16  C   UNL     1      -4.968   5.693   5.769  0.00  0.00    +0.014 A 
ATOM     17  C   UNL     1      -6.304   5.608   5.430  0.00  0.00    +0.046 A 
ATOM     18  C   UNL     1      -7.105   4.629   6.000  0.00  0.00    +0.124 A 
ATOM     19  C   UNL     1      -6.564   3.735   6.911  0.00  0.00    +0.091 A 
ATOM     20  C   UNL     1      -5.221   3.819   7.246  0.00  0.00    +0.130 A 
BRANCH  20  21
ATOM     21  O   UNL     1      -4.686   2.941   8.134  0.00  0.00    -0.495 OA
ATOM     22  C   UNL     1      -5.563   1.954   8.680  0.00  0.00    +0.277 C 
ENDBRANCH  20  21
BRANCH  18  23
ATOM     23  O   UNL     1      -8.420   4.545   5.665  0.00  0.00    -0.495 OA
ATOM     24  C   UNL     1      -8.910   5.498   4.720  0.00  0.00    +0.277 C 
ENDBRANCH  18  23
ENDBRANCH  11  15
BRANCH   1  26
ATOM     25  C   UNL     1      -0.753   1.593  -1.232  0.00  0.00    +0.004 C 
ATOM     26  C   UNL     1      -0.013   1.086   0.008  0.00  0.00    +0.000 C 
ENDBRANCH   1  26
BRANCH   9  27
ATOM     27  O   UNL     1      -1.488   1.551   6.617  0.00  0.00    -0.492 OA
ATOM     28  H   UNL     1      -1.667   1.117   7.612  0.00  0.00    +0.294 HD
ENDBRANCH   9  27
TORSDOF 5
