REMARK  Name = ZINC11694107
REMARK  7 active torsions:
REMARK  status: ('A' for Active; 'I' for Inactive)
REMARK    1  A    between atoms: C_4  and  O_7
REMARK    2  A    between atoms: O_7  and  C_8
REMARK    3  A    between atoms: C_8  and  C_9
REMARK    4  A    between atoms: C_9  and  N_10
REMARK    5  A    between atoms: C_19  and  C_21
REMARK    6  A    between atoms: C_21  and  O_22
REMARK    7  A    between atoms: O_22  and  C_23
REMARK                            x       y       z     vdW  Elec       q    Type
REMARK                         _______ _______ _______ _____ _____    ______ ____
ROOT
ATOM      1  N   UNL     1      -0.786   3.059   0.025  0.00  0.00    -0.221 N 
ATOM      2  C   UNL     1       0.550   3.247   0.013  0.00  0.00    +0.247 C 
ATOM      3  O   UNL     1       1.142   4.305   0.013  0.00  0.00    -0.273 OA
ATOM      4  C   UNL     1       1.153   1.861   0.001  0.00  0.00    +0.115 C 
ATOM      5  C   UNL     1       1.980   1.653  -1.263  0.00  0.00    +0.054 C 
ATOM      6  C   UNL     1       2.527   0.221  -1.284  0.00  0.00    +0.110 C 
ATOM      7  N   UNL     1       3.246  -0.028  -0.027  0.00  0.00    -0.299 N 
ATOM      8  C   UNL     1       2.550   0.209   1.245  0.00  0.00    +0.110 C 
ATOM      9  C   UNL     1       2.003   1.641   1.248  0.00  0.00    +0.054 C 
ATOM     10  C   UNL     1       4.520  -0.466  -0.041  0.00  0.00    +0.253 C 
ATOM     11  O   UNL     1       5.103  -0.668   1.004  0.00  0.00    -0.272 OA
ATOM     12  N   UNL     1      -0.011   0.966   0.007  0.00  0.00    -0.285 N 
ATOM     13  C   UNL     1      -1.101   1.758   0.016  0.00  0.00    +0.309 C 
ATOM     14  O   UNL     1      -2.241   1.338   0.018  0.00  0.00    -0.252 OA
ATOM     15  H   UNL     1       0.002  -0.004   0.002  0.00  0.00    +0.151 HD
ENDROOT
BRANCH   1  16
ATOM     16  C   UNL     1      -1.770   4.144   0.039  0.00  0.00    +0.159 C 
BRANCH  16  17
ATOM     17  C   UNL     1      -2.126   4.528  -1.399  0.00  0.00    +0.248 C 
BRANCH  17  18
ATOM     18  O   UNL     1      -2.783   3.431  -2.037  0.00  0.00    -0.490 OA
BRANCH  18  22
ATOM     19  C   UNL     1      -3.953   3.971  -5.956  0.00  0.00    +0.000 A 
ATOM     20  C   UNL     1      -4.201   2.768  -5.321  0.00  0.00    +0.004 A 
ATOM     21  C   UNL     1      -3.810   2.585  -4.008  0.00  0.00    +0.045 A 
ATOM     22  C   UNL     1      -3.168   3.609  -3.328  0.00  0.00    +0.121 A 
ATOM     23  C   UNL     1      -2.925   4.817  -3.965  0.00  0.00    +0.045 A 
ATOM     24  C   UNL     1      -3.313   4.993  -5.279  0.00  0.00    +0.004 A 
ENDBRANCH  18  22
ENDBRANCH  17  18
ENDBRANCH  16  17
ENDBRANCH   1  16
BRANCH  10  25
ATOM     25  C   UNL     1       5.221  -0.705  -1.353  0.00  0.00    +0.324 C 
BRANCH  25  26
ATOM     26  O   UNL     1       6.552  -1.163  -1.106  0.00  0.00    -0.483 OA
BRANCH  26  27
ATOM     27  C   UNL     1       7.325  -1.427  -2.192  0.00  0.00    +0.121 A 
ATOM     28  C   UNL     1       6.811  -1.254  -3.470  0.00  0.00    +0.045 A 
ATOM     29  C   UNL     1       7.601  -1.518  -4.572  0.00  0.00    +0.004 A 
ATOM     30  C   UNL     1       8.899  -1.964  -4.403  0.00  0.00    +0.000 A 
ATOM     31  C   UNL     1       9.411  -2.142  -3.132  0.00  0.00    +0.004 A 
ATOM     32  C   UNL     1       8.627  -1.875  -2.026  0.00  0.00    +0.045 A 
ENDBRANCH  26  27
ENDBRANCH  25  26
ENDBRANCH  10  25
TORSDOF 7
