REMARK  Name = ZINC08724871
REMARK  6 active torsions:
REMARK  status: ('A' for Active; 'I' for Inactive)
REMARK    1  A    between atoms: C_1  and  C_2
REMARK    2  A    between atoms: C_4  and  C_28
REMARK    3  A    between atoms: C_9  and  C_10
REMARK    4  A    between atoms: N_12  and  C_13
REMARK    5  A    between atoms: C_17  and  S_19
REMARK    6  A    between atoms: S_19  and  N_22
REMARK                            x       y       z     vdW  Elec       q    Type
REMARK                         _______ _______ _______ _____ _____    ______ ____
ROOT
ATOM      1  C   UNL     1       4.195  -2.868  -1.915  0.00  0.00    +0.036 A 
ATOM      2  C   UNL     1       5.351  -2.230  -2.348  0.00  0.00    +0.023 A 
ATOM      3  C   UNL     1       5.816  -1.116  -1.677  0.00  0.00    +0.004 A 
ATOM      4  C   UNL     1       5.131  -0.634  -0.576  0.00  0.00    +0.028 A 
ATOM      5  C   UNL     1       3.981  -1.267  -0.142  0.00  0.00    +0.107 A 
ATOM      6  C   UNL     1       3.514  -2.385  -0.805  0.00  0.00    +0.051 A 
ENDROOT
BRANCH   1   9
ATOM      7  C   UNL     1       3.948  -4.134  -3.913  0.00  0.00    +0.254 C 
ATOM      8  O   UNL     1       4.668  -3.343  -4.493  0.00  0.00    -0.270 OA
ATOM      9  N   UNL     1       3.722  -3.996  -2.592  0.00  0.00    -0.281 N 
ATOM     10  H   UNL     1       3.232  -4.680  -2.110  0.00  0.00    +0.155 HD
BRANCH   7  19
ATOM     11  C   UNL     1       4.768  -4.694  -6.646  0.00  0.00    +0.045 C 
ATOM     12  C   UNL     1       3.707  -5.520  -5.965  0.00  0.00    -0.031 A 
ATOM     13  C   UNL     1       3.096  -6.580  -6.635  0.00  0.00    +0.025 A 
ATOM     14  C   UNL     1       2.137  -7.315  -6.016  0.00  0.00    +0.016 A 
ATOM     15  N   UNL     1       1.756  -7.045  -4.745  0.00  0.00    -0.326 N 
ATOM     16  H   UNL     1       1.068  -7.587  -4.328  0.00  0.00    +0.169 HD
ATOM     17  C   UNL     1       2.317  -6.036  -4.051  0.00  0.00    +0.261 A 
ATOM     18  O   UNL     1       1.961  -5.809  -2.908  0.00  0.00    -0.267 OA
ATOM     19  C   UNL     1       3.324  -5.239  -4.655  0.00  0.00    +0.104 A 
ATOM     20  C   UNL     1       1.484  -8.453  -6.758  0.00  0.00    +0.063 C 
ENDBRANCH   7  19
ENDBRANCH   1   9
BRANCH   5  21
ATOM     21  S   UNL     1       3.113  -0.650   1.262  0.00  0.00    +0.061 S 
ATOM     22  O   UNL     1       4.058   0.078   2.035  0.00  0.00    -0.153 OA
ATOM     23  O   UNL     1       2.373  -1.740   1.793  0.00  0.00    -0.153 OA
BRANCH  21  24
ATOM     24  N   UNL     1       2.006   0.450   0.709  0.00  0.00    -0.177 NA
ATOM     25  C   UNL     1       0.650   0.025   0.336  0.00  0.00    +0.109 C 
ATOM     26  C   UNL     1       0.357   0.505  -1.089  0.00  0.00    +0.017 C 
ATOM     27  C   UNL     1       0.586   2.016  -1.171  0.00  0.00    +0.003 C 
ATOM     28  C   UNL     1       2.049   2.330  -0.847  0.00  0.00    +0.017 C 
ATOM     29  C   UNL     1       2.361   1.870   0.581  0.00  0.00    +0.109 C 
ENDBRANCH  21  24
ENDBRANCH   5  21
TORSDOF 4
