REMARK  Name = ZINC10624347
REMARK  6 active torsions:
REMARK  status: ('A' for Active; 'I' for Inactive)
REMARK    1  A    between atoms: C_1  and  C_2
REMARK    2  A    between atoms: C_4  and  C_8
REMARK    3  A    between atoms: C_5  and  C_7
REMARK    4  A    between atoms: N_10  and  N_11
REMARK    5  A    between atoms: C_12  and  C_14
REMARK    6  A    between atoms: C_19  and  O_20
REMARK                            x       y       z     vdW  Elec       q    Type
REMARK                         _______ _______ _______ _____ _____    ______ ____
ROOT
ATOM      1  N   UNL     1      -0.042  -0.638  -3.658  0.00  0.00    -0.230 N 
ATOM      2  C   UNL     1      -0.034   0.036  -2.491  0.00  0.00    +0.264 C 
ATOM      3  O   UNL     1      -0.051   1.252  -2.491  0.00  0.00    -0.269 OA
ATOM      4  H   UNL     1      -0.028  -1.608  -3.658  0.00  0.00    +0.173 HD
ENDROOT
BRANCH   2   5
ATOM      5  C   UNL     1      -0.006  -0.701  -1.214  0.00  0.00    +0.081 A 
ATOM      6  C   UNL     1       0.018  -2.098  -1.209  0.00  0.00    +0.036 A 
ATOM      7  C   UNL     1       0.038  -2.781  -0.011  0.00  0.00    +0.042 A 
ATOM      8  C   UNL     1       0.041  -2.087   1.189  0.00  0.00    +0.023 A 
ATOM      9  C   UNL     1       0.023  -0.707   1.198  0.00  0.00    +0.047 A 
ATOM     10  C   UNL     1       0.002  -0.004   0.002  0.00  0.00    +0.129 A 
ATOM     11 CL   UNL     1       0.061  -4.517  -0.006  0.00  0.00    -0.084 Cl
BRANCH  10  12
ATOM     12  O   UNL     1      -0.016   1.353   0.009  0.00  0.00    -0.506 OA
ATOM     13  H   UNL     1       0.862   1.758   0.003  0.00  0.00    +0.292 HD
ENDBRANCH  10  12
ENDBRANCH   2   5
BRANCH   1  16
ATOM     14  C   UNL     1      -0.076  -0.612  -6.038  0.00  0.00    +0.263 C 
ATOM     15  O   UNL     1      -0.059  -1.828  -6.038  0.00  0.00    -0.269 OA
ATOM     16  N   UNL     1      -0.069   0.062  -4.872  0.00  0.00    -0.230 N 
ATOM     17  H   UNL     1      -0.082   1.032  -4.872  0.00  0.00    +0.173 HD
BRANCH  14  21
ATOM     18  C   UNL     1      -0.178   3.133  -9.502  0.00  0.00    +0.086 C 
ATOM     19  C   UNL     1      -0.149   1.787  -8.825  0.00  0.00    +0.103 A 
ATOM     20  C   UNL     1      -0.133   1.583  -7.499  0.00  0.00    +0.057 A 
ATOM     21  C   UNL     1      -0.104   0.124  -7.315  0.00  0.00    +0.079 A 
ATOM     22  C   UNL     1      -0.115  -0.405  -8.572  0.00  0.00    +0.114 A 
ATOM     23  O   UNL     1      -0.142   0.600  -9.453  0.00  0.00    -0.464 OA
ATOM     24  C   UNL     1      -0.099  -1.873  -8.911  0.00  0.00    +0.087 C 
ENDBRANCH  14  21
ENDBRANCH   1  16
TORSDOF 4
