REMARK  Name = ZINC59168148
REMARK  5 active torsions:
REMARK  status: ('A' for Active; 'I' for Inactive)
REMARK    1  A    between atoms: C_3  and  C_6
REMARK    2  A    between atoms: C_7  and  C_8
REMARK    3  A    between atoms: C_7  and  N_17
REMARK    4  A    between atoms: N_10  and  C_11
REMARK    5  A    between atoms: C_18  and  C_20
REMARK                            x       y       z     vdW  Elec       q    Type
REMARK                         _______ _______ _______ _____ _____    ______ ____
ROOT
ATOM      1  C   UNL     1       3.322   0.944   0.418  0.00  0.00    +0.074 C 
ATOM      2  C   UNL     1       3.614  -0.333   0.052  0.00  0.00    +0.100 C 
ENDROOT
BRANCH   1   5
ATOM      3  C   UNL     1       0.410   2.287   2.076  0.00  0.00    +0.042 A 
ATOM      4  C   UNL     1       1.706   2.457   1.562  0.00  0.00    +0.049 A 
ATOM      5  C   UNL     1       2.085   1.237   1.042  0.00  0.00    +0.130 A 
ATOM      6  O   UNL     1       1.067   0.373   1.234  0.00  0.00    -0.463 OA
ATOM      7  C   UNL     1       0.059   1.002   1.855  0.00  0.00    +0.195 A 
ENDBRANCH   1   5
BRANCH   2   8
ATOM      8  C   UNL     1       2.609  -1.387   0.207  0.00  0.00    +0.263 C 
ATOM      9  O   UNL     1       1.871  -1.666  -0.720  0.00  0.00    -0.268 OA
ATOM     10  N   UNL     1       2.501  -2.047   1.377  0.00  0.00    -0.280 N 
ATOM     11  H   UNL     1       3.018  -1.760   2.146  0.00  0.00    +0.155 HD
BRANCH  10  12
ATOM     12  C   UNL     1       1.645  -3.143   1.482  0.00  0.00    +0.037 A 
ATOM     13  C   UNL     1       1.413  -3.977   0.389  0.00  0.00    +0.043 A 
ATOM     14  C   UNL     1       0.560  -5.051   0.534  0.00  0.00    +0.112 A 
ATOM     15  N   UNL     1      -0.033  -5.293   1.688  0.00  0.00    -0.263 NA
ATOM     16  C   UNL     1       0.161  -4.527   2.746  0.00  0.00    +0.112 A 
ATOM     17  C   UNL     1       1.004  -3.437   2.685  0.00  0.00    +0.043 A 
ENDBRANCH  10  12
ENDBRANCH   2   8
BRANCH   2  18
ATOM     18  N   UNL     1       4.874  -0.640  -0.473  0.00  0.00    -0.277 N 
ATOM     19  C   UNL     1       5.204  -1.921  -0.728  0.00  0.00    +0.250 C 
ATOM     20  O   UNL     1       4.377  -2.801  -0.588  0.00  0.00    -0.270 OA
ATOM     21  H   UNL     1       5.511   0.070  -0.653  0.00  0.00    +0.155 HD
BRANCH  19  22
ATOM     22  C   UNL     1       6.570  -2.257  -1.179  0.00  0.00    +0.055 A 
ATOM     23  C   UNL     1       7.524  -1.249  -1.336  0.00  0.00    +0.016 A 
ATOM     24  C   UNL     1       8.797  -1.568  -1.756  0.00  0.00    +0.021 A 
ATOM     25  C   UNL     1       9.133  -2.886  -2.023  0.00  0.00    +0.042 A 
ATOM     26  C   UNL     1       8.193  -3.890  -1.870  0.00  0.00    +0.040 A 
ATOM     27  C   UNL     1       6.915  -3.585  -1.444  0.00  0.00    +0.054 A 
ATOM     28 CL   UNL     1       5.739  -4.846  -1.246  0.00  0.00    -0.083 Cl
ATOM     29 CL   UNL     1      10.739  -3.279  -2.552  0.00  0.00    -0.083 Cl
ENDBRANCH  19  22
ENDBRANCH   2  18
TORSDOF 5
