REMARK  Name = ZINC36500778
REMARK  14 active torsions:
REMARK  status: ('A' for Active; 'I' for Inactive)
REMARK    1  A    between atoms: C_1  and  C_2
REMARK    2  A    between atoms: C_2  and  C_3
REMARK    3  A    between atoms: C_3  and  C_4
REMARK    4  A    between atoms: C_4  and  N_5
REMARK    5  A    between atoms: C_6  and  C_8
REMARK    6  A    between atoms: C_8  and  C_10
REMARK    7  A    between atoms: C_8  and  N_19
REMARK    8  A    between atoms: C_10  and  C_12
REMARK    9  A    between atoms: C_10  and  C_13
REMARK   10  A    between atoms: N_19  and  C_20
REMARK   11  A    between atoms: C_20  and  C_21
REMARK   12  A    between atoms: C_26  and  C_28
REMARK   13  A    between atoms: C_32  and  O_35
REMARK   14  A    between atoms: C_33  and  O_34
REMARK                            x       y       z     vdW  Elec       q    Type
REMARK                         _______ _______ _______ _____ _____    ______ ____
ROOT
ATOM      1  N   UNL     1       1.160  -6.877  -2.756  0.00  0.00    -0.278 N 
ATOM      2  C   UNL     1       0.794  -7.921  -1.987  0.00  0.00    +0.251 C 
ATOM      3  O   UNL     1      -0.139  -8.626  -2.323  0.00  0.00    -0.270 OA
ENDROOT
BRANCH   2   4
ATOM      4  C   UNL     1       1.524  -8.210  -0.738  0.00  0.00    +0.082 A 
ATOM      5  C   UNL     1       2.846  -7.783  -0.583  0.00  0.00    +0.017 A 
ATOM      6  C   UNL     1       3.525  -8.054   0.585  0.00  0.00    +0.005 A 
ATOM      7  C   UNL     1       2.905  -8.750   1.610  0.00  0.00    +0.049 A 
ATOM      8  C   UNL     1       1.596  -9.181   1.470  0.00  0.00    +0.159 A 
ATOM      9  C   UNL     1       0.895  -8.909   0.299  0.00  0.00    +0.171 A 
BRANCH   9  10
ATOM     10  O   UNL     1      -0.390  -9.324   0.161  0.00  0.00    -0.503 OA
ATOM     11  H   UNL     1      -0.479 -10.208  -0.222  0.00  0.00    +0.292 HD
ENDBRANCH   9  10
BRANCH   8  12
ATOM     12  O   UNL     1       0.994  -9.864   2.481  0.00  0.00    -0.503 OA
ATOM     13  H   UNL     1       0.532  -9.300   3.116  0.00  0.00    +0.292 HD
ENDBRANCH   8  12
ENDBRANCH   2   4
BRANCH   1  14
ATOM     14  C   UNL     1       0.508  -6.654  -4.048  0.00  0.00    +0.170 C 
BRANCH  14  16
ATOM     15  N   UNL     1      -0.853  -4.802  -4.965  0.00  0.00    -0.314 N 
ATOM     16  C   UNL     1       0.192  -5.189  -4.206  0.00  0.00    +0.234 C 
ATOM     17  O   UNL     1       0.877  -4.357  -3.649  0.00  0.00    -0.274 OA
ATOM     18  H   UNL     1      -1.401  -5.467  -5.410  0.00  0.00    +0.149 HD
BRANCH  15  19
ATOM     19  C   UNL     1      -1.159  -3.378  -5.118  0.00  0.00    +0.104 C 
BRANCH  19  20
ATOM     20  C   UNL     1      -2.382  -3.214  -6.023  0.00  0.00    +0.018 C 
BRANCH  20  22
ATOM     21  C   UNL     1      -3.926  -1.563  -7.087  0.00  0.00    +0.004 C 
ATOM     22  C   UNL     1      -2.703  -1.727  -6.182  0.00  0.00    -0.002 C 
ENDBRANCH  20  22
ENDBRANCH  19  20
ENDBRANCH  15  19
ENDBRANCH  14  16
BRANCH  14  23
ATOM     23  C   UNL     1       1.443  -7.098  -5.175  0.00  0.00    +0.045 C 
ATOM     24  C   UNL     1       1.764  -8.585  -5.015  0.00  0.00    +0.015 C 
BRANCH  23  25
ATOM     25  C   UNL     1       0.772  -6.868  -6.505  0.00  0.00    -0.042 A 
ATOM     26  C   UNL     1      -0.426  -7.496  -6.792  0.00  0.00    +0.004 A 
ATOM     27  C   UNL     1      -1.042  -7.286  -8.011  0.00  0.00    +0.000 A 
ATOM     28  C   UNL     1      -0.460  -6.447  -8.944  0.00  0.00    +0.000 A 
ATOM     29  C   UNL     1       0.737  -5.819  -8.656  0.00  0.00    +0.000 A 
ATOM     30  C   UNL     1       1.351  -6.026  -7.435  0.00  0.00    +0.004 A 
ENDBRANCH  23  25
ENDBRANCH  14  23
ENDBRANCH   1  14
BRANCH   1  31
ATOM     31  C   UNL     1       2.211  -5.964  -2.299  0.00  0.00    +0.183 C 
BRANCH  31  32
ATOM     32  C   UNL     1       3.534  -6.389  -2.881  0.00  0.00    +0.122 A 
ATOM     33  C   UNL     1       4.723  -5.807  -2.641  0.00  0.00    +0.046 A 
ATOM     34  C   UNL     1       5.687  -6.522  -3.386  0.00  0.00    +0.041 A 
ATOM     35  C   UNL     1       5.031  -7.500  -4.037  0.00  0.00    +0.195 A 
ATOM     36  O   UNL     1       3.728  -7.418  -3.722  0.00  0.00    -0.466 OA
ENDBRANCH  31  32
ENDBRANCH   1  31
TORSDOF 12
