REMARK  Name = ZINC23996121
REMARK  10 active torsions:
REMARK  status: ('A' for Active; 'I' for Inactive)
REMARK    1  A    between atoms: C_1  and  C_2
REMARK    2  A    between atoms: C_2  and  C_3
REMARK    3  A    between atoms: C_3  and  N_4
REMARK    4  A    between atoms: C_5  and  C_7
REMARK    5  A    between atoms: C_12  and  N_13
REMARK    6  A    between atoms: C_14  and  C_16
REMARK    7  A    between atoms: C_16  and  N_17
REMARK    8  A    between atoms: C_22  and  C_29
REMARK    9  A    between atoms: C_25  and  C_27
REMARK   10  A    between atoms: C_25  and  C_28
REMARK                            x       y       z     vdW  Elec       q    Type
REMARK                         _______ _______ _______ _____ _____    ______ ____
ROOT
ATOM      1  N   UNL     1       2.125  -1.088  -0.358  0.00  0.00    -0.284 N 
ATOM      2  C   UNL     1       3.340  -1.637  -0.555  0.00  0.00    +0.235 C 
ATOM      3  O   UNL     1       3.441  -2.827  -0.761  0.00  0.00    -0.274 OA
ATOM      4  H   UNL     1       2.024   0.003  -0.258  0.00  0.00    +0.155 HD
ENDROOT
BRANCH   1  10
ATOM      5  C   UNL     1      -0.232  -1.451  -0.785  0.00  0.00    +0.058 A 
ATOM      6  C   UNL     1      -1.355  -2.279  -0.708  0.00  0.00    +0.015 A 
ATOM      7  C   UNL     1      -1.249  -3.528  -0.135  0.00  0.00    +0.001 A 
ATOM      8  C   UNL     1      -0.035  -3.967   0.366  0.00  0.00    +0.002 A 
ATOM      9  C   UNL     1       1.083  -3.160   0.297  0.00  0.00    +0.024 A 
ATOM     10  C   UNL     1       0.997  -1.901  -0.282  0.00  0.00    +0.046 A 
BRANCH   5  12
ATOM     11  N   UNL     1      -1.491   0.273  -1.979  0.00  0.00    -0.311 N 
ATOM     12  C   UNL     1      -0.338  -0.113  -1.398  0.00  0.00    +0.246 C 
ATOM     13  O   UNL     1       0.617   0.639  -1.383  0.00  0.00    -0.270 OA
ATOM     14  H   UNL     1      -2.354  -0.410  -1.996  0.00  0.00    +0.149 HD
BRANCH  11  15
ATOM     15  C   UNL     1      -1.596   1.601  -2.588  0.00  0.00    +0.104 C 
BRANCH  15  17
ATOM     16  C   UNL     1      -3.108   3.173  -3.807  0.00  0.00    +0.005 C 
ATOM     17  C   UNL     1      -2.998   1.785  -3.172  0.00  0.00    +0.015 C 
ENDBRANCH  15  17
ENDBRANCH  11  15
ENDBRANCH   5  12
ENDBRANCH   1  10
BRANCH   2  18
ATOM     18  C   UNL     1       4.573  -0.771  -0.520  0.00  0.00    +0.214 C 
BRANCH  18  19
ATOM     19  N   UNL     1       5.758  -1.598  -0.760  0.00  0.00    -0.215 N 
ATOM     20  C   UNL     1       6.470  -2.203   0.212  0.00  0.00    +0.247 C 
ATOM     21  O   UNL     1       6.260  -2.169   1.406  0.00  0.00    -0.273 OA
ATOM     22  C   UNL     1       7.584  -2.936  -0.499  0.00  0.00    +0.113 C 
ATOM     23  C   UNL     1       7.481  -4.438  -0.254  0.00  0.00    +0.038 C 
ATOM     24  C   UNL     1       8.600  -5.157  -1.012  0.00  0.00    -0.011 C 
ATOM     25  C   UNL     1       9.956  -4.636  -0.532  0.00  0.00    +0.009 C 
ATOM     26  C   UNL     1      10.053  -3.134  -0.804  0.00  0.00    -0.032 C 
ATOM     27  C   UNL     1       8.940  -2.407  -0.045  0.00  0.00    +0.041 C 
ATOM     28  C   UNL     1       9.901  -2.876  -2.304  0.00  0.00    +0.011 C 
ATOM     29  C   UNL     1      11.414  -2.617  -0.332  0.00  0.00    +0.011 C 
ATOM     30  C   UNL     1       8.509  -6.662  -0.748  0.00  0.00    +0.007 C 
ATOM     31  N   UNL     1       7.362  -2.631  -1.919  0.00  0.00    -0.285 N 
ATOM     32  C   UNL     1       6.271  -1.842  -1.972  0.00  0.00    +0.310 C 
ATOM     33  O   UNL     1       5.806  -1.402  -3.005  0.00  0.00    -0.252 OA
ATOM     34  H   UNL     1       8.040  -3.040  -2.682  0.00  0.00    +0.151 HD
ENDBRANCH  18  19
ENDBRANCH   2  18
TORSDOF 6
