REMARK  Name = ZINC02308879
REMARK  7 active torsions:
REMARK  status: ('A' for Active; 'I' for Inactive)
REMARK    1  A    between atoms: C_1  and  C_2
REMARK    2  A    between atoms: C_4  and  C_32
REMARK    3  A    between atoms: C_6  and  N_8
REMARK    4  A    between atoms: C_9  and  C_31
REMARK    5  A    between atoms: C_11  and  C_14
REMARK    6  A    between atoms: C_12  and  C_13
REMARK    7  A    between atoms: N_20  and  C_23
REMARK                            x       y       z     vdW  Elec       q    Type
REMARK                         _______ _______ _______ _____ _____    ______ ____
ROOT
ATOM      1  C   UNL     1       1.572  -3.912   5.448  0.00  0.00    +0.028 C 
ATOM      2  C   UNL     1       1.333  -5.062   6.184  0.00  0.00    +0.102 C 
ATOM      3  C   UNL     1       0.370  -6.085   5.728  0.00  0.00    +0.276 C 
ATOM      4  N   UNL     1       0.188  -7.175   6.492  0.00  0.00    -0.123 NA
ATOM      5  C   UNL     1       0.834  -7.350   7.617  0.00  0.00    +0.340 C 
ATOM      6  O   UNL     1       0.592  -8.473   8.321  0.00  0.00    -0.250 OA
ATOM      7  N   UNL     1       1.738  -6.463   8.113  0.00  0.00    -0.188 N 
ATOM      8  C   UNL     1       2.031  -5.322   7.455  0.00  0.00    +0.264 C 
ATOM      9  O   UNL     1       2.844  -4.531   7.898  0.00  0.00    -0.269 OA
ATOM     10  O   UNL     1      -0.244  -5.944   4.684  0.00  0.00    -0.268 OA
ENDROOT
BRANCH   1  14
ATOM     11  N   UNL     1       0.083  -2.971   2.323  0.00  0.00    -0.317 N 
ATOM     12  C   UNL     1      -1.047  -3.316   3.012  0.00  0.00    +0.022 A 
ATOM     13  C   UNL     1      -0.708  -3.713   4.249  0.00  0.00    +0.031 A 
ATOM     14  C   UNL     1       0.756  -3.604   4.334  0.00  0.00    -0.003 A 
ATOM     15  C   UNL     1       1.174  -3.140   3.094  0.00  0.00    +0.028 A 
ATOM     16  C   UNL     1       2.599  -2.871   2.683  0.00  0.00    +0.064 C 
ATOM     17  C   UNL     1      -2.451  -3.260   2.469  0.00  0.00    +0.064 C 
BRANCH  11  23
ATOM     18  C   UNL     1       1.006   0.633  -0.894  0.00  0.00    +0.044 C 
ATOM     19  C   UNL     1       0.546  -0.769  -0.588  0.00  0.00    -0.048 A 
ATOM     20  C   UNL     1       0.142  -1.604  -1.614  0.00  0.00    +0.006 A 
ATOM     21  C   UNL     1      -0.280  -2.891  -1.337  0.00  0.00    -0.048 A 
ATOM     22  C   UNL     1      -0.301  -3.347  -0.033  0.00  0.00    +0.029 A 
ATOM     23  C   UNL     1       0.103  -2.511   0.999  0.00  0.00    +0.047 A 
ATOM     24  C   UNL     1       0.533  -1.222   0.717  0.00  0.00    +0.029 A 
ATOM     25  C   UNL     1      -0.719  -3.797  -2.458  0.00  0.00    +0.044 C 
ENDBRANCH  11  23
ENDBRANCH   1  14
BRANCH   7  26
ATOM     26  C   UNL     1       2.379  -6.741   9.328  0.00  0.00    +0.046 A 
ATOM     27  C   UNL     1       3.296  -7.781   9.409  0.00  0.00    +0.025 A 
ATOM     28  C   UNL     1       3.926  -8.052  10.607  0.00  0.00    +0.022 A 
ATOM     29  C   UNL     1       3.645  -7.290  11.727  0.00  0.00    +0.041 A 
ATOM     30  C   UNL     1       2.732  -6.253  11.649  0.00  0.00    +0.022 A 
ATOM     31  C   UNL     1       2.103  -5.973  10.452  0.00  0.00    +0.025 A 
ATOM     32 CL   UNL     1       4.439  -7.634  13.232  0.00  0.00    -0.084 Cl
ENDBRANCH   7  26
TORSDOF 3
