REMARK  Name = ZINC39760475
REMARK  4 active torsions:
REMARK  status: ('A' for Active; 'I' for Inactive)
REMARK    1  A    between atoms: C_8  and  C_30
REMARK    2  A    between atoms: N_10  and  C_12
REMARK    3  A    between atoms: C_12  and  C_13
REMARK    4  A    between atoms: C_18  and  C_23
REMARK                            x       y       z     vdW  Elec       q    Type
REMARK                         _______ _______ _______ _____ _____    ______ ____
ROOT
ATOM      1  C   UNL     1       6.139  -2.728   0.186  0.00  0.00    +0.138 C 
ATOM      2  N   UNL     1       6.107  -1.764   1.075  0.00  0.00    -0.160 NA
ATOM      3  C   UNL     1       7.189  -1.378   1.760  0.00  0.00    +0.272 C 
ATOM      4  O   UNL     1       7.125  -0.478   2.581  0.00  0.00    -0.268 OA
ATOM      5  C   UNL     1       8.476  -2.082   1.489  0.00  0.00    +0.075 C 
ATOM      6  C   UNL     1       9.706  -1.863   2.062  0.00  0.00    -0.015 C 
ATOM      7  C   UNL     1      10.849  -2.734   1.593  0.00  0.00    +0.112 C 
ATOM      8  S   UNL     1      10.024  -3.804   0.347  0.00  0.00    -0.100 S 
ATOM      9  C   UNL     1       8.383  -3.141   0.473  0.00  0.00    +0.112 C 
ATOM     10  N   UNL     1       7.235  -3.406  -0.112  0.00  0.00    -0.226 NA
ENDROOT
BRANCH   6  11
ATOM     11  C   UNL     1       9.900  -0.833   3.081  0.00  0.00    -0.020 A 
ATOM     12  C   UNL     1       9.728   0.522   2.757  0.00  0.00    +0.009 A 
ATOM     13  C   UNL     1       9.913   1.485   3.724  0.00  0.00    +0.020 A 
ATOM     14  C   UNL     1      10.269   1.120   5.013  0.00  0.00    +0.041 A 
ATOM     15  C   UNL     1      10.441  -0.216   5.342  0.00  0.00    +0.020 A 
ATOM     16  C   UNL     1      10.255  -1.193   4.391  0.00  0.00    +0.009 A 
ATOM     17 CL   UNL     1      10.500   2.343   6.223  0.00  0.00    -0.084 Cl
ENDBRANCH   6  11
BRANCH   1  18
ATOM     18  C   UNL     1       4.861  -3.084  -0.529  0.00  0.00    +0.159 C 
BRANCH  18  27
ATOM     19  C   UNL     1       0.647   1.644   0.567  0.00  0.00    +0.000 A 
ATOM     20  C   UNL     1       1.833   2.198   0.123  0.00  0.00    +0.000 A 
ATOM     21  C   UNL     1       2.881   1.378  -0.241  0.00  0.00    +0.005 A 
ATOM     22  C   UNL     1       2.752  -0.002  -0.164  0.00  0.00    -0.030 A 
ATOM     23  C   UNL     1       1.571  -0.554   0.282  0.00  0.00    -0.041 A 
ATOM     24  C   UNL     1       0.517   0.272   0.645  0.00  0.00    +0.004 A 
ATOM     25  C   UNL     1       1.388  -2.045   0.394  0.00  0.00    +0.063 C 
ATOM     26  C   UNL     1       2.461  -2.766  -0.422  0.00  0.00    +0.148 C 
ATOM     27  N   UNL     1       3.776  -2.216  -0.053  0.00  0.00    -0.280 NA
ATOM     28  C   UNL     1       3.922  -0.855  -0.579  0.00  0.00    +0.121 C 
BRANCH  26  29
ATOM     29  C   UNL     1       2.422  -4.242  -0.118  0.00  0.00    +0.228 C 
ATOM     30  O   UNL     1       3.025  -4.681   0.838  0.00  0.00    -0.274 OA
ATOM     31  N   UNL     1       1.717  -5.074  -0.910  0.00  0.00    -0.328 N 
ATOM     32  H   UNL     1       1.235  -4.723  -1.675  0.00  0.00    +0.145 HD
ATOM     33  H   UNL     1       1.692  -6.024  -0.715  0.00  0.00    +0.145 HD
ENDBRANCH  26  29
ENDBRANCH  18  27
ENDBRANCH   1  18
TORSDOF 4
