REMARK  Name = ZINC02794293
REMARK  5 active torsions:
REMARK  status: ('A' for Active; 'I' for Inactive)
REMARK    1  A    between atoms: C_1  and  C_2
REMARK    2  A    between atoms: C_8  and  C_10
REMARK    3  A    between atoms: N_13  and  C_15
REMARK    4  A    between atoms: C_15  and  O_16
REMARK    5  A    between atoms: O_16  and  C_17
REMARK                            x       y       z     vdW  Elec       q    Type
REMARK                         _______ _______ _______ _____ _____    ______ ____
ROOT
ATOM      1  C   UNL     1      -0.627   3.193   0.025  0.00  0.00    +0.147 A 
ATOM      2  C   UNL     1      -1.113   1.864   0.017  0.00  0.00    +0.054 A 
ATOM      3  C   UNL     1      -0.013   1.076   0.008  0.00  0.00    +0.113 A 
ATOM      4  N   UNL     1       1.064   1.892   0.002  0.00  0.00    -0.235 N 
ATOM      5  N   UNL     1       0.690   3.121   0.012  0.00  0.00    -0.164 NA
ENDROOT
BRANCH   1  13
ATOM      6  C   UNL     1      -4.616   8.879   0.092  0.00  0.00    +0.089 C 
ATOM      7  C   UNL     1      -3.265   8.212   0.076  0.00  0.00    +0.136 A 
ATOM      8  C   UNL     1      -3.020   6.882   0.067  0.00  0.00    +0.091 A 
ATOM      9  C   UNL     1      -1.602   6.795   0.053  0.00  0.00    +0.168 A 
ATOM     10  N   UNL     1      -1.161   8.025   0.061  0.00  0.00    -0.063 NA
ATOM     11  O   UNL     1      -2.071   8.822   0.068  0.00  0.00    -0.358 OA
ATOM     12  N   UNL     1      -0.835   5.631   0.040  0.00  0.00    -0.262 N 
ATOM     13  C   UNL     1      -1.439   4.426   0.039  0.00  0.00    +0.269 C 
ATOM     14  O   UNL     1      -2.652   4.354   0.050  0.00  0.00    -0.268 OA
ATOM     15  H   UNL     1       0.133   5.688   0.031  0.00  0.00    +0.157 HD
ENDBRANCH   1  13
BRANCH   4  16
ATOM     16  C   UNL     1       2.457   1.440  -0.013  0.00  0.00    +0.374 C 
BRANCH  16  17
ATOM     17  O   UNL     1       2.495   0.011  -0.021  0.00  0.00    -0.467 OA
BRANCH  17  18
ATOM     18  C   UNL     1       3.722  -0.573  -0.035  0.00  0.00    +0.160 A 
ATOM     19  C   UNL     1       4.336  -0.872  -1.244  0.00  0.00    +0.084 A 
ATOM     20  C   UNL     1       5.587  -1.461  -1.255  0.00  0.00    +0.024 A 
ATOM     21  C   UNL     1       6.221  -1.764  -0.065  0.00  0.00    +0.003 A 
ATOM     22  C   UNL     1       5.609  -1.473   1.141  0.00  0.00    +0.024 A 
ATOM     23  C   UNL     1       4.361  -0.879   1.159  0.00  0.00    +0.084 A 
ATOM     24 CL   UNL     1       3.593  -0.514   2.672  0.00  0.00    -0.080 Cl
ATOM     25 CL   UNL     1       3.537  -0.499  -2.739  0.00  0.00    -0.080 Cl
ENDBRANCH  17  18
ENDBRANCH  16  17
ENDBRANCH   4  16
TORSDOF 4
