REMARK  Name = ZINC58502375
REMARK  4 active torsions:
REMARK  status: ('A' for Active; 'I' for Inactive)
REMARK    1  A    between atoms: C_1  and  C_2
REMARK    2  A    between atoms: N_11  and  C_12
REMARK    3  A    between atoms: C_12  and  C_13
REMARK    4  A    between atoms: C_13  and  C_18
REMARK                            x       y       z     vdW  Elec       q    Type
REMARK                         _______ _______ _______ _____ _____    ______ ____
ROOT
ATOM      1  C   UNL     1      -0.940   1.804   1.194  0.00  0.00    +0.026 C 
ATOM      2  C   UNL     1      -0.441   0.443   0.707  0.00  0.00    +0.057 C 
ATOM      3  C   UNL     1       0.565   0.610  -0.455  0.00  0.00    +0.057 C 
ATOM      4  C   UNL     1       1.902   0.635   0.258  0.00  0.00    -0.026 A 
ATOM      5  C   UNL     1       3.154   1.040  -0.163  0.00  0.00    +0.005 A 
ATOM      6  C   UNL     1       4.231   0.966   0.699  0.00  0.00    +0.000 A 
ATOM      7  C   UNL     1       4.050   0.485   1.983  0.00  0.00    +0.002 A 
ATOM      8  C   UNL     1       2.800   0.077   2.401  0.00  0.00    +0.022 A 
ATOM      9  C   UNL     1       1.715   0.148   1.538  0.00  0.00    +0.017 A 
ATOM     10  N   UNL     1       0.374  -0.221   1.748  0.00  0.00    -0.390 NA
ATOM     11  H   UNL     1       0.072   0.081   2.662  0.00  0.00    +0.127 HD
ENDROOT
BRANCH  10  12
ATOM     12  C   UNL     1       0.234  -1.679   1.634  0.00  0.00    +0.103 C 
BRANCH  12  13
ATOM     13  C   UNL     1       1.012  -2.356   2.764  0.00  0.00    +0.086 C 
ATOM     14  C   UNL     1       0.780  -1.603   4.091  0.00  0.00    +0.020 C 
ATOM     15  C   UNL     1      -0.367  -2.387   4.776  0.00  0.00    +0.001 C 
ATOM     16  C   UNL     1      -0.034  -3.858   4.423  0.00  0.00    +0.001 C 
ATOM     17  C   UNL     1       0.495  -3.789   2.976  0.00  0.00    +0.020 C 
BRANCH  13  18
ATOM     18  C   UNL     1       2.483  -2.381   2.435  0.00  0.00    +0.363 C 
ATOM     19  O   UNL     1       3.309  -2.324   3.330  0.00  0.00    -0.246 OA
ATOM     20  O   UNL     1       2.846  -2.458   1.274  0.00  0.00    -0.246 OA
ENDBRANCH  13  18
ENDBRANCH  12  13
ENDBRANCH  10  12
TORSDOF 3
