REMARK  Name = ZINC21142921
REMARK  9 active torsions:
REMARK  status: ('A' for Active; 'I' for Inactive)
REMARK    1  A    between atoms: C_1  and  C_2
REMARK    2  A    between atoms: C_2  and  C_3
REMARK    3  A    between atoms: C_3  and  C_5
REMARK    4  A    between atoms: C_3  and  C_6
REMARK    5  A    between atoms: C_6  and  C_8
REMARK    6  A    between atoms: C_6  and  N_29
REMARK    7  A    between atoms: N_10  and  C_11
REMARK    8  A    between atoms: C_14  and  C_17
REMARK    9  A    between atoms: N_25  and  C_26
REMARK                            x       y       z     vdW  Elec       q    Type
REMARK                         _______ _______ _______ _____ _____    ______ ____
ROOT
ATOM      1  C   UNL     1       3.312   8.942  -0.728  0.00  0.00    +0.033 A 
ATOM      2  C   UNL     1       1.942   8.912  -0.964  0.00  0.00    +0.024 A 
ATOM      3  C   UNL     1       1.157   7.959  -0.351  0.00  0.00    +0.013 A 
ATOM      4  C   UNL     1       1.739   7.024   0.508  0.00  0.00    +0.018 A 
ATOM      5  C   UNL     1       3.115   7.061   0.746  0.00  0.00    +0.013 A 
ATOM      6  C   UNL     1       3.894   8.013   0.126  0.00  0.00    +0.024 A 
ENDROOT
BRANCH   4   7
ATOM      7  C   UNL     1       0.901   6.001   1.167  0.00  0.00    +0.146 A 
ATOM      8  N   UNL     1       1.289   4.785   1.465  0.00  0.00    -0.227 NA
ATOM      9  C   UNL     1       0.273   4.115   2.061  0.00  0.00    +0.090 A 
ATOM     10  C   UNL     1       0.144   2.819   2.569  0.00  0.00    +0.030 A 
ATOM     11  C   UNL     1      -1.036   2.422   3.131  0.00  0.00    +0.002 A 
ATOM     12  C   UNL     1      -2.117   3.289   3.194  0.00  0.00    +0.002 A 
ATOM     13  C   UNL     1      -2.014   4.573   2.699  0.00  0.00    +0.028 A 
ATOM     14  C   UNL     1      -0.821   4.996   2.130  0.00  0.00    +0.074 A 
ATOM     15  N   UNL     1      -0.399   6.181   1.558  0.00  0.00    -0.267 N 
BRANCH  15  16
ATOM     16  C   UNL     1      -1.193   7.402   1.401  0.00  0.00    +0.450 C 
ATOM     17  F   UNL     1      -2.212   7.178   0.469  0.00  0.00    -0.185 F 
ATOM     18  F   UNL     1      -1.757   7.754   2.632  0.00  0.00    -0.185 F 
ENDBRANCH  15  16
ENDBRANCH   4   7
BRANCH   1  21
ATOM     19  C   UNL     1       5.344   9.594  -1.774  0.00  0.00    +0.238 C 
ATOM     20  O   UNL     1       5.741   8.451  -1.692  0.00  0.00    -0.273 OA
ATOM     21  N   UNL     1       4.104   9.909  -1.351  0.00  0.00    -0.284 N 
ATOM     22  H   UNL     1       3.716  10.928  -1.496  0.00  0.00    +0.155 HD
BRANCH  19  23
ATOM     23  C   UNL     1       6.239  10.662  -2.349  0.00  0.00    +0.163 C 
BRANCH  23  24
ATOM     24  N   UNL     1       7.580  10.113  -2.561  0.00  0.00    -0.288 N 
ATOM     25  C   UNL     1       8.662  10.904  -2.418  0.00  0.00    +0.298 C 
ATOM     26  O   UNL     1       8.533  12.046  -2.019  0.00  0.00    -0.253 OA
ATOM     27  N   UNL     1       9.888  10.430  -2.716  0.00  0.00    -0.313 N 
ATOM     28  H   UNL     1       7.705   9.056  -2.837  0.00  0.00    +0.151 HD
ATOM     29  H   UNL     1      10.771  11.076  -2.600  0.00  0.00    +0.146 HD
ATOM     30  H   UNL     1      10.005   9.398  -3.077  0.00  0.00    +0.146 HD
ENDBRANCH  23  24
BRANCH  23  31
ATOM     31  C   UNL     1       5.667  11.142  -3.684  0.00  0.00    +0.015 C 
ATOM     32  C   UNL     1       6.471  12.344  -4.181  0.00  0.00    +0.010 C 
BRANCH  31  34
ATOM     33  C   UNL     1       4.636   8.998  -4.450  0.00  0.00    +0.004 C 
ATOM     34  C   UNL     1       5.753  10.011  -4.711  0.00  0.00    +0.002 C 
ENDBRANCH  31  34
ENDBRANCH  23  31
ENDBRANCH  19  23
ENDBRANCH   1  21
TORSDOF 7
