REMARK  Name = ZINC55327542
REMARK  5 active torsions:
REMARK  status: ('A' for Active; 'I' for Inactive)
REMARK    1  A    between atoms: C_6  and  C_7
REMARK    2  A    between atoms: C_8  and  C_13
REMARK    3  A    between atoms: C_13  and  N_14
REMARK    4  A    between atoms: N_14  and  C_15
REMARK    5  A    between atoms: C_15  and  C_16
REMARK                            x       y       z     vdW  Elec       q    Type
REMARK                         _______ _______ _______ _____ _____    ______ ____
ROOT
ATOM      1  N   UNL     1       0.271  -3.551  -0.877  0.00  0.00    +0.385 N 
ATOM      2  H   UNL     1       0.732  -3.035  -0.143  0.00  0.00    -0.085 HD
ATOM      3  H   UNL     1      -0.294  -4.282  -0.470  0.00  0.00    -0.085 HD
ENDROOT
BRANCH   1   4
ATOM      4  C   UNL     1      -0.587  -2.643  -1.651  0.00  0.00    -0.043 C 
BRANCH   4   6
ATOM      5  C   UNL     1      -1.232  -0.868   0.135  0.00  0.00    +0.094 A 
ATOM      6  C   UNL     1      -1.544  -1.942  -0.721  0.00  0.00    -0.019 A 
ATOM      7  C   UNL     1      -2.853  -2.232  -0.562  0.00  0.00    +0.107 A 
ATOM      8  N   UNL     1      -3.360  -1.382   0.357  0.00  0.00    -0.284 N 
ATOM      9  H   UNL     1      -4.278  -1.361   0.668  0.00  0.00    +0.188 HD
ATOM     10  N   UNL     1      -2.327  -0.538   0.786  0.00  0.00    -0.174 NA
BRANCH   5  16
ATOM     11  C   UNL     1       0.870   0.047  -0.846  0.00  0.00    +0.013 A 
ATOM     12  C   UNL     1       2.106   0.644  -0.705  0.00  0.00    +0.039 A 
ATOM     13  C   UNL     1       2.580   0.972   0.555  0.00  0.00    +0.123 A 
ATOM     14  C   UNL     1       1.815   0.702   1.679  0.00  0.00    +0.039 A 
ATOM     15  C   UNL     1       0.579   0.104   1.547  0.00  0.00    +0.013 A 
ATOM     16  C   UNL     1       0.098  -0.227   0.282  0.00  0.00    +0.002 A 
ATOM     17  F   UNL     1       3.791   1.556   0.689  0.00  0.00    -0.205 F 
ENDBRANCH   5  16
ENDBRANCH   4   6
ENDBRANCH   1   4
BRANCH   1  18
ATOM     18  C   UNL     1       1.279  -4.148  -1.763  0.00  0.00    -0.026 C 
BRANCH  18  19
ATOM     19  C   UNL     1       2.158  -5.079  -0.969  0.00  0.00    +0.023 A 
ATOM     20  C   UNL     1       1.855  -6.345  -0.606  0.00  0.00    -0.006 A 
ATOM     21  C   UNL     1       2.936  -6.855   0.123  0.00  0.00    +0.066 A 
ATOM     22  N   UNL     1       3.857  -5.931   0.188  0.00  0.00    -0.178 NA
ATOM     23  H   UNL     1       3.872  -3.965  -0.612  0.00  0.00    +0.188 HD
ATOM     24  N   UNL     1       3.392  -4.801  -0.498  0.00  0.00    -0.283 N 
ATOM     25  C   UNL     1       3.001  -8.234   0.733  0.00  0.00    +0.057 C 
ATOM     26  C   UNL     1       2.547  -9.264  -0.305  0.00  0.00    +0.006 C 
ATOM     27  C   UNL     1       1.036  -9.452  -0.222  0.00  0.00    +0.001 C 
ATOM     28  C   UNL     1       0.340  -8.149   0.152  0.00  0.00    +0.005 C 
ATOM     29  C   UNL     1       0.588  -7.096  -0.931  0.00  0.00    +0.039 C 
ENDBRANCH  18  19
ENDBRANCH   1  18
TORSDOF 5
