REMARK  Name = ZINC13719193
REMARK  7 active torsions:
REMARK  status: ('A' for Active; 'I' for Inactive)
REMARK    1  A    between atoms: C_1  and  C_2
REMARK    2  A    between atoms: C_2  and  C_3
REMARK    3  A    between atoms: C_2  and  C_4
REMARK    4  A    between atoms: C_4  and  C_5
REMARK    5  A    between atoms: C_7  and  C_11
REMARK    6  A    between atoms: C_17  and  C_19
REMARK    7  A    between atoms: C_20  and  C_21
REMARK                            x       y       z     vdW  Elec       q    Type
REMARK                         _______ _______ _______ _____ _____    ______ ____
ROOT
ATOM      1  C   UNL     1      -1.298  -5.221  -1.921  0.00  0.00    +0.206 A 
ATOM      2  N   UNL     1      -1.224  -5.113  -3.228  0.00  0.00    -0.125 NA
ATOM      3  N   UNL     1      -1.189  -6.283  -3.764  0.00  0.00    -0.120 NA
ATOM      4  C   UNL     1      -1.238  -7.190  -2.834  0.00  0.00    +0.219 A 
ATOM      5  N   UNL     1      -1.305  -6.573  -1.608  0.00  0.00    -0.184 N 
ATOM      6  N   UNL     1      -1.358  -7.403  -0.496  0.00  0.00    -0.156 NA
ATOM      7  C   UNL     1      -1.342  -8.709  -0.625  0.00  0.00    +0.125 A 
ATOM      8  S   UNL     1      -1.256  -8.911  -2.398  0.00  0.00    -0.027 S 
ENDROOT
BRANCH   1  11
ATOM      9  C   UNL     1      -1.416  -2.035  -0.119  0.00  0.00    +0.037 A 
ATOM     10  C   UNL     1      -1.349  -2.729  -1.276  0.00  0.00    +0.056 A 
ATOM     11  C   UNL     1      -1.357  -4.103  -0.956  0.00  0.00    +0.131 A 
ATOM     12  N   UNL     1      -1.425  -4.212   0.356  0.00  0.00    -0.170 NA
ATOM     13  N   UNL     1      -1.458  -2.921   0.899  0.00  0.00    -0.281 N 
ATOM     14  H   UNL     1      -1.506  -2.702   1.843  0.00  0.00    +0.189 HD
BRANCH   9  15
ATOM     15  C   UNL     1      -1.433  -0.534   0.013  0.00  0.00    +0.058 C 
BRANCH  15  17
ATOM     16  C   UNL     1      -0.019   1.526   0.010  0.00  0.00    +0.007 C 
ATOM     17  C   UNL     1       0.002  -0.004   0.002  0.00  0.00    -0.011 C 
ATOM     18  C   UNL     1       0.742  -0.511   1.242  0.00  0.00    +0.007 C 
ENDBRANCH  15  17
ENDBRANCH   9  15
ENDBRANCH   1  11
BRANCH   7  19
ATOM     19  C   UNL     1      -1.391  -9.739   0.420  0.00  0.00    +0.037 C 
ATOM     20  C   UNL     1      -1.364 -11.041   0.082  0.00  0.00    +0.010 C 
BRANCH  20  21
ATOM     21  C   UNL     1      -1.413 -12.075   1.131  0.00  0.00    -0.025 A 
ATOM     22  C   UNL     1      -1.493 -11.707   2.477  0.00  0.00    +0.008 A 
ATOM     23  C   UNL     1      -1.538 -12.681   3.452  0.00  0.00    +0.001 A 
ATOM     24  C   UNL     1      -1.504 -14.019   3.102  0.00  0.00    +0.000 A 
ATOM     25  C   UNL     1      -1.425 -14.391   1.771  0.00  0.00    +0.001 A 
ATOM     26  C   UNL     1      -1.385 -13.429   0.784  0.00  0.00    +0.008 A 
ENDBRANCH  20  21
ENDBRANCH   7  19
TORSDOF 5
