REMARK  Name = ZINC09569154
REMARK  13 active torsions:
REMARK  status: ('A' for Active; 'I' for Inactive)
REMARK    1  A    between atoms: C_1  and  N_2
REMARK    2  A    between atoms: N_2  and  C_3
REMARK    3  A    between atoms: N_2  and  C_4
REMARK    4  A    between atoms: C_7  and  C_10
REMARK    5  A    between atoms: C_10  and  C_12
REMARK    6  A    between atoms: C_10  and  N_62
REMARK    7  A    between atoms: C_12  and  N_13
REMARK    8  A    between atoms: C_14  and  C_16
REMARK    9  A    between atoms: C_18  and  O_27
REMARK   10  A    between atoms: C_19  and  O_25
REMARK   11  A    between atoms: C_21  and  N_22
REMARK   12  A    between atoms: O_25  and  C_26
REMARK   13  A    between atoms: O_27  and  C_28
REMARK                            x       y       z     vdW  Elec       q    Type
REMARK                         _______ _______ _______ _____ _____    ______ ____
ROOT
ATOM      1  C   UNL     1      -4.004   1.713   0.905  0.00  0.00    +0.094 C 
ENDROOT
BRANCH   1   2
ATOM      2  N   UNL     1      -5.019   0.656   0.952  0.00  0.00    -0.313 N 
ATOM      3  C   UNL     1      -5.557   0.290   2.132  0.00  0.00    +0.246 C 
ATOM      4  O   UNL     1      -5.200   0.836   3.158  0.00  0.00    -0.270 OA
ATOM      5  H   UNL     1      -5.303   0.221   0.133  0.00  0.00    +0.149 HD
BRANCH   3   6
ATOM      6  C   UNL     1      -6.579  -0.774   2.179  0.00  0.00    +0.070 A 
ATOM      7  C   UNL     1      -6.892  -1.496   1.023  0.00  0.00    +0.064 A 
ATOM      8  C   UNL     1      -7.844  -2.495   1.074  0.00  0.00    +0.162 A 
ATOM      9  C   UNL     1      -8.499  -2.773   2.273  0.00  0.00    +0.164 A 
ATOM     10  C   UNL     1      -8.193  -2.052   3.418  0.00  0.00    +0.082 A 
ATOM     11  C   UNL     1      -7.239  -1.058   3.376  0.00  0.00    +0.142 A 
BRANCH  11  12
ATOM     12  N   UNL     1      -6.915  -0.291   4.600  0.00  0.00    +0.057 N 
ATOM     13  O   UNL     1      -6.642  -0.878   5.632  0.00  0.00    -0.126 OA
ATOM     14  O   UNL     1      -6.920   0.927   4.575  0.00  0.00    -0.126 OA
ENDBRANCH  11  12
BRANCH   9  15
ATOM     15  O   UNL     1      -9.440  -3.752   2.320  0.00  0.00    -0.491 OA
ATOM     16  C   UNL     1     -10.072  -3.984   3.580  0.00  0.00    +0.277 C 
ENDBRANCH   9  15
BRANCH   8  17
ATOM     17  O   UNL     1      -8.146  -3.203  -0.047  0.00  0.00    -0.491 OA
ATOM     18  C   UNL     1      -7.435  -2.865  -1.240  0.00  0.00    +0.277 C 
ENDBRANCH   8  17
ENDBRANCH   3   6
ENDBRANCH   1   2
BRANCH   1  19
ATOM     19  C   UNL     1      -3.563   1.933  -0.543  0.00  0.00    -0.020 C 
BRANCH  19  23
ATOM     20  C   UNL     1      -0.870   5.246  -0.728  0.00  0.00    +0.029 A 
ATOM     21  C   UNL     1      -0.653   4.128  -1.524  0.00  0.00    +0.023 A 
ATOM     22  C   UNL     1      -1.524   3.057  -1.458  0.00  0.00    +0.004 A 
ATOM     23  C   UNL     1      -2.612   3.100  -0.607  0.00  0.00    -0.059 A 
ATOM     24  C   UNL     1      -2.827   4.209   0.191  0.00  0.00    +0.004 A 
ATOM     25  C   UNL     1      -1.961   5.283   0.130  0.00  0.00    +0.023 A 
BRANCH  20  27
ATOM     26  C   UNL     1       1.224   6.242  -1.604  0.00  0.00    +0.129 C 
ATOM     27  N   UNL     1       0.008   6.331  -0.792  0.00  0.00    -0.336 N 
ATOM     28  C   UNL     1      -0.288   7.557  -0.047  0.00  0.00    +0.129 C 
ENDBRANCH  20  27
ENDBRANCH  19  23
BRANCH  19  33
ATOM     29  C   UNL     1      -5.367   3.504  -0.993  0.00  0.00    -0.078 C 
ATOM     30  C   UNL     1      -6.198   3.880  -2.246  0.00  0.00    -0.020 C 
ATOM     31  C   UNL     1      -5.295   3.415  -3.412  0.00  0.00    -0.020 C 
ATOM     32  C   UNL     1      -4.360   2.356  -2.799  0.00  0.00    -0.078 C 
ATOM     33  N   UNL     1      -4.754   2.228  -1.395  0.00  0.00    +0.385 N 
ATOM     34  H   UNL     1      -5.437   1.468  -1.294  0.00  0.00    -0.081 HD
ENDBRANCH  19  33
ENDBRANCH   1  19
TORSDOF 9
