REMARK  Name = ZINC20154396
REMARK  6 active torsions:
REMARK  status: ('A' for Active; 'I' for Inactive)
REMARK    1  A    between atoms: C_4  and  S_7
REMARK    2  A    between atoms: S_7  and  C_8
REMARK    3  A    between atoms: C_8  and  C_9
REMARK    4  A    between atoms: N_11  and  C_12
REMARK    5  A    between atoms: C_15  and  N_21
REMARK    6  A    between atoms: C_16  and  N_18
REMARK                            x       y       z     vdW  Elec       q    Type
REMARK                         _______ _______ _______ _____ _____    ______ ____
ROOT
ATOM      1  C   UNL     1      -0.966   1.629   3.604  0.00  0.00    +0.036 A 
ATOM      2  C   UNL     1      -2.094   2.414   3.407  0.00  0.00    +0.025 A 
ATOM      3  C   UNL     1      -2.847   2.824   4.489  0.00  0.00    +0.027 A 
ATOM      4  C   UNL     1      -2.470   2.461   5.775  0.00  0.00    +0.060 A 
ATOM      5  C   UNL     1      -1.338   1.680   5.972  0.00  0.00    +0.149 A 
ATOM      6  C   UNL     1      -0.588   1.266   4.889  0.00  0.00    +0.058 A 
ENDROOT
BRANCH   4   7
ATOM      7  N   UNL     1      -3.229   2.881   6.872  0.00  0.00    -0.332 N 
ATOM      8  C   UNL     1      -3.293   4.347   6.938  0.00  0.00    +0.086 C 
ATOM      9  C   UNL     1      -4.063   4.766   8.193  0.00  0.00    -0.063 C 
ATOM     10  N   UNL     1      -5.412   4.185   8.153  0.00  0.00    +0.381 N 
ATOM     11  C   UNL     1      -5.349   2.718   8.087  0.00  0.00    -0.063 C 
ATOM     12  C   UNL     1      -4.578   2.299   6.833  0.00  0.00    +0.086 C 
ATOM     13  H   UNL     1      -5.963   4.475   9.059  0.00  0.00    -0.086 HD
ATOM     14  H   UNL     1      -5.946   4.556   7.265  0.00  0.00    -0.086 HD
ENDBRANCH   4   7
BRANCH   1  17
ATOM     15  C   UNL     1       0.383  -0.004   2.516  0.00  0.00    +0.227 C 
ATOM     16  O   UNL     1       0.324  -0.697   3.510  0.00  0.00    -0.275 OA
ATOM     17  N   UNL     1      -0.204   1.209   2.505  0.00  0.00    -0.285 N 
ATOM     18  H   UNL     1      -0.086   1.869   1.633  0.00  0.00    +0.155 HD
BRANCH  15  19
ATOM     19  C   UNL     1       1.114  -0.499   1.295  0.00  0.00    +0.170 C 
BRANCH  19  20
ATOM     20  S   UNL     1       1.788  -2.151   1.622  0.00  0.00    -0.116 S 
BRANCH  20  24
ATOM     21  C   UNL     1       3.878  -3.264  -2.239  0.00  0.00    +0.000 A 
ATOM     22  C   UNL     1       3.881  -4.146  -1.174  0.00  0.00    +0.001 A 
ATOM     23  C   UNL     1       3.245  -3.810   0.005  0.00  0.00    +0.015 A 
ATOM     24  C   UNL     1       2.601  -2.584   0.119  0.00  0.00    +0.008 A 
ATOM     25  C   UNL     1       2.595  -1.703  -0.955  0.00  0.00    +0.015 A 
ATOM     26  C   UNL     1       3.239  -2.043  -2.128  0.00  0.00    +0.001 A 
ENDBRANCH  20  24
ENDBRANCH  19  20
ENDBRANCH  15  19
ENDBRANCH   1  17
BRANCH   5  27
ATOM     27  N   UNL     1      -0.936   1.292   7.343  0.00  0.00    +0.058 N 
ATOM     28  O   UNL     1       0.107   0.689   7.524  0.00  0.00    -0.126 OA
ATOM     29  O   UNL     1      -1.648   1.575   8.290  0.00  0.00    -0.126 OA
ENDBRANCH   5  27
TORSDOF 6
