REMARK  Name = ZINC66255621
REMARK  4 active torsions:
REMARK  status: ('A' for Active; 'I' for Inactive)
REMARK    1  A    between atoms: C_4  and  O_23
REMARK    2  A    between atoms: C_5  and  C_7
REMARK    3  A    between atoms: N_8  and  C_9
REMARK    4  A    between atoms: C_18  and  C_21
REMARK                            x       y       z     vdW  Elec       q    Type
REMARK                         _______ _______ _______ _____ _____    ______ ____
ROOT
ATOM      1  C   UNL     1       2.396  -4.243  -0.256  0.00  0.00    +0.082 C 
ATOM      2  C   UNL     1       3.192  -4.837   0.908  0.00  0.00    +0.043 C 
ATOM      3  C   UNL     1       3.181  -6.365   0.802  0.00  0.00    +0.108 C 
ATOM      4  N   UNL     1       3.676  -6.751  -0.526  0.00  0.00    -0.315 N 
ATOM      5  C   UNL     1       3.039  -6.167  -1.714  0.00  0.00    +0.108 C 
ATOM      6  C   UNL     1       3.052  -4.641  -1.581  0.00  0.00    +0.043 C 
ATOM      7  C   UNL     1       4.723  -7.649  -0.655  0.00  0.00    +0.121 A 
ATOM      8  C   UNL     1       5.170  -8.349   0.463  0.00  0.00    +0.045 A 
ATOM      9  C   UNL     1       6.205  -9.235   0.332  0.00  0.00    +0.024 A 
ATOM     10  C   UNL     1       6.783  -9.407  -0.936  0.00  0.00    +0.070 A 
ATOM     11  C   UNL     1       6.284  -8.672  -2.013  0.00  0.00    +0.131 A 
ATOM     12  N   UNL     1       5.283  -7.833  -1.843  0.00  0.00    -0.239 NA
ENDROOT
BRANCH   1  14
ATOM     13  C   UNL     1       1.250  -2.157  -0.027  0.00  0.00    +0.090 C 
ATOM     14  N   UNL     1       2.377  -2.783  -0.140  0.00  0.00    -0.387 N 
ATOM     15  H   UNL     1       3.209  -2.285  -0.149  0.00  0.00    +0.159 HD
BRANCH  13  20
ATOM     16  C   UNL     1      -0.018   1.374  -0.012  0.00  0.00    +0.001 A 
ATOM     17  C   UNL     1       1.168   2.089  -0.011  0.00  0.00    +0.004 A 
ATOM     18  C   UNL     1       2.382   1.430  -0.017  0.00  0.00    +0.046 A 
ATOM     19  C   UNL     1       2.420   0.044  -0.021  0.00  0.00    +0.125 A 
ATOM     20  C   UNL     1       1.222  -0.684  -0.021  0.00  0.00    +0.032 A 
ATOM     21  C   UNL     1       0.001  -0.004  -0.017  0.00  0.00    +0.013 A 
BRANCH  19  22
ATOM     22  O   UNL     1       3.612  -0.605  -0.027  0.00  0.00    -0.506 OA
ATOM     23  H   UNL     1       3.959  -0.796   0.855  0.00  0.00    +0.292 HD
ENDBRANCH  19  22
ENDBRANCH  13  20
ENDBRANCH   1  14
BRANCH  10  24
ATOM     24  C   UNL     1       7.868 -10.322  -1.122  0.00  0.00    +0.101 C 
ATOM     25  N   UNL     1       8.729 -11.049  -1.269  0.00  0.00    -0.191 NA
ENDBRANCH  10  24
TORSDOF 4
