REMARK  Name = ZINC39862906
REMARK  6 active torsions:
REMARK  status: ('A' for Active; 'I' for Inactive)
REMARK    1  A    between atoms: C_2  and  C_3
REMARK    2  A    between atoms: C_3  and  N_4
REMARK    3  A    between atoms: C_8  and  C_9
REMARK    4  A    between atoms: C_12  and  O_16
REMARK    5  A    between atoms: C_13  and  O_15
REMARK    6  A    between atoms: N_19  and  C_20
REMARK                            x       y       z     vdW  Elec       q    Type
REMARK                         _______ _______ _______ _____ _____    ______ ____
ROOT
ATOM      1  N   UNL     1      -0.985  -1.525  -1.257  0.00  0.00    -0.242 N 
ATOM      2  C   UNL     1      -1.613  -1.191  -2.372  0.00  0.00    +0.259 C 
ATOM      3  O   UNL     1      -2.118  -0.092  -2.513  0.00  0.00    -0.269 OA
ATOM      4  C   UNL     1      -1.673  -2.210  -3.437  0.00  0.00    +0.078 C 
ATOM      5  C   UNL     1      -2.245  -2.139  -4.666  0.00  0.00    +0.028 C 
ATOM      6  S   UNL     1      -0.790  -3.563  -2.675  0.00  0.00    -0.049 S 
ATOM      7  C   UNL     1      -0.415  -2.772  -1.119  0.00  0.00    +0.169 C 
ATOM      8  N   UNL     1       0.243  -3.260  -0.091  0.00  0.00    -0.224 NA
ENDROOT
BRANCH   5   9
ATOM      9  C   UNL     1      -2.041  -3.223  -5.635  0.00  0.00    -0.020 A 
ATOM     10  C   UNL     1      -2.888  -3.343  -6.744  0.00  0.00    +0.012 A 
ATOM     11  C   UNL     1      -2.693  -4.361  -7.651  0.00  0.00    +0.050 A 
ATOM     12  C   UNL     1      -1.659  -5.269  -7.470  0.00  0.00    +0.158 A 
ATOM     13  C   UNL     1      -0.811  -5.157  -6.369  0.00  0.00    +0.159 A 
ATOM     14  C   UNL     1      -0.995  -4.136  -5.457  0.00  0.00    +0.057 A 
BRANCH  13  15
ATOM     15  O   UNL     1       0.201  -6.049  -6.196  0.00  0.00    -0.503 OA
ATOM     16  H   UNL     1       1.032  -5.786  -6.614  0.00  0.00    +0.292 HD
ENDBRANCH  13  15
BRANCH  12  17
ATOM     17  O   UNL     1      -1.472  -6.271  -8.369  0.00  0.00    -0.503 OA
ATOM     18  H   UNL     1      -0.880  -6.041  -9.097  0.00  0.00    +0.292 HD
ENDBRANCH  12  17
ENDBRANCH   5   9
BRANCH   8  19
ATOM     19  C   UNL     1       0.741  -4.533  -0.140  0.00  0.00    +0.085 A 
ATOM     20  C   UNL     1       2.042  -4.807   0.302  0.00  0.00    +0.031 A 
ATOM     21  C   UNL     1       2.497  -6.112   0.232  0.00  0.00    +0.022 A 
ATOM     22  C   UNL     1       1.661  -7.095  -0.268  0.00  0.00    +0.111 A 
ATOM     23  N   UNL     1       0.440  -6.809  -0.677  0.00  0.00    -0.261 NA
ATOM     24  C   UNL     1      -0.041  -5.584  -0.626  0.00  0.00    +0.138 A 
ENDBRANCH   8  19
BRANCH   1  25
ATOM     25  C   UNL     1      -0.890  -0.558  -0.161  0.00  0.00    +0.142 C 
BRANCH  25  27
ATOM     26  C   UNL     1       0.278   1.577  -0.362  0.00  0.00    +0.005 C 
ATOM     27  C   UNL     1       0.359   0.270  -0.328  0.00  0.00    -0.015 C 
ENDBRANCH  25  27
ENDBRANCH   1  25
TORSDOF 6
