REMARK  Name = ZINC01375681
REMARK  8 active torsions:
REMARK  status: ('A' for Active; 'I' for Inactive)
REMARK    1  A    between atoms: C_1  and  C_2
REMARK    2  A    between atoms: C_8  and  C_10
REMARK    3  A    between atoms: C_10  and  S_11
REMARK    4  A    between atoms: S_11  and  C_12
REMARK    5  A    between atoms: C_19  and  C_21
REMARK    6  A    between atoms: C_21  and  C_22
REMARK    7  A    between atoms: C_21  and  C_23
REMARK    8  A    between atoms: C_25  and  C_29
REMARK                            x       y       z     vdW  Elec       q    Type
REMARK                         _______ _______ _______ _____ _____    ______ ____
ROOT
ATOM      1  C   UNL     1      -6.268  -5.421   0.001  0.00  0.00    +0.109 A 
ATOM      2  C   UNL     1      -7.691  -5.436   0.002  0.00  0.00    +0.043 A 
ATOM      3  C   UNL     1      -8.619  -4.304   0.004  0.00  0.00    -0.025 A 
ATOM      4  C   UNL     1      -9.936  -4.593   0.005  0.00  0.00    -0.004 A 
ATOM      5  S   UNL     1     -10.021  -6.364   0.002  0.00  0.00    -0.073 S 
ATOM      6  C   UNL     1      -8.283  -6.715  -0.001  0.00  0.00    +0.113 A 
ATOM      7  N   UNL     1      -7.551  -7.813  -0.006  0.00  0.00    -0.225 NA
ATOM      8  C   UNL     1      -6.235  -7.736  -0.007  0.00  0.00    +0.134 A 
ATOM      9  N   UNL     1      -5.612  -6.571  -0.009  0.00  0.00    -0.225 NA
ATOM     10  C   UNL     1     -11.079  -3.624   0.006  0.00  0.00    +0.046 C 
ATOM     11  C   UNL     1     -10.537  -2.237  -0.370  0.00  0.00    -0.009 C 
ATOM     12  C   UNL     1      -9.286  -1.956   0.467  0.00  0.00    +0.008 C 
ATOM     13  C   UNL     1      -8.139  -2.855   0.006  0.00  0.00    +0.037 C 
ATOM     14  C   UNL     1     -11.601  -1.175  -0.082  0.00  0.00    +0.008 C 
ENDROOT
BRANCH   8  15
ATOM     15  C   UNL     1      -5.423  -9.006  -0.013  0.00  0.00    +0.051 C 
ATOM     16  C   UNL     1      -4.542  -9.043  -1.263  0.00  0.00    +0.015 C 
ATOM     17  C   UNL     1      -4.539  -9.051   1.235  0.00  0.00    +0.015 C 
ENDBRANCH   8  15
BRANCH   1  18
ATOM     18  S   UNL     1      -5.390  -3.893   0.006  0.00  0.00    -0.096 S 
BRANCH  18  19
ATOM     19  C   UNL     1      -3.646  -4.389  -0.006  0.00  0.00    +0.172 C 
BRANCH  19  27
ATOM     20  C   UNL     1      -0.018   1.503   0.010  0.00  0.00    +0.089 C 
ATOM     21  C   UNL     1       0.002  -0.004   0.002  0.00  0.00    +0.136 A 
ATOM     22  C   UNL     1      -1.076  -0.808   0.003  0.00  0.00    +0.091 A 
ATOM     23  C   UNL     1      -0.625  -2.147  -0.007  0.00  0.00    +0.168 A 
ATOM     24  N   UNL     1       0.683  -2.130  -0.013  0.00  0.00    -0.063 NA
ATOM     25  O   UNL     1       1.100  -0.776  -0.013  0.00  0.00    -0.358 OA
ATOM     26  N   UNL     1      -1.432  -3.285  -0.010  0.00  0.00    -0.267 N 
ATOM     27  C   UNL     1      -2.774  -3.159  -0.003  0.00  0.00    +0.229 C 
ATOM     28  O   UNL     1      -3.280  -2.057   0.006  0.00  0.00    -0.275 OA
ATOM     29  H   UNL     1      -1.027  -4.166  -0.017  0.00  0.00    +0.156 HD
ENDBRANCH  19  27
ENDBRANCH  18  19
ENDBRANCH   1  18
TORSDOF 4
