REMARK  Name = ZINC06049333
REMARK  6 active torsions:
REMARK  status: ('A' for Active; 'I' for Inactive)
REMARK    1  A    between atoms: C_1  and  C_2
REMARK    2  A    between atoms: C_2  and  C_4
REMARK    3  A    between atoms: C_2  and  N_20
REMARK    4  A    between atoms: N_6  and  C_7
REMARK    5  A    between atoms: C_7  and  C_9
REMARK    6  A    between atoms: C_7  and  C_10
REMARK                            x       y       z     vdW  Elec       q    Type
REMARK                         _______ _______ _______ _____ _____    ______ ____
ROOT
ATOM      1  C   UNL     1      -3.073   1.740   0.621  0.00  0.00    +0.233 C 
ATOM      2  O   UNL     1      -2.807   2.760   0.021  0.00  0.00    -0.274 OA
ATOM      3  N   UNL     1      -2.103   1.072   1.277  0.00  0.00    -0.311 N 
ATOM      4  H   UNL     1      -2.316   0.256   1.757  0.00  0.00    +0.149 HD
ENDROOT
BRANCH   1   6
ATOM      5  C   UNL     1      -4.518  -0.182   0.014  0.00  0.00    +0.038 C 
ATOM      6  C   UNL     1      -4.487   1.218   0.631  0.00  0.00    +0.157 C 
BRANCH   6   7
ATOM      7  N   UNL     1      -5.344   2.115  -0.148  0.00  0.00    -0.289 N 
ATOM      8  C   UNL     1      -6.666   2.173   0.107  0.00  0.00    +0.298 C 
ATOM      9  O   UNL     1      -7.147   1.482   0.984  0.00  0.00    -0.253 OA
ATOM     10  N   UNL     1      -7.455   2.998  -0.610  0.00  0.00    -0.313 N 
ATOM     11  H   UNL     1      -4.960   2.666  -0.847  0.00  0.00    +0.151 HD
ATOM     12  H   UNL     1      -7.071   3.550  -1.310  0.00  0.00    +0.146 HD
ATOM     13  H   UNL     1      -8.406   3.040  -0.427  0.00  0.00    +0.146 HD
ENDBRANCH   6   7
ENDBRANCH   1   6
BRANCH   3  14
ATOM     14  C   UNL     1      -0.729   1.579   1.267  0.00  0.00    +0.076 C 
ATOM     15  C   UNL     1      -0.013   1.086   0.008  0.00  0.00    +0.028 C 
BRANCH  14  16
ATOM     16  C   UNL     1       0.011   1.072   2.506  0.00  0.00    -0.010 C 
ATOM     17  C   UNL     1       0.032  -0.457   2.498  0.00  0.00    +0.012 C 
ATOM     18  C   UNL     1       0.772  -0.964   3.737  0.00  0.00    -0.010 C 
ATOM     19  C   UNL     1       2.207  -0.435   3.727  0.00  0.00    +0.007 C 
ATOM     20  C   UNL     1       2.187   1.095   3.735  0.00  0.00    -0.010 C 
ATOM     21  C   UNL     1       1.446   1.602   2.495  0.00  0.00    +0.012 C 
ATOM     22  C   UNL     1       1.470   1.589   4.994  0.00  0.00    +0.007 C 
ATOM     23  C   UNL     1       0.035   1.059   5.005  0.00  0.00    -0.010 C 
ATOM     24  C   UNL     1       0.056  -0.471   4.996  0.00  0.00    +0.007 C 
ATOM     25  C   UNL     1      -0.705   1.566   3.765  0.00  0.00    +0.012 C 
ENDBRANCH  14  16
ENDBRANCH   3  14
TORSDOF 4
