REMARK  Name = ZINC44863474
REMARK  7 active torsions:
REMARK  status: ('A' for Active; 'I' for Inactive)
REMARK    1  A    between atoms: C_1  and  C_2
REMARK    2  A    between atoms: C_2  and  C_3
REMARK    3  A    between atoms: C_2  and  C_4
REMARK    4  A    between atoms: C_4  and  C_6
REMARK    5  A    between atoms: C_4  and  C_10
REMARK    6  A    between atoms: N_7  and  O_8
REMARK    7  A    between atoms: N_12  and  C_13
REMARK                            x       y       z     vdW  Elec       q    Type
REMARK                         _______ _______ _______ _____ _____    ______ ____
ROOT
ATOM      1  C   UNL     1      -2.189   0.528  -1.175  0.00  0.00    +0.228 C 
ATOM      2  O   UNL     1      -2.615   0.147  -2.245  0.00  0.00    -0.275 OA
ATOM      3  N   UNL     1      -2.495   1.763  -0.729  0.00  0.00    -0.285 N 
ATOM      4  H   UNL     1      -2.080   2.103   0.079  0.00  0.00    +0.155 HD
ENDROOT
BRANCH   3   5
ATOM      5  C   UNL     1      -3.411   2.554  -1.431  0.00  0.00    +0.034 A 
ATOM      6  C   UNL     1      -4.486   1.962  -2.083  0.00  0.00    +0.023 A 
ATOM      7  C   UNL     1      -5.386   2.747  -2.773  0.00  0.00    +0.006 A 
ATOM      8  C   UNL     1      -5.224   4.122  -2.821  0.00  0.00    -0.044 A 
ATOM      9  C   UNL     1      -4.154   4.714  -2.173  0.00  0.00    -0.042 A 
ATOM     10  C   UNL     1      -3.252   3.931  -1.475  0.00  0.00    +0.027 A 
ATOM     11  C   UNL     1      -4.200   6.213  -2.375  0.00  0.00    +0.036 C 
ATOM     12  C   UNL     1      -5.153   6.431  -3.569  0.00  0.00    +0.009 C 
ATOM     13  C   UNL     1      -6.061   5.185  -3.501  0.00  0.00    +0.036 C 
ENDBRANCH   3   5
BRANCH   1  14
ATOM     14  C   UNL     1      -1.316  -0.378  -0.346  0.00  0.00    +0.144 C 
BRANCH  14  15
ATOM     15  C   UNL     1      -1.338  -1.767  -0.928  0.00  0.00    +0.144 C 
ATOM     16  N   UNL     1      -0.405  -2.143  -1.739  0.00  0.00    -0.076 NA
ATOM     17  N   UNL     1      -2.353  -2.637  -0.597  0.00  0.00    -0.343 N 
ATOM     18  H   UNL     1      -3.054  -2.356   0.011  0.00  0.00    +0.144 HD
ATOM     19  H   UNL     1      -2.367  -3.532  -0.972  0.00  0.00    +0.144 HD
BRANCH  16  20
ATOM     20  O   UNL     1      -0.425  -3.448  -2.286  0.00  0.00    -0.408 OA
ATOM     21  H   UNL     1       0.314  -3.637  -2.881  0.00  0.00    +0.328 HD
ENDBRANCH  16  20
ENDBRANCH  14  15
BRANCH  14  23
ATOM     22  C   UNL     1       1.036  -0.853   0.349  0.00  0.00    +0.008 C 
ATOM     23  C   UNL     1       0.118   0.154  -0.347  0.00  0.00    +0.002 C 
ATOM     24  C   UNL     1       0.585   0.356  -1.790  0.00  0.00    +0.008 C 
ENDBRANCH  14  23
ENDBRANCH   1  14
TORSDOF 5
