REMARK  Name = ZINC24716994
REMARK  6 active torsions:
REMARK  status: ('A' for Active; 'I' for Inactive)
REMARK    1  A    between atoms: C_6  and  S_7
REMARK    2  A    between atoms: S_7  and  N_10
REMARK    3  A    between atoms: N_13  and  C_14
REMARK    4  A    between atoms: C_14  and  C_15
REMARK    5  A    between atoms: C_15  and  C_17
REMARK    6  A    between atoms: C_19  and  C_23
REMARK                            x       y       z     vdW  Elec       q    Type
REMARK                         _______ _______ _______ _____ _____    ______ ____
ROOT
ATOM      1  C   UNL     1      -2.840  -0.068   0.015  0.00  0.00    +0.184 C 
ENDROOT
BRANCH   1  10
ATOM      2  C   UNL     1      -4.476  -4.013   0.294  0.00  0.00    +0.030 A 
ATOM      3  C   UNL     1      -3.965  -2.753   0.527  0.00  0.00    +0.025 A 
ATOM      4  C   UNL     1      -4.618  -1.628   0.025  0.00  0.00    +0.033 A 
ATOM      5  C   UNL     1      -5.783  -1.797  -0.714  0.00  0.00    -0.023 A 
ATOM      6  C   UNL     1      -6.292  -3.058  -0.940  0.00  0.00    +0.034 A 
ATOM      7  C   UNL     1      -5.639  -4.170  -0.436  0.00  0.00    +0.105 A 
ATOM      8  C   UNL     1      -6.265  -0.426  -1.145  0.00  0.00    +0.056 C 
ATOM      9  C   UNL     1      -5.022   0.463  -0.914  0.00  0.00    +0.110 C 
ATOM     10  N   UNL     1      -4.290  -0.272   0.141  0.00  0.00    -0.322 N 
BRANCH   7  11
ATOM     11  S   UNL     1      -6.289  -5.782  -0.726  0.00  0.00    +0.056 S 
ATOM     12  O   UNL     1      -7.088  -5.693  -1.898  0.00  0.00    -0.153 OA
ATOM     13  O   UNL     1      -5.198  -6.685  -0.614  0.00  0.00    -0.153 OA
BRANCH  11  14
ATOM     14  N   UNL     1      -7.319  -6.126   0.524  0.00  0.00    -0.204 NA
ATOM     15  H   UNL     1      -7.748  -7.129   0.380  0.00  0.00    +0.144 HD
ATOM     16  H   UNL     1      -8.128  -5.381   0.548  0.00  0.00    +0.144 HD
ENDBRANCH  11  14
ENDBRANCH   7  11
ENDBRANCH   1  10
BRANCH   1  17
ATOM     17  C   UNL     1      -2.535   1.407   0.060  0.00  0.00    +0.182 C 
ATOM     18  O   UNL     1      -3.421   2.203   0.289  0.00  0.00    -0.290 OA
BRANCH  17  19
ATOM     19  C   UNL     1      -1.167   1.879  -0.174  0.00  0.00    +0.037 A 
ATOM     20  C   UNL     1      -0.726   3.225  -0.161  0.00  0.00    +0.043 A 
ATOM     21  C   UNL     1       0.609   3.209  -0.430  0.00  0.00    +0.103 A 
ATOM     22  N   UNL     1       1.003   1.899  -0.602  0.00  0.00    -0.356 N 
ATOM     23  H   UNL     1       2.054   1.666  -0.829  0.00  0.00    +0.165 HD
ATOM     24  C   UNL     1      -0.058   1.093  -0.447  0.00  0.00    +0.094 A 
BRANCH  21  25
ATOM     25  C   UNL     1       1.481   4.387  -0.521  0.00  0.00    +0.263 C 
ATOM     26  O   UNL     1       1.020   5.500  -0.349  0.00  0.00    -0.268 OA
ATOM     27  N   UNL     1       2.792   4.236  -0.794  0.00  0.00    -0.296 N 
ATOM     28  C   UNL     1       3.479   2.955  -1.015  0.00  0.00    +0.108 C 
ATOM     29  C   UNL     1       4.968   3.271  -1.268  0.00  0.00    +0.020 C 
ATOM     30  C   UNL     1       5.143   4.663  -0.607  0.00  0.00    +0.020 C 
ATOM     31  C   UNL     1       3.777   5.327  -0.913  0.00  0.00    +0.108 C 
ENDBRANCH  21  25
ENDBRANCH  17  19
ENDBRANCH   1  17
TORSDOF 6
