REMARK  Name = ZINC59544375
REMARK  4 active torsions:
REMARK  status: ('A' for Active; 'I' for Inactive)
REMARK    1  A    between atoms: C_3  and  N_10
REMARK    2  A    between atoms: C_5  and  N_7
REMARK    3  A    between atoms: C_11  and  C_13
REMARK    4  A    between atoms: C_13  and  C_14
REMARK                            x       y       z     vdW  Elec       q    Type
REMARK                         _______ _______ _______ _____ _____    ______ ____
ROOT
ATOM      1  C   UNL     1       4.863   4.229  -0.238  0.00  0.00    +0.089 C 
ENDROOT
BRANCH   1   2
ATOM      2  C   UNL     1       4.567   5.728  -0.329  0.00  0.00    +0.025 C 
ATOM      3  C   UNL     1       5.860   6.491  -0.318  0.00  0.00    +0.200 C 
ATOM      4  O   UNL     1       6.732   6.147   0.451  0.00  0.00    -0.278 OA
ATOM      5  N   UNL     1       6.090   7.537  -1.124  0.00  0.00    -0.315 N 
ATOM      6  C   UNL     1       5.109   7.993  -2.101  0.00  0.00    +0.059 C 
ATOM      7  C   UNL     1       5.080   9.516  -2.171  0.00  0.00    +0.020 C 
ATOM      8  C   UNL     1       4.605  10.091  -0.835  0.00  0.00    +0.002 C 
ATOM      9  C   UNL     1       3.200   9.562  -0.532  0.00  0.00    -0.001 C 
ATOM     10  C   UNL     1       3.248   8.038  -0.428  0.00  0.00    -0.014 C 
ATOM     11  C   UNL     1       3.722   7.462  -1.741  0.00  0.00    -0.050 C 
ATOM     12  N   UNL     1       3.825   6.002  -1.566  0.00  0.00    +0.390 N 
ATOM     13  H   UNL     1       6.936   8.006  -1.055  0.00  0.00    +0.149 HD
ATOM     14  H   UNL     1       4.315   5.598  -2.351  0.00  0.00    -0.084 HD
ATOM     15  H   UNL     1       2.900   5.605  -1.501  0.00  0.00    -0.084 HD
ENDBRANCH   1   2
BRANCH   1  17
ATOM     16  N   UNL     1       3.584   2.123  -0.021  0.00  0.00    -0.285 N 
ATOM     17  C   UNL     1       3.569   3.468  -0.116  0.00  0.00    +0.216 C 
ATOM     18  O   UNL     1       2.513   4.065  -0.103  0.00  0.00    -0.276 OA
ATOM     19  H   UNL     1       4.429   1.651   0.036  0.00  0.00    +0.155 HD
BRANCH  16  22
ATOM     20  C   UNL     1       1.114  -0.539  -0.595  0.00  0.00    +0.004 A 
ATOM     21  C   UNL     1       2.303   0.163  -0.613  0.00  0.00    +0.023 A 
ATOM     22  C   UNL     1       2.381   1.409  -0.005  0.00  0.00    +0.036 A 
ATOM     23  C   UNL     1       1.262   1.946   0.619  0.00  0.00    +0.056 A 
ATOM     24  C   UNL     1       0.076   1.238   0.633  0.00  0.00    +0.128 A 
ATOM     25  C   UNL     1       0.002  -0.003   0.027  0.00  0.00    +0.033 A 
BRANCH  24  26
ATOM     26  N   UNL     1      -1.117   1.809   1.298  0.00  0.00    +0.056 N 
ATOM     27  O   UNL     1      -1.053   2.894   1.827  0.00  0.00    -0.126 OA
ATOM     28  O   UNL     1      -2.156   1.190   1.311  0.00  0.00    -0.126 OA
ENDBRANCH  24  26
ENDBRANCH  16  22
ENDBRANCH   1  17
TORSDOF 4
