REMARK  Name = ZINC55369102
REMARK  3 active torsions:
REMARK  status: ('A' for Active; 'I' for Inactive)
REMARK    1  A    between atoms: C_3  and  C_20
REMARK    2  A    between atoms: C_7  and  C_9
REMARK    3  A    between atoms: C_9  and  C_10
REMARK                            x       y       z     vdW  Elec       q    Type
REMARK                         _______ _______ _______ _____ _____    ______ ____
ROOT
ATOM      1  C   UNL     1      -0.112   0.902   0.108  0.00  0.00    +0.021 C 
ATOM      2  C   UNL     1       1.366   1.293   0.373  0.00  0.00    +0.033 C 
ATOM      3  C   UNL     1       2.064   0.749  -0.898  0.00  0.00    +0.162 C 
ATOM      4  N   UNL     1       1.361  -0.510  -1.205  0.00  0.00    -0.290 N 
ATOM      5  C   UNL     1       0.014  -0.453  -0.620  0.00  0.00    +0.108 C 
ATOM      6  C   UNL     1       1.870  -1.543  -1.907  0.00  0.00    +0.217 C 
ATOM      7  O   UNL     1       3.025  -1.515  -2.274  0.00  0.00    -0.276 OA
ENDROOT
BRANCH   3   8
ATOM      8  C   UNL     1       3.522   0.485  -0.624  0.00  0.00    +0.231 C 
ATOM      9  O   UNL     1       3.869  -0.580  -0.158  0.00  0.00    -0.274 OA
ATOM     10  N   UNL     1       4.441   1.433  -0.895  0.00  0.00    -0.328 N 
ATOM     11  H   UNL     1       4.164   2.285  -1.268  0.00  0.00    +0.145 HD
ATOM     12  H   UNL     1       5.380   1.263  -0.719  0.00  0.00    +0.145 HD
ENDBRANCH   3   8
BRANCH   6  13
ATOM     13  C   UNL     1       1.003  -2.731  -2.235  0.00  0.00    +0.103 C 
BRANCH  13  14
ATOM     14  C   UNL     1       1.817  -3.752  -3.032  0.00  0.00    -0.020 C 
ATOM     15  C   UNL     1       3.016  -4.210  -2.199  0.00  0.00    +0.011 C 
ATOM     16  C   UNL     1       3.830  -5.231  -2.996  0.00  0.00    -0.010 C 
ATOM     17  C   UNL     1       2.949  -6.437  -3.329  0.00  0.00    +0.007 C 
ATOM     18  C   UNL     1       1.750  -5.979  -4.162  0.00  0.00    -0.010 C 
ATOM     19  C   UNL     1       0.936  -4.958  -3.365  0.00  0.00    +0.011 C 
ATOM     20  C   UNL     1       2.246  -5.336  -5.458  0.00  0.00    +0.007 C 
ATOM     21  C   UNL     1       3.127  -4.130  -5.125  0.00  0.00    -0.010 C 
ATOM     22  C   UNL     1       4.326  -4.588  -4.293  0.00  0.00    +0.007 C 
ATOM     23  C   UNL     1       2.313  -3.109  -4.329  0.00  0.00    +0.011 C 
ENDBRANCH  13  14
ENDBRANCH   6  13
TORSDOF 3
