REMARK  Name = ZINC63479903
REMARK  3 active torsions:
REMARK  status: ('A' for Active; 'I' for Inactive)
REMARK    1  A    between atoms: C_7  and  C_10
REMARK    2  A    between atoms: C_10  and  C_11
REMARK    3  A    between atoms: N_19  and  C_22
REMARK                            x       y       z     vdW  Elec       q    Type
REMARK                         _______ _______ _______ _____ _____    ______ ____
ROOT
ATOM      1  C   UNL     1       0.392  -3.639  -1.441  0.00  0.00    +0.072 C 
ATOM      2  C   UNL     1      -0.497  -4.901  -1.469  0.00  0.00    +0.107 C 
ATOM      3  C   UNL     1       0.501  -6.090  -1.539  0.00  0.00    +0.123 C 
ATOM      4  C   UNL     1       0.213  -6.705  -2.890  0.00  0.00    +0.233 C 
ATOM      5  O   UNL     1       0.771  -7.679  -3.349  0.00  0.00    -0.274 OA
ATOM      6  N   UNL     1      -0.752  -6.008  -3.500  0.00  0.00    -0.210 N 
ATOM      7  C   UNL     1      -1.233  -4.965  -2.787  0.00  0.00    +0.232 C 
ATOM      8  O   UNL     1      -2.107  -4.201  -3.139  0.00  0.00    -0.274 OA
ATOM      9  C   UNL     1       1.886  -5.432  -1.541  0.00  0.00    +0.136 C 
ATOM     10  N   UNL     1       1.676  -4.059  -2.062  0.00  0.00    -0.295 NA
ATOM     11  C   UNL     1       2.857  -6.191  -2.400  0.00  0.00    +0.005 A 
ATOM     12  C   UNL     1       2.877  -6.530  -3.735  0.00  0.00    +0.008 A 
ATOM     13  C   UNL     1       3.937  -7.255  -4.250  0.00  0.00    +0.002 A 
ATOM     14  C   UNL     1       4.977  -7.636  -3.421  0.00  0.00    +0.022 A 
ATOM     15  C   UNL     1       4.962  -7.297  -2.083  0.00  0.00    +0.062 A 
ATOM     16  C   UNL     1       3.898  -6.567  -1.557  0.00  0.00    +0.057 A 
ATOM     17  N   UNL     1       3.658  -6.110  -0.259  0.00  0.00    -0.282 N 
ATOM     18  C   UNL     1       2.496  -5.434  -0.166  0.00  0.00    +0.243 C 
ATOM     19  O   UNL     1       2.033  -4.925   0.833  0.00  0.00    -0.273 OA
ATOM     20 CL   UNL     1       6.273  -7.782  -1.053  0.00  0.00    -0.082 Cl
ATOM     21  H   UNL     1       1.610  -4.051  -3.069  0.00  0.00    +0.124 HD
ATOM     22  H   UNL     1       4.258  -6.261   0.488  0.00  0.00    +0.155 HD
ENDROOT
BRANCH   6  23
ATOM     23  C   UNL     1      -1.234  -6.336  -4.776  0.00  0.00    +0.044 A 
ATOM     24  C   UNL     1      -1.945  -7.512  -4.969  0.00  0.00    +0.027 A 
ATOM     25  C   UNL     1      -2.419  -7.833  -6.226  0.00  0.00    +0.040 A 
ATOM     26  C   UNL     1      -2.184  -6.983  -7.294  0.00  0.00    +0.124 A 
ATOM     27  C   UNL     1      -1.475  -5.809  -7.103  0.00  0.00    +0.040 A 
ATOM     28  C   UNL     1      -1.005  -5.482  -5.846  0.00  0.00    +0.027 A 
ATOM     29  F   UNL     1      -2.648  -7.299  -8.523  0.00  0.00    -0.205 F 
ENDBRANCH   6  23
BRANCH   1  30
ATOM     30  C   UNL     1       0.623  -3.182   0.001  0.00  0.00    +0.052 C 
BRANCH  30  37
ATOM     31  C   UNL     1      -3.415  -3.545   2.152  0.00  0.00    +0.001 A 
ATOM     32  C   UNL     1      -4.084  -2.323   2.300  0.00  0.00    +0.002 A 
ATOM     33  C   UNL     1      -3.579  -1.155   1.850  0.00  0.00    +0.026 A 
ATOM     34  C   UNL     1      -2.318  -1.123   1.192  0.00  0.00    +0.043 A 
ATOM     35  N   UNL     1      -1.628  -0.136   0.674  0.00  0.00    -0.380 N 
ATOM     36  C   UNL     1      -0.383  -0.678   0.117  0.00  0.00    +0.144 C 
ATOM     37  C   UNL     1      -0.424  -2.166   0.380  0.00  0.00    -0.040 C 
ATOM     38  C   UNL     1      -1.591  -2.402   1.022  0.00  0.00    -0.001 A 
ATOM     39  C   UNL     1      -2.210  -3.627   1.542  0.00  0.00    +0.010 A 
ATOM     40  H   UNL     1      -1.896   0.796   0.662  0.00  0.00    +0.160 HD
ENDBRANCH  30  37
ENDBRANCH   1  30
TORSDOF 3
