REMARK  Name = ZINC13052199
REMARK  11 active torsions:
REMARK  status: ('A' for Active; 'I' for Inactive)
REMARK    1  A    between atoms: C_1  and  C_2
REMARK    2  A    between atoms: C_2  and  C_4
REMARK    3  A    between atoms: C_2  and  O_33
REMARK    4  A    between atoms: C_4  and  N_5
REMARK    5  A    between atoms: C_11  and  C_31
REMARK    6  A    between atoms: C_15  and  S_16
REMARK    7  A    between atoms: S_16  and  C_17
REMARK    8  A    between atoms: C_17  and  C_18
REMARK    9  A    between atoms: N_20  and  C_21
REMARK   10  A    between atoms: C_26  and  S_27
REMARK   11  A    between atoms: S_27  and  C_28
REMARK                            x       y       z     vdW  Elec       q    Type
REMARK                         _______ _______ _______ _____ _____    ______ ____
ROOT
ATOM      1  N   UNL     1      -0.052   1.117   2.479  0.00  0.00    -0.285 N 
ATOM      2  C   UNL     1      -0.404  -0.066   3.033  0.00  0.00    +0.262 A 
ATOM      3  O   UNL     1      -1.301  -0.741   2.562  0.00  0.00    -0.267 OA
ATOM      4  C   UNL     1       0.340  -0.510   4.222  0.00  0.00    +0.065 A 
ATOM      5  C   UNL     1       0.052  -1.717   4.858  0.00  0.00    +0.016 A 
ATOM      6  C   UNL     1       0.762  -2.090   5.963  0.00  0.00    +0.016 A 
ATOM      7  C   UNL     1       1.781  -1.271   6.467  0.00  0.00    +0.065 A 
ATOM      8  C   UNL     1       2.085  -0.064   5.849  0.00  0.00    +0.043 A 
ATOM      9  C   UNL     1       1.365   0.328   4.717  0.00  0.00    +0.080 A 
ATOM     10  N   UNL     1       1.626   1.496   4.083  0.00  0.00    -0.223 NA
ATOM     11  C   UNL     1       0.952   1.866   3.022  0.00  0.00    +0.173 A 
ENDROOT
BRANCH   7  12
ATOM     12  C   UNL     1       2.538  -1.693   7.665  0.00  0.00    +0.387 C 
ATOM     13  O   UNL     1       3.422  -0.987   8.105  0.00  0.00    -0.241 OA
ATOM     14  O   UNL     1       2.248  -2.862   8.268  0.00  0.00    -0.241 OA
ENDBRANCH   7  12
BRANCH   1  15
ATOM     15  C   UNL     1      -0.759   1.601   1.290  0.00  0.00    +0.158 C 
BRANCH  15  17
ATOM     16  C   UNL     1      -0.784   1.603  -1.208  0.00  0.00    +0.039 C 
ATOM     17  C   UNL     1      -0.047   1.097   0.033  0.00  0.00    +0.131 C 
BRANCH  17  18
ATOM     18  O   UNL     1       1.297   1.583   0.020  0.00  0.00    -0.390 OA
ATOM     19  H   UNL     1       1.809   1.302  -0.751  0.00  0.00    +0.210 HD
ENDBRANCH  17  18
ENDBRANCH  15  17
ENDBRANCH   1  15
BRANCH  11  20
ATOM     20  S   UNL     1       1.360   3.402   2.261  0.00  0.00    -0.078 S 
BRANCH  20  21
ATOM     21  C   UNL     1       2.700   3.946   3.350  0.00  0.00    +0.173 C 
BRANCH  21  22
ATOM     22  C   UNL     1       3.221   5.279   2.878  0.00  0.00    +0.228 C 
ATOM     23  O   UNL     1       2.733   5.809   1.903  0.00  0.00    -0.275 OA
ATOM     24  N   UNL     1       4.228   5.882   3.541  0.00  0.00    -0.284 N 
ATOM     25  H   UNL     1       4.574   5.490   4.358  0.00  0.00    +0.155 HD
BRANCH  24  26
ATOM     26  C   UNL     1       4.775   7.075   3.050  0.00  0.00    +0.047 A 
ATOM     27  C   UNL     1       3.964   8.000   2.410  0.00  0.00    +0.024 A 
ATOM     28  C   UNL     1       4.505   9.178   1.930  0.00  0.00    +0.002 A 
ATOM     29  C   UNL     1       5.856   9.435   2.078  0.00  0.00    +0.001 A 
ATOM     30  C   UNL     1       6.673   8.516   2.709  0.00  0.00    +0.017 A 
ATOM     31  C   UNL     1       6.138   7.333   3.198  0.00  0.00    +0.034 A 
BRANCH  31  32
ATOM     32  S   UNL     1       7.177   6.159   4.003  0.00  0.00    -0.054 S 
BRANCH  32  33
ATOM     33  C   UNL     1       8.821   6.923   3.954  0.00  0.00    +0.404 C 
ATOM     34  F   UNL     1       9.198   7.134   2.623  0.00  0.00    -0.197 F 
ATOM     35  F   UNL     1       8.787   8.148   4.629  0.00  0.00    -0.197 F 
ENDBRANCH  32  33
ENDBRANCH  31  32
ENDBRANCH  24  26
ENDBRANCH  21  22
ENDBRANCH  20  21
ENDBRANCH  11  20
TORSDOF 10
