REMARK  Name = ZINC64981114
REMARK  8 active torsions:
REMARK  status: ('A' for Active; 'I' for Inactive)
REMARK    1  A    between atoms: C_1  and  C_2
REMARK    2  A    between atoms: C_3  and  C_23
REMARK    3  A    between atoms: C_5  and  N_9
REMARK    4  A    between atoms: C_6  and  C_7
REMARK    5  A    between atoms: C_10  and  C_12
REMARK    6  A    between atoms: C_12  and  S_13
REMARK    7  A    between atoms: S_13  and  C_14
REMARK    8  A    between atoms: C_20  and  N_22
REMARK                            x       y       z     vdW  Elec       q    Type
REMARK                         _______ _______ _______ _____ _____    ______ ____
ROOT
ATOM      1  N   UNL     1       0.055  -3.116   2.084  0.00  0.00    -0.278 N 
ATOM      2  C   UNL     1       0.072  -4.426   1.764  0.00  0.00    +0.228 C 
ATOM      3  O   UNL     1       0.071  -4.765   0.600  0.00  0.00    -0.275 OA
ATOM      4  H   UNL     1       0.056  -2.845   3.015  0.00  0.00    +0.155 HD
ENDROOT
BRANCH   1   9
ATOM      5  C   UNL     1      -0.018   1.503   0.010  0.00  0.00    +0.046 C 
ATOM      6  C   UNL     1       0.002  -0.004   0.002  0.00  0.00    -0.021 A 
ATOM      7  C   UNL     1       0.006  -0.713  -1.143  0.00  0.00    -0.007 A 
ATOM      8  S   UNL     1       0.033  -2.401  -0.579  0.00  0.00    -0.077 S 
ATOM      9  C   UNL     1       0.037  -2.157   1.081  0.00  0.00    +0.090 A 
ATOM     10  C   UNL     1       0.025  -0.778   1.222  0.00  0.00    +0.083 A 
ATOM     11  C   UNL     1      -0.008  -0.201  -2.560  0.00  0.00    +0.052 C 
BRANCH  10  12
ATOM     12  C   UNL     1       0.028  -0.152   2.510  0.00  0.00    +0.102 C 
ATOM     13  N   UNL     1       0.031   0.344   3.532  0.00  0.00    -0.191 NA
ENDBRANCH  10  12
ENDBRANCH   1   9
BRANCH   2  14
ATOM     14  C   UNL     1       0.091  -5.467   2.853  0.00  0.00    +0.173 C 
BRANCH  14  15
ATOM     15  S   UNL     1       0.110  -7.121   2.108  0.00  0.00    -0.078 S 
BRANCH  15  16
ATOM     16  C   UNL     1       0.131  -8.212   3.491  0.00  0.00    +0.171 A 
ATOM     17  N   UNL     1       0.154  -9.557   3.280  0.00  0.00    -0.302 N 
ATOM     18  H   UNL     1       0.159  -9.905   2.374  0.00  0.00    +0.171 HD
ATOM     19  C   UNL     1       0.171 -10.408   4.328  0.00  0.00    +0.254 A 
ATOM     20  O   UNL     1       0.192 -11.615   4.147  0.00  0.00    -0.268 OA
ATOM     21  C   UNL     1       0.164  -9.883   5.624  0.00  0.00    +0.113 A 
ATOM     22  C   UNL     1       0.140  -8.504   5.785  0.00  0.00    +0.124 A 
ATOM     23  N   UNL     1       0.130  -7.710   4.709  0.00  0.00    -0.209 NA
BRANCH  22  24
ATOM     24  N   UNL     1       0.133  -7.955   7.052  0.00  0.00    -0.343 N 
ATOM     25  H   UNL     1       0.145  -8.533   7.831  0.00  0.00    +0.144 HD
ATOM     26  H   UNL     1       0.117  -6.992   7.163  0.00  0.00    +0.144 HD
ENDBRANCH  22  24
ENDBRANCH  15  16
ENDBRANCH  14  15
ENDBRANCH   2  14
TORSDOF 6
