REMARK  Name = ZINC35746798
REMARK  18 active torsions:
REMARK  status: ('A' for Active; 'I' for Inactive)
REMARK    1  A    between atoms: C_1  and  C_2
REMARK    2  A    between atoms: C_2  and  O_3
REMARK    3  A    between atoms: O_3  and  C_4
REMARK    4  A    between atoms: C_4  and  C_5
REMARK    5  A    between atoms: C_5  and  C_7
REMARK    6  A    between atoms: C_5  and  O_36
REMARK    7  A    between atoms: C_7  and  N_8
REMARK    8  A    between atoms: N_8  and  C_9
REMARK    9  A    between atoms: N_8  and  C_17
REMARK   10  A    between atoms: C_9  and  C_10
REMARK   11  A    between atoms: C_10  and  N_11
REMARK   12  A    between atoms: C_17  and  C_18
REMARK   13  A    between atoms: C_24  and  C_35
REMARK   14  A    between atoms: C_25  and  C_29
REMARK   15  A    between atoms: C_29  and  O_31
REMARK   16  A    between atoms: O_31  and  C_32
REMARK   17  A    between atoms: C_32  and  C_33
REMARK   18  A    between atoms: C_32  and  C_34
REMARK                            x       y       z     vdW  Elec       q    Type
REMARK                         _______ _______ _______ _____ _____    ______ ____
ROOT
ATOM      1  C   UNL     1      -4.578  -5.349   0.041  0.00  0.00    -0.003 C 
ENDROOT
BRANCH   1   2
ATOM      2  C   UNL     1      -4.346  -5.795   1.461  0.00  0.00    +0.094 A 
ATOM      3  N   UNL     1      -4.505  -7.105   1.774  0.00  0.00    -0.312 N 
ATOM      4  H   UNL     1      -4.766  -7.731   1.080  0.00  0.00    +0.170 HD
ATOM      5  C   UNL     1      -4.309  -7.555   3.029  0.00  0.00    +0.260 A 
ATOM      6  O   UNL     1      -4.454  -8.734   3.299  0.00  0.00    -0.267 OA
ATOM      7  C   UNL     1      -3.912  -6.580   4.070  0.00  0.00    +0.076 A 
ATOM      8  C   UNL     1      -3.651  -6.793   5.425  0.00  0.00    -0.015 A 
ATOM      9  C   UNL     1      -3.295  -5.743   6.221  0.00  0.00    +0.102 A 
ATOM     10  S   UNL     1      -3.304  -4.366   5.086  0.00  0.00    -0.062 S 
ATOM     11  C   UNL     1      -3.779  -5.247   3.619  0.00  0.00    +0.116 A 
ATOM     12  N   UNL     1      -3.992  -4.911   2.354  0.00  0.00    -0.229 NA
ATOM     13  C   UNL     1      -3.765  -8.178   6.007  0.00  0.00    +0.046 C 
BRANCH   9  14
ATOM     14  C   UNL     1      -2.982  -5.747   7.652  0.00  0.00    +0.346 C 
ATOM     15  O   UNL     1      -3.024  -6.786   8.281  0.00  0.00    -0.244 OA
BRANCH  14  16
ATOM     16  O   UNL     1      -2.646  -4.596   8.271  0.00  0.00    -0.458 OA
BRANCH  16  17
ATOM     17  C   UNL     1      -2.353  -4.673   9.668  0.00  0.00    +0.171 C 
ATOM     18  C   UNL     1      -1.335  -3.591  10.036  0.00  0.00    +0.052 C 
ATOM     19  C   UNL     1      -3.638  -4.459  10.471  0.00  0.00    +0.052 C 
ENDBRANCH  16  17
ENDBRANCH  14  16
ENDBRANCH   9  14
ENDBRANCH   1   2
BRANCH   1  20
ATOM     20  N   UNL     1      -4.210  -3.933  -0.094  0.00  0.00    +0.387 N 
ATOM     21  H   UNL     1      -4.692  -3.392   0.608  0.00  0.00    -0.081 HD
BRANCH  20  22
ATOM     22  C   UNL     1      -2.759  -3.786   0.085  0.00  0.00    -0.044 C 
BRANCH  22  23
ATOM     23  C   UNL     1      -2.392  -2.300   0.069  0.00  0.00    +0.124 C 
BRANCH  23  24
ATOM     24  O   UNL     1      -2.980  -1.652   1.198  0.00  0.00    -0.391 OA
ATOM     25  H   UNL     1      -2.692  -2.008   2.050  0.00  0.00    +0.210 HD
ENDBRANCH  23  24
BRANCH  23  26
ATOM     26  C   UNL     1      -0.871  -2.151   0.130  0.00  0.00    +0.189 C 
BRANCH  26  27
ATOM     27  O   UNL     1      -0.522  -0.771  -0.002  0.00  0.00    -0.378 OA
BRANCH  27  29
ATOM     28  C   UNL     1       1.139   0.981  -0.108  0.00  0.00    +0.034 C 
ATOM     29  C   UNL     1       0.884  -0.520   0.042  0.00  0.00    +0.156 C 
ENDBRANCH  27  29
ENDBRANCH  26  27
ENDBRANCH  23  26
ENDBRANCH  22  23
ENDBRANCH  20  22
BRANCH  20  30
ATOM     30  C   UNL     1      -4.590  -3.454  -1.429  0.00  0.00    -0.063 C 
BRANCH  30  31
ATOM     31  C   UNL     1      -6.113  -3.487  -1.569  0.00  0.00    +0.066 C 
BRANCH  31  32
ATOM     32  N   UNL     1      -6.500  -2.896  -2.857  0.00  0.00    -0.300 NA
ATOM     33  C   UNL     1      -6.184  -1.461  -2.894  0.00  0.00    +0.112 C 
ATOM     34  C   UNL     1      -6.547  -0.898  -4.271  0.00  0.00    +0.175 C 
ATOM     35  O   UNL     1      -7.929  -1.155  -4.535  0.00  0.00    -0.377 OA
ATOM     36  C   UNL     1      -8.272  -2.544  -4.508  0.00  0.00    +0.175 C 
ATOM     37  C   UNL     1      -7.926  -3.122  -3.134  0.00  0.00    +0.112 C 
ENDBRANCH  31  32
ENDBRANCH  30  31
ENDBRANCH  20  30
ENDBRANCH   1  20
TORSDOF 14
