REMARK  Name = ZINC02236985
REMARK  2 active torsions:
REMARK  status: ('A' for Active; 'I' for Inactive)
REMARK    1  A    between atoms: C_4  and  N_7
REMARK    2  A    between atoms: C_15  and  C_18
REMARK                            x       y       z     vdW  Elec       q    Type
REMARK                         _______ _______ _______ _____ _____    ______ ____
ROOT
ATOM      1  N   UNL     1       3.623  -0.652  -0.037  0.00  0.00    -0.218 N 
ATOM      2  C   UNL     1       3.878  -1.811   0.569  0.00  0.00    +0.136 A 
ATOM      3  C   UNL     1       5.218  -2.139   0.291  0.00  0.00    +0.096 A 
ATOM      4  C   UNL     1       5.739  -1.114  -0.501  0.00  0.00    +0.149 A 
ATOM      5  N   UNL     1       4.789  -0.234  -0.701  0.00  0.00    -0.172 NA
ATOM      6  C   UNL     1       5.801  -3.380   0.816  0.00  0.00    +0.251 C 
ATOM      7  O   UNL     1       6.890  -3.779   0.448  0.00  0.00    -0.270 OA
ATOM      8  N   UNL     1       5.064  -4.058   1.730  0.00  0.00    -0.289 N 
ATOM      9  C   UNL     1       3.836  -3.518   2.303  0.00  0.00    +0.194 C 
ATOM     10  N   UNL     1       3.116  -2.655   1.354  0.00  0.00    -0.306 N 
ATOM     11  H   UNL     1       5.365  -4.935   2.013  0.00  0.00    +0.151 HD
ATOM     12  H   UNL     1       2.149  -2.677   1.283  0.00  0.00    +0.150 HD
ENDROOT
BRANCH   9  13
ATOM     13  C   UNL     1       4.180  -2.713   3.530  0.00  0.00    +0.027 A 
ATOM     14  C   UNL     1       3.388  -1.641   3.899  0.00  0.00    +0.049 A 
ATOM     15  C   UNL     1       3.705  -0.903   5.026  0.00  0.00    +0.020 A 
ATOM     16  C   UNL     1       4.813  -1.236   5.782  0.00  0.00    +0.003 A 
ATOM     17  C   UNL     1       5.605  -2.308   5.413  0.00  0.00    +0.020 A 
ATOM     18  C   UNL     1       5.285  -3.050   4.291  0.00  0.00    +0.049 A 
ATOM     19 CL   UNL     1       6.276  -4.401   3.832  0.00  0.00    -0.083 Cl
ATOM     20 CL   UNL     1       1.997  -1.221   2.949  0.00  0.00    -0.083 Cl
ENDBRANCH   9  13
BRANCH   1  24
ATOM     21  C   UNL     1      -0.017   1.379   0.010  0.00  0.00    +0.000 A 
ATOM     22  C   UNL     1       1.170   2.089   0.002  0.00  0.00    +0.002 A 
ATOM     23  C   UNL     1       2.377   1.419  -0.013  0.00  0.00    +0.028 A 
ATOM     24  C   UNL     1       2.400   0.031  -0.021  0.00  0.00    +0.067 A 
ATOM     25  C   UNL     1       1.207  -0.680  -0.013  0.00  0.00    +0.028 A 
ATOM     26  C   UNL     1       0.002  -0.004   0.002  0.00  0.00    +0.002 A 
ENDBRANCH   1  24
TORSDOF 2
