REMARK  Name = ZINC36007097
REMARK  4 active torsions:
REMARK  status: ('A' for Active; 'I' for Inactive)
REMARK    1  A    between atoms: C_6  and  C_7
REMARK    2  A    between atoms: C_7  and  N_8
REMARK    3  A    between atoms: C_14  and  C_16
REMARK    4  A    between atoms: C_16  and  C_17
REMARK                            x       y       z     vdW  Elec       q    Type
REMARK                         _______ _______ _______ _____ _____    ______ ____
ROOT
ATOM      1  N   UNL     1      -1.728  -1.016  -1.372  0.00  0.00    -0.295 NA
ATOM      2  C   UNL     1      -0.789  -1.905  -2.070  0.00  0.00    +0.103 C 
ATOM      3  C   UNL     1      -1.175  -1.988  -3.551  0.00  0.00    +0.123 C 
ATOM      4  N   UNL     1      -2.590  -2.380  -3.644  0.00  0.00    -0.299 N 
ATOM      5  C   UNL     1      -3.576  -1.619  -2.862  0.00  0.00    +0.123 C 
ATOM      6  C   UNL     1      -3.095  -1.551  -1.408  0.00  0.00    +0.103 C 
ATOM      7  C   UNL     1      -2.972  -3.409  -4.426  0.00  0.00    +0.215 C 
ATOM      8  O   UNL     1      -2.146  -4.025  -5.065  0.00  0.00    -0.276 OA
ENDROOT
BRANCH   1   9
ATOM      9  C   UNL     1      -1.294  -0.774   0.010  0.00  0.00    +0.119 C 
BRANCH   9  15
ATOM     10  C   UNL     1      -0.017   1.378   0.010  0.00  0.00    +0.009 A 
ATOM     11  C   UNL     1       1.170   2.088   0.002  0.00  0.00    +0.050 A 
ATOM     12  C   UNL     1       2.380   1.416  -0.013  0.00  0.00    +0.166 A 
ATOM     13  C   UNL     1       2.399   0.023  -0.021  0.00  0.00    +0.167 A 
ATOM     14  C   UNL     1       1.207  -0.682  -0.014  0.00  0.00    +0.054 A 
ATOM     15  C   UNL     1       0.002  -0.004   0.002  0.00  0.00    -0.030 A 
ATOM     16  O   UNL     1       3.698  -0.395  -0.036  0.00  0.00    -0.453 OA
ATOM     17  C   UNL     1       4.466   0.750  -0.450  0.00  0.00    +0.466 C 
ATOM     18  O   UNL     1       3.668   1.870  -0.024  0.00  0.00    -0.453 OA
ENDBRANCH   9  15
ENDBRANCH   1   9
BRANCH   7  19
ATOM     19  C   UNL     1      -4.427  -3.793  -4.507  0.00  0.00    +0.089 C 
BRANCH  19  20
ATOM     20  C   UNL     1      -4.588  -4.982  -5.456  0.00  0.00    +0.025 C 
ATOM     21  C   UNL     1      -6.016  -5.447  -5.433  0.00  0.00    +0.200 C 
ATOM     22  O   UNL     1      -6.590  -5.511  -4.366  0.00  0.00    -0.278 OA
ATOM     23  N   UNL     1      -6.683  -5.792  -6.543  0.00  0.00    -0.315 N 
ATOM     24  C   UNL     1      -6.079  -5.711  -7.867  0.00  0.00    +0.059 C 
ATOM     25  C   UNL     1      -6.494  -6.900  -8.727  0.00  0.00    +0.020 C 
ATOM     26  C   UNL     1      -5.950  -8.196  -8.124  0.00  0.00    +0.002 C 
ATOM     27  C   UNL     1      -4.423  -8.117  -8.057  0.00  0.00    -0.001 C 
ATOM     28  C   UNL     1      -4.018  -6.944  -7.163  0.00  0.00    -0.014 C 
ATOM     29  C   UNL     1      -4.556  -5.661  -7.748  0.00  0.00    -0.050 C 
ATOM     30  N   UNL     1      -4.208  -4.574  -6.814  0.00  0.00    +0.390 N 
ATOM     31  H   UNL     1      -7.596  -6.107  -6.462  0.00  0.00    +0.149 HD
ATOM     32  H   UNL     1      -4.707  -3.735  -7.068  0.00  0.00    -0.084 HD
ATOM     33  H   UNL     1      -3.214  -4.405  -6.852  0.00  0.00    -0.084 HD
ENDBRANCH  19  20
ENDBRANCH   7  19
TORSDOF 4
