REMARK  Name = ZINC63340728
REMARK  12 active torsions:
REMARK  status: ('A' for Active; 'I' for Inactive)
REMARK    1  A    between atoms: C_1  and  C_2
REMARK    2  A    between atoms: C_4  and  C_27
REMARK    3  A    between atoms: C_5  and  S_23
REMARK    4  A    between atoms: C_7  and  C_8
REMARK    5  A    between atoms: N_10  and  C_11
REMARK    6  A    between atoms: C_11  and  C_12
REMARK    7  A    between atoms: C_12  and  C_13
REMARK    8  A    between atoms: C_12  and  C_14
REMARK    9  A    between atoms: C_12  and  N_15
REMARK   10  A    between atoms: C_17  and  C_22
REMARK   11  A    between atoms: C_19  and  C_21
REMARK   12  A    between atoms: S_23  and  N_26
REMARK                            x       y       z     vdW  Elec       q    Type
REMARK                         _______ _______ _______ _____ _____    ______ ____
ROOT
ATOM      1  C   UNL     1       0.242   0.021   2.481  0.00  0.00    +0.244 C 
ATOM      2  O   UNL     1       0.135   1.232   2.503  0.00  0.00    -0.270 OA
ATOM      3  N   UNL     1       0.465  -0.656   3.625  0.00  0.00    -0.313 N 
ATOM      4  H   UNL     1       0.551  -1.622   3.607  0.00  0.00    +0.149 HD
ENDROOT
BRANCH   1  11
ATOM      5  C   UNL     1      -0.511   1.452   0.082  0.00  0.00    +0.044 C 
ATOM      6  C   UNL     1      -0.234  -0.028   0.036  0.00  0.00    -0.038 A 
ATOM      7  C   UNL     1      -0.334  -0.714  -1.157  0.00  0.00    +0.009 A 
ATOM      8  C   UNL     1      -0.080  -2.073  -1.200  0.00  0.00    -0.024 A 
ATOM      9  C   UNL     1       0.275  -2.754  -0.049  0.00  0.00    +0.109 A 
ATOM     10  C   UNL     1       0.378  -2.080   1.150  0.00  0.00    +0.042 A 
ATOM     11  C   UNL     1       0.128  -0.708   1.200  0.00  0.00    +0.041 A 
ATOM     12  C   UNL     1      -0.190  -2.815  -2.507  0.00  0.00    +0.046 C 
BRANCH   9  13
ATOM     13  S   UNL     1       0.595  -4.486  -0.115  0.00  0.00    +0.056 S 
ATOM     14  O   UNL     1       1.487  -4.692  -1.202  0.00  0.00    -0.153 OA
ATOM     15  O   UNL     1       0.903  -4.893   1.211  0.00  0.00    -0.153 OA
BRANCH  13  16
ATOM     16  N   UNL     1      -0.827  -5.231  -0.521  0.00  0.00    -0.204 NA
ATOM     17  H   UNL     1      -0.813  -6.062  -1.021  0.00  0.00    +0.144 HD
ATOM     18  H   UNL     1      -1.674  -4.836  -0.260  0.00  0.00    +0.144 HD
ENDBRANCH  13  16
ENDBRANCH   9  13
ENDBRANCH   1  11
BRANCH   3  19
ATOM     19  C   UNL     1       0.578   0.067   4.894  0.00  0.00    +0.092 C 
BRANCH  19  20
ATOM     20  C   UNL     1       0.829  -0.930   6.028  0.00  0.00    -0.055 C 
ATOM     21  C   UNL     1       0.947  -0.175   7.353  0.00  0.00    -0.008 C 
ATOM     22  C   UNL     1      -0.337  -1.917   6.105  0.00  0.00    -0.008 C 
BRANCH  20  23
ATOM     23  N   UNL     1       2.075  -1.663   5.769  0.00  0.00    +0.384 N 
ATOM     24  C   UNL     1       3.191  -0.713   5.686  0.00  0.00    -0.075 C 
ATOM     25  C   UNL     1       4.479  -1.463   5.336  0.00  0.00    -0.031 C 
ATOM     26  C   UNL     1       4.769  -2.501   6.423  0.00  0.00    +0.003 C 
ATOM     27  C   UNL     1       3.567  -3.441   6.553  0.00  0.00    -0.031 C 
ATOM     28  C   UNL     1       2.314  -2.618   6.857  0.00  0.00    -0.075 C 
ATOM     29  C   UNL     1       3.816  -4.434   7.690  0.00  0.00    +0.005 C 
ATOM     30  C   UNL     1       5.641  -0.471   5.253  0.00  0.00    +0.005 C 
ATOM     31  H   UNL     1       1.995  -2.162   4.896  0.00  0.00    -0.081 HD
ENDBRANCH  20  23
ENDBRANCH  19  20
ENDBRANCH   3  19
TORSDOF 6
