REMARK  Name = ZINC40469187
REMARK  3 active torsions:
REMARK  status: ('A' for Active; 'I' for Inactive)
REMARK    1  A    between atoms: C_10  and  C_13
REMARK    2  A    between atoms: N_15  and  CA_16
REMARK    3  A    between atoms: CA_16  and  C_17
REMARK                            x       y       z     vdW  Elec       q    Type
REMARK                         _______ _______ _______ _____ _____    ______ ____
ROOT
ATOM      1  C   UNK A   1      -0.019   1.533   0.011  0.00  0.00    +0.000 C 
ATOM      2  C   UNK A   1       1.393   2.111   0.000  0.00  0.00    -0.002 C 
ATOM      3  C   UNK A   1       2.213   1.567  -1.182  0.00  0.00    -0.015 C 
ATOM      4  C   UNK A   1       2.224   0.057  -1.066  0.00  0.00    -0.068 C 
ATOM      5  C   UNK A   1       0.763  -0.438  -1.239  0.00  0.00    -0.026 C 
ATOM      6  C   UNK A   1       0.002  -0.004   0.002  0.00  0.00    +0.002 C 
ATOM      7  C   UNK A   1       0.999  -1.951  -1.368  0.00  0.00    -0.005 C 
ATOM      8  C   UNK A   1       2.287  -2.000  -2.235  0.00  0.00    +0.017 C 
ATOM      9  N   UNK A   1       2.961  -0.694  -2.076  0.00  0.00    +0.389 N 
ATOM     10  H   UNK A   1       2.953  -0.192  -2.951  0.00  0.00    -0.084 HD
ATOM     11  H   UNK A   1       3.910  -0.842  -1.770  0.00  0.00    -0.084 HD
ENDROOT
BRANCH   8  12
ATOM     12  C   UNK A   1       3.180  -3.119  -1.765  0.00  0.00    +0.199 C 
ATOM     13  O   UNK A   1       4.128  -2.878  -1.048  0.00  0.00    -0.278 OA
ATOM     14  N   GLY A   2       2.926  -4.388  -2.141  0.00  0.00    -0.306 N 
ATOM     15  H   GLY A   2       2.167  -4.581  -2.714  0.00  0.00    +0.149 HD
BRANCH  14  16
ATOM     16  CA  GLY A   2       3.794  -5.476  -1.684  0.00  0.00    +0.229 C 
BRANCH  16  17
ATOM     17  C   GLY A   2       3.296  -6.784  -2.241  0.00  0.00    +0.373 C 
ATOM     18  O   GLY A   2       2.307  -6.806  -2.954  0.00  0.00    -0.245 OA
ATOM     19  OXT GLY A   2       3.882  -7.821  -1.979  0.00  0.00    -0.245 OA
ENDBRANCH  16  17
ENDBRANCH  14  16
ENDBRANCH   8  12
TORSDOF 3
