REMARK  Name = ZINC43681642
REMARK  5 active torsions:
REMARK  status: ('A' for Active; 'I' for Inactive)
REMARK    1  A    between atoms: C_1  and  C_2
REMARK    2  A    between atoms: C_4  and  N_19
REMARK    3  A    between atoms: N_5  and  C_7
REMARK    4  A    between atoms: C_7  and  C_9
REMARK    5  A    between atoms: C_7  and  C_10
REMARK                            x       y       z     vdW  Elec       q    Type
REMARK                         _______ _______ _______ _____ _____    ______ ____
ROOT
ATOM      1  C   UNL     1       0.053  -3.291   1.500  0.00  0.00    +0.137 C 
ATOM      2  C   UNL     1       1.306  -3.259   2.378  0.00  0.00    +0.038 C 
ENDROOT
BRANCH   1   3
ATOM      3  C   UNL     1      -1.173  -3.292   2.376  0.00  0.00    -0.002 A 
ATOM      4  C   UNL     1      -1.405  -2.241   3.242  0.00  0.00    +0.047 A 
ATOM      5  C   UNL     1      -2.531  -2.242   4.047  0.00  0.00    +0.142 A 
ATOM      6  C   UNL     1      -3.426  -3.298   3.982  0.00  0.00    +0.077 A 
ATOM      7  C   UNL     1      -3.193  -4.349   3.114  0.00  0.00    +0.043 A 
ATOM      8  C   UNL     1      -2.070  -4.344   2.308  0.00  0.00    +0.048 A 
ATOM      9 CL   UNL     1      -1.781  -5.661   1.214  0.00  0.00    -0.083 Cl
ATOM     10 CL   UNL     1      -4.839  -3.301   4.991  0.00  0.00    -0.081 Cl
ATOM     11  F   UNL     1      -2.757  -1.215   4.894  0.00  0.00    -0.204 F 
ENDBRANCH   1   3
BRANCH   1  16
ATOM     12  C   UNL     1      -0.018   1.503   0.010  0.00  0.00    +0.069 C 
ATOM     13  C   UNL     1       0.002  -0.004   0.002  0.00  0.00    +0.076 A 
ATOM     14  C   UNL     1       0.008  -0.815  -1.136  0.00  0.00    +0.080 A 
ATOM     15  C   UNL     1       0.027  -2.113  -0.724  0.00  0.00    +0.129 A 
ATOM     16  N   UNL     1       0.034  -2.109   0.634  0.00  0.00    -0.242 N 
ATOM     17  N   UNL     1       0.023  -0.775   1.059  0.00  0.00    -0.173 NA
ATOM     18 BR   UNL     1      -0.009  -0.216  -2.930  0.00  0.00    -0.045 Br
BRANCH  15  19
ATOM     19  N   UNL     1       0.039  -3.238  -1.545  0.00  0.00    -0.342 N 
ATOM     20  H   UNL     1       0.033  -3.135  -2.510  0.00  0.00    +0.144 HD
ATOM     21  H   UNL     1       0.052  -4.125  -1.152  0.00  0.00    +0.144 HD
ENDBRANCH  15  19
ENDBRANCH   1  16
TORSDOF 3
