REMARK  Name = ZINC13218290
REMARK  9 active torsions:
REMARK  status: ('A' for Active; 'I' for Inactive)
REMARK    1  A    between atoms: C_1  and  C_2
REMARK    2  A    between atoms: C_2  and  N_3
REMARK    3  A    between atoms: C_7  and  C_33
REMARK    4  A    between atoms: C_11  and  C_12
REMARK    5  A    between atoms: C_12  and  S_13
REMARK    6  A    between atoms: S_13  and  C_14
REMARK    7  A    between atoms: C_22  and  C_26
REMARK    8  A    between atoms: N_29  and  C_30
REMARK    9  A    between atoms: C_30  and  C_31
REMARK                            x       y       z     vdW  Elec       q    Type
REMARK                         _______ _______ _______ _____ _____    ______ ____
ROOT
ATOM      1  C   UNL     1      -0.824  -2.963  -0.972  0.00  0.00    +0.173 A 
ATOM      2  N   UNL     1      -0.832  -3.819  -1.974  0.00  0.00    -0.216 NA
ATOM      3  C   UNL     1      -1.320  -3.474  -3.160  0.00  0.00    +0.117 A 
ATOM      4  C   UNL     1      -1.848  -2.195  -3.407  0.00  0.00    +0.076 A 
ATOM      5  C   UNL     1      -2.348  -1.962  -4.763  0.00  0.00    -0.023 A 
ATOM      6  C   UNL     1      -2.255  -2.986  -5.635  0.00  0.00    -0.004 A 
ATOM      7  S   UNL     1      -1.507  -4.305  -4.717  0.00  0.00    -0.073 S 
ATOM      8  C   UNL     1      -2.692  -3.001  -7.068  0.00  0.00    +0.046 C 
ATOM      9  C   UNL     1      -3.607  -1.792  -7.308  0.00  0.00    -0.009 C 
ATOM     10  C   UNL     1      -2.940  -0.546  -6.717  0.00  0.00    +0.008 C 
ATOM     11  C   UNL     1      -2.952  -0.627  -5.190  0.00  0.00    +0.037 C 
ATOM     12  C   UNL     1      -3.819  -1.600  -8.811  0.00  0.00    +0.008 C 
ATOM     13  C   UNL     1      -1.832  -1.289  -2.300  0.00  0.00    +0.263 A 
ATOM     14  O   UNL     1      -2.274  -0.159  -2.420  0.00  0.00    -0.267 OA
ATOM     15  N   UNL     1      -1.318  -1.700  -1.126  0.00  0.00    -0.283 N 
ENDROOT
BRANCH   1  16
ATOM     16  S   UNL     1      -0.167  -3.455   0.587  0.00  0.00    -0.080 S 
BRANCH  16  17
ATOM     17  C   UNL     1       0.314  -5.157   0.201  0.00  0.00    +0.151 C 
BRANCH  17  26
ATOM     18  N   UNL     1       0.222  -6.485   2.369  0.00  0.00    -0.327 N 
ATOM     19  C   UNL     1       1.125  -6.910   3.319  0.00  0.00    +0.069 A 
ATOM     20  C   UNL     1       1.013  -7.642   4.497  0.00  0.00    +0.029 A 
ATOM     21  C   UNL     1       2.121  -7.911   5.245  0.00  0.00    +0.017 A 
ATOM     22  C   UNL     1       3.382  -7.455   4.836  0.00  0.00    +0.065 A 
ATOM     23  C   UNL     1       3.514  -6.722   3.660  0.00  0.00    +0.045 A 
ATOM     24  C   UNL     1       2.383  -6.445   2.894  0.00  0.00    +0.090 A 
ATOM     25  N   UNL     1       2.184  -5.778   1.727  0.00  0.00    -0.231 NA
ATOM     26  C   UNL     1       0.919  -5.797   1.424  0.00  0.00    +0.121 A 
BRANCH  22  27
ATOM     27  C   UNL     1       4.573  -7.753   5.654  0.00  0.00    +0.387 C 
ATOM     28  O   UNL     1       5.667  -7.359   5.301  0.00  0.00    -0.241 OA
ATOM     29  O   UNL     1       4.448  -8.463   6.793  0.00  0.00    -0.241 OA
ENDBRANCH  22  27
BRANCH  18  31
ATOM     30  C   UNL     1      -1.523  -8.034   1.638  0.00  0.00    +0.027 C 
ATOM     31  C   UNL     1      -1.223  -6.728   2.376  0.00  0.00    +0.120 C 
ENDBRANCH  18  31
ENDBRANCH  17  26
ENDBRANCH  16  17
ENDBRANCH   1  16
BRANCH  15  32
ATOM     32  C   UNL     1      -1.293  -0.775   0.010  0.00  0.00    +0.154 C 
BRANCH  32  33
ATOM     33  C   UNL     1       0.002  -0.004   0.002  0.00  0.00    -0.013 C 
ATOM     34  C   UNL     1      -0.016   1.306   0.009  0.00  0.00    +0.005 C 
ENDBRANCH  32  33
ENDBRANCH  15  32
TORSDOF 7
