REMARK  Name = ZINC13132468
REMARK  3 active torsions:
REMARK  status: ('A' for Active; 'I' for Inactive)
REMARK    1  A    between atoms: C_1  and  C_2
REMARK    2  A    between atoms: C_8  and  N_11
REMARK    3  A    between atoms: N_11  and  C_12
REMARK                            x       y       z     vdW  Elec       q    Type
REMARK                         _______ _______ _______ _____ _____    ______ ____
ROOT
ATOM      1  C   UNL     1      -0.018   1.503   0.010  0.00  0.00    +0.067 C 
ATOM      2  C   UNL     1       0.002  -0.004   0.002  0.00  0.00    +0.063 A 
ATOM      3  C   UNL     1       0.008  -0.814  -1.132  0.00  0.00    +0.069 A 
ATOM      4  C   UNL     1       0.028  -2.136  -0.726  0.00  0.00    +0.132 A 
ATOM      5  N   UNL     1       0.033  -2.101   0.622  0.00  0.00    -0.188 N 
ATOM      6  N   UNL     1       0.023  -0.775   1.057  0.00  0.00    -0.164 NA
ATOM      7  S   UNL     1       0.057  -3.684   1.158  0.00  0.00    +0.020 S 
ATOM      8  C   UNL     1       0.061  -4.529  -0.472  0.00  0.00    +0.241 C 
ATOM      9  N   UNL     1       0.041  -3.365  -1.375  0.00  0.00    -0.301 N 
ATOM     10  H   UNL     1       0.038  -3.450  -2.342  0.00  0.00    +0.150 HD
ENDROOT
BRANCH   8  11
ATOM     11  N   UNL     1      -1.136  -5.355  -0.645  0.00  0.00    -0.316 N 
ATOM     12  H   UNL     1      -1.861  -5.047  -1.210  0.00  0.00    +0.149 HD
BRANCH  11  13
ATOM     13  C   UNL     1      -1.234  -6.589   0.007  0.00  0.00    +0.031 A 
ATOM     14  C   UNL     1      -0.198  -7.029   0.822  0.00  0.00    +0.026 A 
ATOM     15  C   UNL     1      -0.296  -8.247   1.464  0.00  0.00    +0.041 A 
ATOM     16  C   UNL     1      -1.425  -9.031   1.297  0.00  0.00    +0.142 A 
ATOM     17  C   UNL     1      -2.459  -8.595   0.484  0.00  0.00    +0.078 A 
ATOM     18  C   UNL     1      -2.368  -7.373  -0.156  0.00  0.00    +0.045 A 
ATOM     19 CL   UNL     1      -3.873  -9.580   0.276  0.00  0.00    -0.081 Cl
ATOM     20  F   UNL     1      -1.518 -10.223   1.926  0.00  0.00    -0.204 F 
ENDBRANCH  11  13
ENDBRANCH   8  11
TORSDOF 2
