REMARK  Name = ZINC29049473
REMARK  4 active torsions:
REMARK  status: ('A' for Active; 'I' for Inactive)
REMARK    1  A    between atoms: C_3  and  O_27
REMARK    2  A    between atoms: C_8  and  C_10
REMARK    3  A    between atoms: C_10  and  C_11
REMARK    4  A    between atoms: C_18  and  C_23
REMARK                            x       y       z     vdW  Elec       q    Type
REMARK                         _______ _______ _______ _____ _____    ______ ____
ROOT
ATOM      1  C   UNL     1       3.808   2.966   0.810  0.00  0.00    +0.146 C 
ATOM      2  C   UNL     1       3.590   1.572   0.281  0.00  0.00    +0.231 C 
ATOM      3  O   UNL     1       4.558   0.859   0.117  0.00  0.00    -0.274 OA
ATOM      4  N   UNL     1       2.389   1.087  -0.016  0.00  0.00    -0.284 N 
ATOM      5  C   UNL     1       1.184   1.784   0.000  0.00  0.00    +0.047 A 
ATOM      6  C   UNL     1      -0.013   1.076   0.008  0.00  0.00    +0.036 A 
ATOM      7  C   UNL     1      -1.220   1.746   0.017  0.00  0.00    +0.057 A 
ATOM      8  C   UNL     1      -1.253   3.129   0.024  0.00  0.00    +0.013 A 
ATOM      9  C   UNL     1      -0.071   3.846   0.008  0.00  0.00    +0.017 A 
ATOM     10  C   UNL     1       1.142   3.179  -0.008  0.00  0.00    +0.030 A 
ATOM     11  S   UNL     1       2.655   4.089  -0.039  0.00  0.00    -0.110 S 
ATOM     12  H   UNL     1       2.279   0.033  -0.311  0.00  0.00    +0.155 HD
ENDROOT
BRANCH   7  13
ATOM     13  C   UNL     1      -2.509   0.966   0.026  0.00  0.00    +0.417 C 
ATOM     14  F   UNL     1      -2.898   0.723   1.348  0.00  0.00    -0.166 F 
ATOM     15  F   UNL     1      -3.504   1.702  -0.626  0.00  0.00    -0.166 F 
ATOM     16  F   UNL     1      -2.321  -0.252  -0.636  0.00  0.00    -0.166 F 
ENDBRANCH   7  13
BRANCH   1  17
ATOM     17  C   UNL     1       3.538   2.994   2.316  0.00  0.00    +0.120 C 
BRANCH  17  25
ATOM     18  C   UNL     1       4.633   8.358   5.634  0.00  0.00    +0.021 A 
ATOM     19  C   UNL     1       4.166   7.403   6.526  0.00  0.00    +0.050 A 
ATOM     20  C   UNL     1       3.852   6.142   6.040  0.00  0.00    +0.155 A 
ATOM     21  C   UNL     1       4.025   5.879   4.680  0.00  0.00    +0.145 A 
ATOM     22  N   UNL     1       4.473   6.819   3.865  0.00  0.00    -0.347 N 
ATOM     23  C   UNL     1       4.774   8.028   4.301  0.00  0.00    +0.084 A 
ATOM     24  N   UNL     1       3.714   4.616   4.175  0.00  0.00    -0.269 N 
ATOM     25  C   UNL     1       3.874   4.357   2.862  0.00  0.00    +0.220 C 
ATOM     26  O   UNL     1       4.288   5.222   2.119  0.00  0.00    -0.275 OA
ATOM     27  H   UNL     1       3.338   3.831   4.848  0.00  0.00    +0.156 HD
ATOM     28  H   UNL     1       4.602   6.603   2.795  0.00  0.00    +0.167 HD
BRANCH  20  29
ATOM     29  O   UNL     1       3.383   5.177   6.875  0.00  0.00    -0.503 OA
ATOM     30  H   UNL     1       3.249   5.393   7.945  0.00  0.00    +0.292 HD
ENDBRANCH  20  29
ENDBRANCH  17  25
ENDBRANCH   1  17
TORSDOF 4
