REMARK  Name = ZINC35375093
REMARK  6 active torsions:
REMARK  status: ('A' for Active; 'I' for Inactive)
REMARK    1  A    between atoms: C_1  and  C_2
REMARK    2  A    between atoms: C_2  and  C_3
REMARK    3  A    between atoms: C_3  and  C_5
REMARK    4  A    between atoms: C_3  and  N_6
REMARK    5  A    between atoms: C_11  and  C_28
REMARK    6  A    between atoms: C_28  and  C_29
REMARK                            x       y       z     vdW  Elec       q    Type
REMARK                         _______ _______ _______ _____ _____    ______ ____
ROOT
ATOM      1  N   UNL     1       2.125  -0.091  -1.209  0.00  0.00    -0.239 N 
ATOM      2  C   UNL     1       2.991  -0.477  -0.226  0.00  0.00    +0.227 C 
ATOM      3  O   UNL     1       2.846  -1.388   0.561  0.00  0.00    -0.275 OA
ATOM      4  C   UNL     1       4.162   0.462  -0.322  0.00  0.00    +0.107 C 
ATOM      5  C   UNL     1       5.584  -0.100  -0.200  0.00  0.00    +0.076 C 
ATOM      6  N   UNL     1       6.365   0.770  -1.140  0.00  0.00    -0.295 NA
ATOM      7  C   UNL     1       5.416   1.256  -2.189  0.00  0.00    +0.136 C 
ATOM      8  C   UNL     1       4.133   0.595  -1.898  0.00  0.00    +0.122 C 
ATOM      9  C   UNL     1       2.716   0.714  -2.152  0.00  0.00    +0.228 C 
ATOM     10  O   UNL     1       2.170   1.378  -3.006  0.00  0.00    -0.275 OA
ATOM     11  C   UNL     1       5.338   2.760  -2.137  0.00  0.00    +0.003 A 
ATOM     12  C   UNL     1       4.911   3.649  -1.177  0.00  0.00    +0.008 A 
ATOM     13  C   UNL     1       4.958   5.010  -1.423  0.00  0.00    +0.000 A 
ATOM     14  C   UNL     1       5.436   5.473  -2.636  0.00  0.00    +0.002 A 
ATOM     15  C   UNL     1       5.867   4.585  -3.600  0.00  0.00    +0.023 A 
ATOM     16  C   UNL     1       5.821   3.214  -3.359  0.00  0.00    +0.039 A 
ATOM     17  N   UNL     1       6.194   2.135  -4.162  0.00  0.00    -0.283 N 
ATOM     18  C   UNL     1       5.989   0.953  -3.553  0.00  0.00    +0.243 C 
ATOM     19  O   UNL     1       6.222  -0.146  -4.011  0.00  0.00    -0.273 OA
ATOM     20  H   UNL     1       6.788   1.544  -0.649  0.00  0.00    +0.124 HD
ATOM     21  H   UNL     1       6.558   2.226  -5.057  0.00  0.00    +0.155 HD
ENDROOT
BRANCH   1  22
ATOM     22  C   UNL     1       0.718  -0.497  -1.257  0.00  0.00    +0.081 C 
ATOM     23  C   UNL     1       0.630  -2.023  -1.329  0.00  0.00    +0.028 C 
BRANCH  22  25
ATOM     24  C   UNL     1      -0.019   1.526   0.010  0.00  0.00    +0.006 C 
ATOM     25  C   UNL     1       0.002  -0.004   0.002  0.00  0.00    +0.019 C 
ENDBRANCH  22  25
ENDBRANCH   1  22
BRANCH   5  26
ATOM     26  C   UNL     1       6.102   0.040   1.233  0.00  0.00    +0.115 C 
BRANCH  26  27
ATOM     27  C   UNL     1       7.447  -0.629   1.349  0.00  0.00    +0.212 C 
ATOM     28  O   UNL     1       7.943  -1.166   0.381  0.00  0.00    -0.276 OA
ATOM     29  N   UNL     1       8.099  -0.631   2.528  0.00  0.00    -0.329 N 
ATOM     30  H   UNL     1       7.703  -0.202   3.303  0.00  0.00    +0.145 HD
ATOM     31  H   UNL     1       8.965  -1.062   2.603  0.00  0.00    +0.145 HD
ENDBRANCH  26  27
ENDBRANCH   5  26
TORSDOF 4
