REMARK  Name = ZINC57245009
REMARK  9 active torsions:
REMARK  status: ('A' for Active; 'I' for Inactive)
REMARK    1  A    between atoms: C_1  and  C_2
REMARK    2  A    between atoms: C_2  and  C_3
REMARK    3  A    between atoms: C_3  and  C_5
REMARK    4  A    between atoms: C_3  and  N_10
REMARK    5  A    between atoms: N_13  and  N_14
REMARK    6  A    between atoms: C_15  and  C_17
REMARK    7  A    between atoms: C_17  and  O_18
REMARK    8  A    between atoms: O_18  and  C_19
REMARK    9  A    between atoms: C_22  and  C_25
REMARK                            x       y       z     vdW  Elec       q    Type
REMARK                         _______ _______ _______ _____ _____    ______ ____
ROOT
ATOM      1  N   UNL     1      -2.082  -0.162   1.273  0.00  0.00    -0.291 N 
ATOM      2  C   UNL     1      -2.664   1.047   1.400  0.00  0.00    +0.316 C 
ATOM      3  O   UNL     1      -2.651   1.829   0.469  0.00  0.00    -0.251 OA
ATOM      4  N   UNL     1      -3.260   1.389   2.559  0.00  0.00    -0.218 N 
ATOM      5  H   UNL     1      -2.092  -0.785   2.016  0.00  0.00    +0.151 HD
ATOM      6  H   UNL     1      -3.679   2.259   2.651  0.00  0.00    +0.174 HD
ENDROOT
BRANCH   4   7
ATOM      7  N   UNL     1      -3.275   0.488   3.632  0.00  0.00    -0.230 N 
ATOM      8  C   UNL     1      -3.871   0.830   4.791  0.00  0.00    +0.267 C 
ATOM      9  O   UNL     1      -4.395   1.918   4.906  0.00  0.00    -0.271 OA
ATOM     10  H   UNL     1      -2.856  -0.382   3.541  0.00  0.00    +0.173 HD
BRANCH   8  11
ATOM     11  C   UNL     1      -3.887  -0.139   5.945  0.00  0.00    +0.326 C 
BRANCH  11  12
ATOM     12  O   UNL     1      -4.572   0.450   7.053  0.00  0.00    -0.483 OA
BRANCH  12  13
ATOM     13  C   UNL     1      -4.676  -0.297   8.181  0.00  0.00    +0.121 A 
ATOM     14  C   UNL     1      -4.123  -1.571   8.222  0.00  0.00    +0.047 A 
ATOM     15  C   UNL     1      -4.225  -2.333   9.365  0.00  0.00    +0.022 A 
ATOM     16  C   UNL     1      -4.887  -1.822  10.485  0.00  0.00    +0.052 A 
ATOM     17  C   UNL     1      -5.442  -0.540  10.440  0.00  0.00    +0.022 A 
ATOM     18  C   UNL     1      -5.330   0.216   9.294  0.00  0.00    +0.047 A 
BRANCH  16  19
ATOM     19  C   UNL     1      -4.997  -2.611  11.675  0.00  0.00    +0.099 C 
ATOM     20  N   UNL     1      -5.083  -3.236  12.620  0.00  0.00    -0.191 NA
ENDBRANCH  16  19
ENDBRANCH  12  13
ENDBRANCH  11  12
ENDBRANCH   8  11
ENDBRANCH   4   7
BRANCH   1  21
ATOM     21  C   UNL     1      -1.433  -0.534   0.013  0.00  0.00    +0.111 C 
BRANCH  21  22
ATOM     22  C   UNL     1      -1.416  -2.035  -0.119  0.00  0.00    +0.010 A 
ATOM     23  C   UNL     1      -1.625  -2.797  -1.220  0.00  0.00    +0.013 A 
ATOM     24  C   UNL     1      -1.558  -4.173  -1.105  0.00  0.00    +0.008 A 
ATOM     25  C   UNL     1      -1.286  -4.719   0.105  0.00  0.00    +0.045 A 
ATOM     26  S   UNL     1      -1.108  -3.270   1.132  0.00  0.00    -0.100 S 
ENDBRANCH  21  22
BRANCH  21  28
ATOM     27  C   UNL     1      -0.019   1.526   0.010  0.00  0.00    +0.006 C 
ATOM     28  C   UNL     1       0.002  -0.004   0.002  0.00  0.00    +0.024 C 
ENDBRANCH  21  28
ENDBRANCH   1  21
TORSDOF 8
