REMARK  Name = ZINC49060921
REMARK  6 active torsions:
REMARK  status: ('A' for Active; 'I' for Inactive)
REMARK    1  A    between atoms: C_1  and  C_2
REMARK    2  A    between atoms: C_2  and  C_5
REMARK    3  A    between atoms: N_3  and  O_4
REMARK    4  A    between atoms: C_10  and  N_11
REMARK    5  A    between atoms: N_11  and  S_12
REMARK    6  A    between atoms: S_12  and  C_15
REMARK                            x       y       z     vdW  Elec       q    Type
REMARK                         _______ _______ _______ _____ _____    ______ ____
ROOT
ATOM      1  C   UNL     1      -0.017  -0.729  -1.330  0.00  0.00    +0.024 A 
ATOM      2  C   UNL     1       0.142  -0.063  -2.547  0.00  0.00    +0.012 A 
ATOM      3  C   UNL     1       0.211  -0.783  -3.721  0.00  0.00    +0.001 A 
ATOM      4  C   UNL     1       0.123  -2.165  -3.700  0.00  0.00    +0.002 A 
ATOM      5  C   UNL     1      -0.035  -2.837  -2.504  0.00  0.00    +0.027 A 
ATOM      6  C   UNL     1      -0.100  -2.129  -1.311  0.00  0.00    +0.083 A 
ENDROOT
BRANCH   1   8
ATOM      7  C   UNL     1       0.994  -0.109   0.964  0.00  0.00    +0.070 C 
ATOM      8  C   UNL     1      -0.092   0.035  -0.071  0.00  0.00    +0.086 C 
ATOM      9  N   UNL     1      -1.091   0.830   0.145  0.00  0.00    -0.092 NA
BRANCH   9  10
ATOM     10  O   UNL     1      -2.062   1.038  -0.864  0.00  0.00    -0.409 OA
ATOM     11  H   UNL     1      -2.726   1.704  -0.640  0.00  0.00    +0.328 HD
ENDBRANCH   9  10
ENDBRANCH   1   8
BRANCH   6  12
ATOM     12  N   UNL     1      -0.254  -2.805  -0.104  0.00  0.00    -0.097 NA
BRANCH  12  13
ATOM     13  S   UNL     1      -0.515  -4.440  -0.098  0.00  0.00    +0.099 S 
ATOM     14  O   UNL     1      -1.743  -4.658  -0.779  0.00  0.00    -0.148 OA
ATOM     15  O   UNL     1       0.703  -5.047  -0.509  0.00  0.00    -0.148 OA
BRANCH  13  16
ATOM     16  C   UNL     1      -0.777  -4.920   1.577  0.00  0.00    +0.161 A 
ATOM     17  C   UNL     1      -0.940  -6.162   2.094  0.00  0.00    +0.052 A 
ATOM     18  C   UNL     1      -1.134  -6.302   3.456  0.00  0.00    +0.025 A 
ATOM     19  C   UNL     1      -1.154  -5.192   4.234  0.00  0.00    +0.048 A 
ATOM     20  S   UNL     1      -0.887  -3.896   3.035  0.00  0.00    -0.076 S 
ATOM     21 BR   UNL     1      -0.905  -7.682   0.969  0.00  0.00    -0.048 Br
ENDBRANCH  13  16
ENDBRANCH  12  13
ENDBRANCH   6  12
TORSDOF 5
