REMARK  Name = ZINC21233582
REMARK  9 active torsions:
REMARK  status: ('A' for Active; 'I' for Inactive)
REMARK    1  A    between atoms: C_1  and  C_2
REMARK    2  A    between atoms: C_2  and  C_3
REMARK    3  A    between atoms: C_3  and  C_4
REMARK    4  A    between atoms: C_4  and  C_6
REMARK    5  A    between atoms: C_4  and  N_7
REMARK    6  A    between atoms: C_8  and  C_10
REMARK    7  A    between atoms: C_10  and  S_11
REMARK    8  A    between atoms: S_11  and  C_12
REMARK    9  A    between atoms: C_22  and  C_26
REMARK                            x       y       z     vdW  Elec       q    Type
REMARK                         _______ _______ _______ _____ _____    ______ ____
ROOT
ATOM      1  C   UNL     1       1.760   2.172   0.374  0.00  0.00    +0.191 A 
ATOM      2  N   UNL     1       2.616   1.157   0.353  0.00  0.00    -0.207 NA
ATOM      3  C   UNL     1       3.874   1.306  -0.028  0.00  0.00    +0.129 A 
ATOM      4  C   UNL     1       4.334   2.595  -0.418  0.00  0.00    +0.051 A 
ATOM      5  C   UNL     1       5.671   2.991  -0.867  0.00  0.00    -0.025 A 
ATOM      6  C   UNL     1       5.850   4.290  -1.181  0.00  0.00    -0.004 A 
ATOM      7  S   UNL     1       4.275   5.054  -0.905  0.00  0.00    -0.073 S 
ATOM      8  C   UNL     1       3.374   3.624  -0.365  0.00  0.00    +0.115 A 
ATOM      9  N   UNL     1       2.135   3.394   0.022  0.00  0.00    -0.214 NA
ATOM     10  C   UNL     1       7.111   4.942  -1.661  0.00  0.00    +0.046 C 
ATOM     11  C   UNL     1       8.089   3.842  -2.100  0.00  0.00    -0.009 C 
ATOM     12  C   UNL     1       8.142   2.768  -1.010  0.00  0.00    +0.008 C 
ATOM     13  C   UNL     1       6.822   1.996  -0.978  0.00  0.00    +0.037 C 
ATOM     14  C   UNL     1       9.482   4.443  -2.297  0.00  0.00    +0.008 C 
ATOM     15  N   UNL     1       4.733   0.222  -0.042  0.00  0.00    -0.343 N 
ATOM     16  H   UNL     1       5.778   0.353  -0.360  0.00  0.00    +0.144 HD
ATOM     17  H   UNL     1       4.372  -0.770   0.265  0.00  0.00    +0.144 HD
ENDROOT
BRANCH   1  18
ATOM     18  S   UNL     1       0.099   1.891   0.887  0.00  0.00    -0.077 S 
BRANCH  18  19
ATOM     19  C   UNL     1       0.172   0.115   1.231  0.00  0.00    +0.173 C 
BRANCH  19  21
ATOM     20  N   UNL     1      -1.363  -1.660   2.014  0.00  0.00    -0.312 N 
ATOM     21  C   UNL     1      -1.179  -0.363   1.698  0.00  0.00    +0.224 C 
ATOM     22  O   UNL     1      -2.100   0.421   1.791  0.00  0.00    -0.275 OA
ATOM     23  H   UNL     1      -0.527  -2.370   1.931  0.00  0.00    +0.149 HD
BRANCH  20  24
ATOM     24  C   UNL     1      -2.676  -2.124   2.469  0.00  0.00    +0.070 C 
ATOM     25  C   UNL     1      -2.805  -1.891   3.976  0.00  0.00    +0.028 C 
BRANCH  24  26
ATOM     26  C   UNL     1      -2.821  -3.617   2.170  0.00  0.00    +0.022 C 
BRANCH  26  28
ATOM     27  C   UNL     1      -2.961  -5.330   0.357  0.00  0.00    +0.004 C 
ATOM     28  C   UNL     1      -2.816  -3.837   0.656  0.00  0.00    -0.002 C 
ENDBRANCH  26  28
ENDBRANCH  24  26
ENDBRANCH  20  24
ENDBRANCH  19  21
ENDBRANCH  18  19
ENDBRANCH   1  18
TORSDOF 6
