REMARK  Name = ZINC35936918
REMARK  4 active torsions:
REMARK  status: ('A' for Active; 'I' for Inactive)
REMARK    1  A    between atoms: C_1  and  C_2
REMARK    2  A    between atoms: C_5  and  C_8
REMARK    3  A    between atoms: C_8  and  C_9
REMARK    4  A    between atoms: C_13  and  C_18
REMARK                            x       y       z     vdW  Elec       q    Type
REMARK                         _______ _______ _______ _____ _____    ______ ____
ROOT
ATOM      1  C   UNL     1       1.403  -4.600  -0.062  0.00  0.00    +0.139 A 
ATOM      2  N   UNL     1       1.994  -4.658  -1.240  0.00  0.00    -0.216 NA
ATOM      3  C   UNL     1       3.321  -4.691  -1.340  0.00  0.00    +0.138 A 
ATOM      4  C   UNL     1       4.079  -4.662  -0.159  0.00  0.00    +0.108 A 
ATOM      5  C   UNL     1       5.513  -4.681   0.149  0.00  0.00    +0.126 A 
ATOM      6  N   UNL     1       5.627  -4.634   1.451  0.00  0.00    -0.075 NA
ATOM      7  O   UNL     1       4.340  -4.583   2.036  0.00  0.00    -0.334 OA
ATOM      8  C   UNL     1       3.405  -4.600   1.071  0.00  0.00    +0.264 A 
ATOM      9  N   UNL     1       2.076  -4.566   1.069  0.00  0.00    -0.195 NA
ATOM     10  N   UNL     1       3.936  -4.752  -2.575  0.00  0.00    -0.316 N 
ATOM     11  C   UNL     1       3.719  -5.944  -3.420  0.00  0.00    +0.104 C 
ATOM     12  C   UNL     1       3.517  -5.547  -4.894  0.00  0.00    -0.000 C 
ATOM     13  C   UNL     1       2.668  -4.298  -4.967  0.00  0.00    -0.081 C 
ATOM     14  N   UNL     1       3.538  -3.126  -5.021  0.00  0.00    +0.380 N 
ATOM     15  C   UNL     1       3.920  -2.608  -3.763  0.00  0.00    -0.063 C 
ATOM     16  C   UNL     1       4.767  -3.643  -2.997  0.00  0.00    +0.087 C 
ATOM     17  H   UNL     1       4.374  -3.373  -5.531  0.00  0.00    -0.086 HD
ATOM     18  H   UNL     1       3.062  -2.398  -5.533  0.00  0.00    -0.086 HD
ENDROOT
BRANCH   5  19
ATOM     19  C   UNL     1       6.624  -4.744  -0.831  0.00  0.00    +0.005 A 
ATOM     20  C   UNL     1       6.555  -5.646  -1.905  0.00  0.00    +0.011 A 
ATOM     21  C   UNL     1       7.559  -5.722  -2.816  0.00  0.00    +0.009 A 
ATOM     22  C   UNL     1       8.688  -4.892  -2.690  0.00  0.00    -0.018 A 
ATOM     23  C   UNL     1       9.740  -4.952  -3.619  0.00  0.00    +0.008 A 
ATOM     24  C   UNL     1      10.818  -4.135  -3.471  0.00  0.00    +0.001 A 
ATOM     25  C   UNL     1      10.898  -3.236  -2.409  0.00  0.00    +0.001 A 
ATOM     26  C   UNL     1       9.898  -3.149  -1.489  0.00  0.00    +0.008 A 
ATOM     27  C   UNL     1       8.768  -3.977  -1.609  0.00  0.00    -0.017 A 
ATOM     28  C   UNL     1       7.717  -3.910  -0.682  0.00  0.00    +0.018 A 
ENDBRANCH   5  19
BRANCH   1  29
ATOM     29  C   UNL     1      -0.102  -4.565  -0.009  0.00  0.00    +0.111 C 
BRANCH  29  34
ATOM     30  C   UNL     1      -1.912   0.921  -0.176  0.00  0.00    +0.044 C 
ATOM     31  C   UNL     1      -1.440  -0.510  -0.133  0.00  0.00    -0.050 A 
ATOM     32  C   UNL     1      -1.266  -1.216  -1.308  0.00  0.00    +0.003 A 
ATOM     33  C   UNL     1      -0.833  -2.528  -1.268  0.00  0.00    +0.004 A 
ATOM     34  C   UNL     1      -0.574  -3.134  -0.053  0.00  0.00    -0.040 A 
ATOM     35  C   UNL     1      -0.747  -2.427   1.122  0.00  0.00    +0.004 A 
ATOM     36  C   UNL     1      -1.176  -1.114   1.082  0.00  0.00    +0.003 A 
ENDBRANCH  29  34
ENDBRANCH   1  29
TORSDOF 3
