REMARK  Name = ZINC22571458
REMARK  9 active torsions:
REMARK  status: ('A' for Active; 'I' for Inactive)
REMARK    1  A    between atoms: C_1  and  C_2
REMARK    2  A    between atoms: C_2  and  C_3
REMARK    3  A    between atoms: C_2  and  C_4
REMARK    4  A    between atoms: C_4  and  C_6
REMARK    5  A    between atoms: C_4  and  S_12
REMARK    6  A    between atoms: S_12  and  C_13
REMARK    7  A    between atoms: N_23  and  C_24
REMARK    8  A    between atoms: C_29  and  O_30
REMARK    9  A    between atoms: O_30  and  C_31
REMARK                            x       y       z     vdW  Elec       q    Type
REMARK                         _______ _______ _______ _____ _____    ______ ____
ROOT
ATOM      1  C   UNL     1       2.657   4.946  -1.177  0.00  0.00    +0.178 A 
ATOM      2  N   UNL     1       3.712   5.711  -1.313  0.00  0.00    -0.223 NA
ATOM      3  C   UNL     1       4.331   6.257  -0.248  0.00  0.00    +0.079 A 
ATOM      4  C   UNL     1       5.457   7.072  -0.394  0.00  0.00    +0.028 A 
ATOM      5  C   UNL     1       6.055   7.605   0.714  0.00  0.00    +0.002 A 
ATOM      6  C   UNL     1       5.560   7.349   1.986  0.00  0.00    +0.001 A 
ATOM      7  C   UNL     1       4.460   6.555   2.161  0.00  0.00    +0.015 A 
ATOM      8  C   UNL     1       3.831   5.998   1.049  0.00  0.00    +0.065 A 
ATOM      9  C   UNL     1       2.644   5.142   1.176  0.00  0.00    +0.267 A 
ATOM     10  O   UNL     1       2.164   4.887   2.266  0.00  0.00    -0.267 OA
ATOM     11  N   UNL     1       2.107   4.644   0.038  0.00  0.00    -0.252 N 
ENDROOT
BRANCH  11  12
ATOM     12  C   UNL     1       0.975   3.818   0.105  0.00  0.00    +0.093 A 
ATOM     13  C   UNL     1       1.123   2.444   0.220  0.00  0.00    +0.030 A 
ATOM     14  C   UNL     1       0.007   1.632   0.286  0.00  0.00    +0.002 A 
ATOM     15  C   UNL     1      -1.259   2.186   0.232  0.00  0.00    +0.004 A 
ATOM     16  C   UNL     1      -1.415   3.555   0.124  0.00  0.00    +0.048 A 
ATOM     17  C   UNL     1      -0.300   4.376   0.057  0.00  0.00    +0.144 A 
BRANCH  17  18
ATOM     18  O   UNL     1      -0.451   5.723  -0.055  0.00  0.00    -0.493 OA
ATOM     19  C   UNL     1      -1.789   6.224  -0.098  0.00  0.00    +0.277 C 
ENDBRANCH  17  18
ENDBRANCH  11  12
BRANCH   1  20
ATOM     20  S   UNL     1       1.912   4.275  -2.626  0.00  0.00    -0.074 S 
BRANCH  20  21
ATOM     21  C   UNL     1       3.088   4.847  -3.877  0.00  0.00    +0.143 C 
BRANCH  21  22
ATOM     22  C   UNL     1       4.404   4.136  -3.692  0.00  0.00    +0.234 C 
ATOM     23  O   UNL     1       4.436   3.051  -3.152  0.00  0.00    -0.274 OA
ATOM     24  N   UNL     1       5.545   4.707  -4.126  0.00  0.00    -0.239 N 
ATOM     25  C   UNL     1       6.722   4.072  -3.960  0.00  0.00    +0.303 C 
ATOM     26  O   UNL     1       6.754   2.984  -3.419  0.00  0.00    -0.253 OA
ATOM     27  N   UNL     1       7.863   4.643  -4.394  0.00  0.00    -0.313 N 
ATOM     28  H   UNL     1       5.516   5.692  -4.616  0.00  0.00    +0.159 HD
ATOM     29  H   UNL     1       8.824   4.124  -4.258  0.00  0.00    +0.146 HD
ATOM     30  H   UNL     1       7.834   5.627  -4.884  0.00  0.00    +0.146 HD
ENDBRANCH  21  22
BRANCH  21  32
ATOM     31  C   UNL     1       1.206   5.274  -5.465  0.00  0.00    +0.009 C 
ATOM     32  C   UNL     1       2.537   4.543  -5.272  0.00  0.00    +0.005 C 
ATOM     33  C   UNL     1       3.536   5.016  -6.329  0.00  0.00    +0.009 C 
ENDBRANCH  21  32
ENDBRANCH  20  21
ENDBRANCH   1  20
TORSDOF 6
