REMARK  Name = ZINC12913986
REMARK  7 active torsions:
REMARK  status: ('A' for Active; 'I' for Inactive)
REMARK    1  A    between atoms: C_1  and  C_2
REMARK    2  A    between atoms: C_5  and  C_7
REMARK    3  A    between atoms: C_7  and  C_8
REMARK    4  A    between atoms: C_8  and  N_38
REMARK    5  A    between atoms: C_9  and  P_17
REMARK    6  A    between atoms: C_9  and  N_38
REMARK    7  A    between atoms: C_13  and  C_16
REMARK                            x       y       z     vdW  Elec       q    Type
REMARK                         _______ _______ _______ _____ _____    ______ ____
ROOT
ATOM      1  C   UNL     1      -7.062   0.383   3.659  0.00  0.00    +0.041 C 
ATOM      2  C   UNL     1      -6.923  -0.805   2.704  0.00  0.00    -0.000 C 
ATOM      3  C   UNL     1      -5.454  -1.226   2.624  0.00  0.00    -0.001 C 
ATOM      4  C   UNL     1      -4.963  -1.630   4.015  0.00  0.00    +0.003 C 
ATOM      5  C   UNL     1      -5.101  -0.442   4.970  0.00  0.00    -0.015 C 
ATOM      6  C   UNL     1      -6.570  -0.022   5.050  0.00  0.00    +0.003 C 
ATOM      7  C   UNL     1      -4.610  -0.847   6.361  0.00  0.00    +0.007 C 
ENDROOT
BRANCH   1   8
ATOM      8  P   UNL     1      -8.812   0.884   3.754  0.00  0.00    +0.377 P 
ATOM      9  O   UNL     1      -8.918   2.170   4.479  0.00  0.00    -0.255 OA
ATOM     10  O   UNL     1      -9.403   1.056   2.266  0.00  0.00    -0.140 OA
ATOM     11  O   UNL     1      -9.651  -0.244   4.538  0.00  0.00    -0.140 OA
ENDBRANCH   1   8
BRANCH   1  12
ATOM     12  N   UNL     1      -6.250   1.512   3.168  0.00  0.00    +0.391 N 
ATOM     13  H   UNL     1      -6.463   2.349   3.723  0.00  0.00    -0.084 HD
ATOM     14  H   UNL     1      -5.254   1.281   3.267  0.00  0.00    -0.084 HD
BRANCH  12  15
ATOM     15  C   UNL     1      -6.549   1.780   1.749  0.00  0.00    -0.074 C 
BRANCH  15  16
ATOM     16  C   UNL     1      -5.759   3.008   1.293  0.00  0.00    +0.044 C 
BRANCH  16  21
ATOM     17  C   UNL     1      -8.215   5.057  -2.554  0.00  0.00    +0.066 C 
ATOM     18  C   UNL     1      -7.129   4.186  -1.976  0.00  0.00    +0.046 A 
ATOM     19  C   UNL     1      -6.261   3.528  -2.787  0.00  0.00    +0.070 A 
ATOM     20  S   UNL     1      -5.248   2.694  -1.574  0.00  0.00    -0.080 S 
ATOM     21  C   UNL     1      -6.059   3.288  -0.157  0.00  0.00    +0.077 A 
ATOM     22  N   UNL     1      -6.997   4.048  -0.674  0.00  0.00    -0.249 NA
ENDBRANCH  16  21
ENDBRANCH  15  16
ENDBRANCH  12  15
ENDBRANCH   1  12
TORSDOF 5
