REMARK  Name = ZINC08744532
REMARK  4 active torsions:
REMARK  status: ('A' for Active; 'I' for Inactive)
REMARK    1  A    between atoms: C_1  and  C_2
REMARK    2  A    between atoms: C_12  and  C_14
REMARK    3  A    between atoms: N_20  and  C_21
REMARK    4  A    between atoms: C_21  and  C_22
REMARK                            x       y       z     vdW  Elec       q    Type
REMARK                         _______ _______ _______ _____ _____    ______ ____
ROOT
ATOM      1  C   UNL     1       0.664   1.472   0.396  0.00  0.00    +0.066 C 
ATOM      2  C   UNL     1       0.504  -0.023   0.288  0.00  0.00    +0.047 C 
ATOM      3  C   UNL     1      -0.748  -0.570   0.309  0.00  0.00    +0.091 C 
ATOM      4  C   UNL     1      -0.877  -1.967   0.206  0.00  0.00    +0.249 C 
ATOM      5  O   UNL     1      -1.977  -2.497   0.220  0.00  0.00    -0.270 OA
ATOM      6  N   UNL     1       0.261  -2.717   0.088  0.00  0.00    -0.211 N 
ATOM      7  C   UNL     1       1.490  -2.112   0.073  0.00  0.00    +0.229 C 
ATOM      8  N   UNL     1       1.579  -0.789   0.167  0.00  0.00    -0.219 NA
ATOM      9  N   UNL     1       2.606  -2.843  -0.041  0.00  0.00    -0.183 NA
ATOM     10  C   UNL     1       2.621  -4.151  -0.144  0.00  0.00    +0.194 C 
ATOM     11  N   UNL     1       1.475  -4.894  -0.144  0.00  0.00    -0.335 N 
ATOM     12  C   UNL     1       0.191  -4.180  -0.022  0.00  0.00    +0.213 C 
ATOM     13  N   UNL     1       3.823  -4.790  -0.255  0.00  0.00    -0.311 N 
ATOM     14  H   UNL     1       3.852  -5.757  -0.332  0.00  0.00    +0.149 HD
ATOM     15  H   UNL     1       1.505  -5.861  -0.222  0.00  0.00    +0.164 HD
ENDROOT
BRANCH  12  16
ATOM     16  C   UNL     1      -0.523  -4.707   1.196  0.00  0.00    +0.011 A 
ATOM     17  C   UNL     1      -1.657  -5.492   1.061  0.00  0.00    +0.010 A 
ATOM     18  C   UNL     1      -2.280  -5.955   2.209  0.00  0.00    +0.020 A 
ATOM     19  C   UNL     1      -1.754  -5.619   3.443  0.00  0.00    +0.111 A 
ATOM     20  N   UNL     1      -0.674  -4.869   3.534  0.00  0.00    -0.263 NA
ATOM     21  C   UNL     1      -0.051  -4.417   2.462  0.00  0.00    +0.118 A 
ENDBRANCH  12  16
BRANCH  13  22
ATOM     22  C   UNL     1       5.067  -4.016  -0.258  0.00  0.00    +0.139 C 
BRANCH  22  23
ATOM     23  C   UNL     1       6.240  -4.952  -0.392  0.00  0.00    -0.030 A 
ATOM     24  C   UNL     1       6.836  -5.479   0.739  0.00  0.00    +0.005 A 
ATOM     25  C   UNL     1       7.912  -6.338   0.617  0.00  0.00    +0.000 A 
ATOM     26  C   UNL     1       8.393  -6.670  -0.636  0.00  0.00    +0.000 A 
ATOM     27  C   UNL     1       7.797  -6.144  -1.767  0.00  0.00    +0.000 A 
ATOM     28  C   UNL     1       6.717  -5.289  -1.645  0.00  0.00    +0.005 A 
ENDBRANCH  22  23
ENDBRANCH  13  22
TORSDOF 3
