REMARK  Name = ZINC06288225
REMARK  10 active torsions:
REMARK  status: ('A' for Active; 'I' for Inactive)
REMARK    1  A    between atoms: C_1  and  C_2
REMARK    2  A    between atoms: C_6  and  C_25
REMARK    3  A    between atoms: C_7  and  N_8
REMARK    4  A    between atoms: N_8  and  C_9
REMARK    5  A    between atoms: C_9  and  N_11
REMARK    6  A    between atoms: N_11  and  N_12
REMARK    7  A    between atoms: C_13  and  C_14
REMARK    8  A    between atoms: C_19  and  O_20
REMARK    9  A    between atoms: O_20  and  C_21
REMARK   10  A    between atoms: C_21  and  C_22
REMARK                            x       y       z     vdW  Elec       q    Type
REMARK                         _______ _______ _______ _____ _____    ______ ____
ROOT
ATOM      1  N   UNL     1      -0.865   0.752   3.826  0.00  0.00    -0.218 N 
ATOM      2  H   UNL     1      -1.390   0.445   4.581  0.00  0.00    +0.176 HD
ENDROOT
BRANCH   1   3
ATOM      3  C   UNL     1      -0.732  -0.029   2.736  0.00  0.00    +0.154 C 
ATOM      4  S   UNL     1      -1.619  -1.488   2.614  0.00  0.00    -0.017 S 
BRANCH   3   5
ATOM      5  N   UNL     1       0.099   0.339   1.740  0.00  0.00    -0.295 N 
ATOM      6  H   UNL     1      -0.263   0.642   0.893  0.00  0.00    +0.154 HD
BRANCH   5  13
ATOM      7  C   UNL     1       1.782   1.173  -0.397  0.00  0.00    +0.045 C 
ATOM      8  C   UNL     1       2.342   0.681   0.912  0.00  0.00    -0.029 A 
ATOM      9  C   UNL     1       3.709   0.630   1.105  0.00  0.00    +0.005 A 
ATOM     10  C   UNL     1       4.223   0.179   2.306  0.00  0.00    +0.001 A 
ATOM     11  C   UNL     1       3.372  -0.223   3.319  0.00  0.00    +0.005 A 
ATOM     12  C   UNL     1       2.004  -0.175   3.133  0.00  0.00    -0.029 A 
ATOM     13  C   UNL     1       1.484   0.283   1.930  0.00  0.00    +0.039 A 
ATOM     14  C   UNL     1       1.077  -0.614   4.237  0.00  0.00    +0.045 C 
ENDBRANCH   5  13
ENDBRANCH   3   5
ENDBRANCH   1   3
BRANCH   1  15
ATOM     15  N   UNL     1      -0.245   2.007   3.868  0.00  0.00    -0.188 NA
ATOM     16  C   UNL     1      -0.253   2.699   4.966  0.00  0.00    +0.141 C 
BRANCH  16  17
ATOM     17  C   UNL     1       0.201   4.101   4.958  0.00  0.00    +0.036 A 
ATOM     18  C   UNL     1       0.328   4.805   6.158  0.00  0.00    +0.013 A 
ATOM     19  C   UNL     1       0.753   6.117   6.143  0.00  0.00    +0.001 A 
ATOM     20  C   UNL     1       1.054   6.740   4.944  0.00  0.00    +0.004 A 
ATOM     21  C   UNL     1       0.933   6.054   3.750  0.00  0.00    +0.046 A 
ATOM     22  C   UNL     1       0.513   4.734   3.747  0.00  0.00    +0.130 A 
BRANCH  22  23
ATOM     23  O   UNL     1       0.399   4.057   2.575  0.00  0.00    -0.480 OA
BRANCH  23  24
ATOM     24  C   UNL     1       0.797   4.744   1.387  0.00  0.00    +0.353 C 
BRANCH  24  25
ATOM     25  C   UNL     1       0.442   3.912   0.182  0.00  0.00    +0.393 C 
ATOM     26  O   UNL     1      -0.203   2.887   0.318  0.00  0.00    -0.243 OA
ATOM     27  O   UNL     1       0.801   4.264  -0.929  0.00  0.00    -0.243 OA
ENDBRANCH  24  25
ENDBRANCH  23  24
ENDBRANCH  22  23
ENDBRANCH  16  17
ENDBRANCH   1  15
TORSDOF 8
