REMARK  Name = ZINC23046157
REMARK  12 active torsions:
REMARK  status: ('A' for Active; 'I' for Inactive)
REMARK    1  A    between atoms: C_1  and  C_2
REMARK    2  A    between atoms: C_2  and  C_3
REMARK    3  A    between atoms: C_2  and  N_4
REMARK    4  A    between atoms: C_8  and  C_10
REMARK    5  A    between atoms: C_10  and  O_11
REMARK    6  A    between atoms: O_11  and  C_12
REMARK    7  A    between atoms: C_14  and  O_20
REMARK    8  A    between atoms: O_20  and  C_21
REMARK    9  A    between atoms: C_21  and  C_22
REMARK   10  A    between atoms: N_27  and  C_28
REMARK   11  A    between atoms: C_28  and  C_29
REMARK   12  A    between atoms: C_28  and  C_30
REMARK                            x       y       z     vdW  Elec       q    Type
REMARK                         _______ _______ _______ _____ _____    ______ ____
ROOT
ATOM      1  C   UNL     1       1.552  -1.807  -0.022  0.00  0.00    +0.143 A 
ATOM      2  C   UNL     1       0.465  -2.667  -0.017  0.00  0.00    +0.094 A 
ATOM      3  C   UNL     1       0.667  -4.038  -0.026  0.00  0.00    +0.143 A 
ATOM      4  C   UNL     1       1.959  -4.548  -0.041  0.00  0.00    +0.084 A 
ATOM      5  C   UNL     1       3.042  -3.689  -0.047  0.00  0.00    +0.047 A 
ATOM      6  C   UNL     1       2.842  -2.321  -0.043  0.00  0.00    +0.084 A 
ATOM      7 CL   UNL     1       4.204  -1.244  -0.058  0.00  0.00    -0.080 Cl
ATOM      8 CL   UNL     1       2.213  -6.265  -0.053  0.00  0.00    -0.080 Cl
ENDROOT
BRANCH   1   9
ATOM      9  O   UNL     1       1.356  -0.462  -0.013  0.00  0.00    -0.481 OA
BRANCH   9  10
ATOM     10  C   UNL     1       0.002  -0.004   0.002  0.00  0.00    +0.325 C 
BRANCH  10  15
ATOM     11  N   UNL     1      -2.389   4.166   0.036  0.00  0.00    -0.297 N 
ATOM     12  C   UNL     1      -1.213   3.508   0.027  0.00  0.00    +0.306 C 
ATOM     13  O   UNL     1      -0.169   4.130   0.025  0.00  0.00    -0.252 OA
ATOM     14  N   UNL     1      -1.195   2.161   0.019  0.00  0.00    -0.237 N 
ATOM     15  C   UNL     1      -0.018   1.503   0.010  0.00  0.00    +0.258 C 
ATOM     16  O   UNL     1       1.023   2.123   0.004  0.00  0.00    -0.272 OA
ATOM     17  H   UNL     1      -3.334   3.603   0.037  0.00  0.00    +0.151 HD
ATOM     18  H   UNL     1      -2.140   1.598   0.021  0.00  0.00    +0.159 HD
BRANCH  11  20
ATOM     19  C   UNL     1      -3.726   6.127  -0.557  0.00  0.00    +0.027 C 
ATOM     20  C   UNL     1      -2.409   5.631   0.044  0.00  0.00    +0.068 C 
ATOM     21  C   UNL     1      -2.283   6.135   1.483  0.00  0.00    +0.027 C 
ENDBRANCH  11  20
ENDBRANCH  10  15
ENDBRANCH   9  10
ENDBRANCH   1   9
BRANCH   3  22
ATOM     22  O   UNL     1      -0.398  -4.883  -0.021  0.00  0.00    -0.481 OA
BRANCH  22  23
ATOM     23  C   UNL     1      -1.697  -4.289  -0.006  0.00  0.00    +0.325 C 
BRANCH  23  24
ATOM     24  C   UNL     1      -2.745  -5.372  -0.002  0.00  0.00    +0.258 C 
ATOM     25  O   UNL     1      -2.411  -6.538  -0.011  0.00  0.00    -0.272 OA
ATOM     26  N   UNL     1      -4.052  -5.045   0.012  0.00  0.00    -0.237 N 
ATOM     27  C   UNL     1      -4.989  -6.014   0.015  0.00  0.00    +0.306 C 
ATOM     28  O   UNL     1      -4.655  -7.183   0.006  0.00  0.00    -0.252 OA
ATOM     29  N   UNL     1      -6.296  -5.687   0.029  0.00  0.00    -0.297 N 
ATOM     30  H   UNL     1      -4.355  -3.988   0.020  0.00  0.00    +0.159 HD
ATOM     31  H   UNL     1      -6.599  -4.630   0.037  0.00  0.00    +0.151 HD
BRANCH  29  32
ATOM     32  C   UNL     1      -7.315  -6.740   0.033  0.00  0.00    +0.068 C 
ATOM     33  C   UNL     1      -8.604  -6.202   0.657  0.00  0.00    +0.027 C 
ATOM     34  C   UNL     1      -7.592  -7.187  -1.405  0.00  0.00    +0.027 C 
ENDBRANCH  29  32
ENDBRANCH  23  24
ENDBRANCH  22  23
ENDBRANCH   3  22
TORSDOF 8
