REMARK  Name = ZINC44253755
REMARK  7 active torsions:
REMARK  status: ('A' for Active; 'I' for Inactive)
REMARK    1  A    between atoms: C_3  and  S_17
REMARK    2  A    between atoms: C_4  and  N_14
REMARK    3  A    between atoms: C_6  and  C_7
REMARK    4  A    between atoms: C_7  and  C_9
REMARK    5  A    between atoms: C_7  and  N_13
REMARK    6  A    between atoms: C_9  and  C_10
REMARK    7  A    between atoms: S_17  and  C_18
REMARK                            x       y       z     vdW  Elec       q    Type
REMARK                         _______ _______ _______ _____ _____    ______ ____
ROOT
ATOM      1  C   UNL     1      -0.008   1.361  -0.211  0.00  0.00    +0.003 A 
ATOM      2  C   UNL     1       1.177   2.069  -0.223  0.00  0.00    +0.017 A 
ATOM      3  C   UNL     1       2.381   1.409  -0.009  0.00  0.00    +0.038 A 
ATOM      4  C   UNL     1       2.387   0.037   0.216  0.00  0.00    +0.140 A 
ATOM      5  C   UNL     1       1.198  -0.664   0.227  0.00  0.00    +0.035 A 
ATOM      6  C   UNL     1       0.002  -0.003   0.013  0.00  0.00    -0.059 A 
ENDROOT
BRANCH   4   7
ATOM      7  N   UNL     1       3.667  -0.670   0.445  0.00  0.00    +0.058 N 
ATOM      8  O   UNL     1       3.671  -1.863   0.640  0.00  0.00    -0.126 OA
ATOM      9  O   UNL     1       4.708  -0.056   0.435  0.00  0.00    -0.126 OA
ENDBRANCH   4   7
BRANCH   6  10
ATOM     10  C   UNL     1      -1.294  -0.773   0.026  0.00  0.00    -0.035 C 
BRANCH  10  11
ATOM     11  N   UNL     1      -2.326   0.017   0.711  0.00  0.00    +0.383 N 
ATOM     12  H   UNL     1      -2.458   0.891   0.225  0.00  0.00    -0.089 HD
ATOM     13  H   UNL     1      -3.193  -0.498   0.719  0.00  0.00    -0.089 HD
ATOM     14  H   UNL     1      -2.034   0.200   1.660  0.00  0.00    -0.089 HD
ENDBRANCH  10  11
BRANCH  10  15
ATOM     15  C   UNL     1      -1.736  -1.050  -1.413  0.00  0.00    +0.084 C 
BRANCH  15  16
ATOM     16  C   UNL     1      -2.964  -1.923  -1.401  0.00  0.00    +0.209 C 
ATOM     17  O   UNL     1      -3.439  -2.288  -0.347  0.00  0.00    -0.276 OA
ATOM     18  N   UNL     1      -3.534  -2.299  -2.563  0.00  0.00    -0.329 N 
ATOM     19  H   UNL     1      -3.155  -2.008  -3.407  0.00  0.00    +0.145 HD
ATOM     20  H   UNL     1      -4.325  -2.861  -2.556  0.00  0.00    +0.145 HD
ENDBRANCH  15  16
ENDBRANCH  10  15
ENDBRANCH   6  10
BRANCH   3  21
ATOM     21  S   UNL     1       3.897   2.308  -0.023  0.00  0.00    -0.120 S 
BRANCH  21  22
ATOM     22  C   UNL     1       3.377   4.041  -0.163  0.00  0.00    +0.051 C 
ATOM     23  C   UNL     1       2.712   4.480   1.143  0.00  0.00    +0.014 C 
ATOM     24  C   UNL     1       2.274   5.942   1.025  0.00  0.00    +0.001 C 
ATOM     25  C   UNL     1       3.497   6.820   0.755  0.00  0.00    +0.000 C 
ATOM     26  C   UNL     1       4.162   6.381  -0.551  0.00  0.00    +0.001 C 
ATOM     27  C   UNL     1       4.600   4.919  -0.433  0.00  0.00    +0.014 C 
ENDBRANCH  21  22
ENDBRANCH   3  21
TORSDOF 7
