REMARK  Name = ZINC04971302
REMARK  3 active torsions:
REMARK  status: ('A' for Active; 'I' for Inactive)
REMARK    1  A    between atoms: C_1  and  C_2
REMARK    2  A    between atoms: C_8  and  N_10
REMARK    3  A    between atoms: N_14  and  C_17
REMARK                            x       y       z     vdW  Elec       q    Type
REMARK                         _______ _______ _______ _____ _____    ______ ____
ROOT
ATOM      1  N   UNL     1      -1.170   2.111   0.019  0.00  0.00    -0.320 N 
ATOM      2  C   UNL     1      -0.026   1.307   0.148  0.00  0.00    +0.213 A 
ATOM      3  C   UNL     1       1.291   1.766   0.152  0.00  0.00    +0.279 A 
ATOM      4  N   UNL     1       2.102   0.744   0.285  0.00  0.00    -0.119 NA
ATOM      5  N   UNL     1       1.315  -0.415   0.370  0.00  0.00    -0.131 N 
ATOM      6  N   UNL     1      -0.024  -0.002   0.278  0.00  0.00    -0.028 N 
ATOM      7  O   UNL     1      -1.163  -0.842   0.318  0.00  0.00    -0.143 OA
ATOM      8  N   UNL     1       1.708   3.181   0.027  0.00  0.00    +0.080 N 
ATOM      9  O   UNL     1       0.868   4.055  -0.092  0.00  0.00    -0.124 OA
ATOM     10  O   UNL     1       2.890   3.472   0.043  0.00  0.00    -0.124 OA
ATOM     11  H   UNL     1      -1.082   2.741  -0.764  0.00  0.00    +0.148 HD
ENDROOT
BRANCH   1  18
ATOM     12  C   UNL     1      -3.790   3.350  -0.003  0.00  0.00    +0.009 C 
ATOM     13  C   UNL     1      -3.474   2.089  -0.810  0.00  0.00    +0.006 C 
ATOM     14  C   UNL     1      -4.736   1.233  -0.933  0.00  0.00    +0.005 C 
ATOM     15  C   UNL     1      -5.221   0.836   0.463  0.00  0.00    +0.000 C 
ATOM     16  C   UNL     1      -4.128   0.035   1.174  0.00  0.00    +0.002 C 
ATOM     17  C   UNL     1      -2.866   0.892   1.297  0.00  0.00    +0.022 C 
ATOM     18  C   UNL     1      -2.381   1.289  -0.099  0.00  0.00    +0.075 C 
ENDBRANCH   1  18
BRANCH   5  19
ATOM     19  C   UNL     1       1.776  -1.730   0.518  0.00  0.00    +0.088 A 
ATOM     20  C   UNL     1       0.899  -2.736   0.902  0.00  0.00    +0.029 A 
ATOM     21  C   UNL     1       1.355  -4.032   1.041  0.00  0.00    +0.002 A 
ATOM     22  C   UNL     1       2.686  -4.327   0.809  0.00  0.00    +0.000 A 
ATOM     23  C   UNL     1       3.563  -3.326   0.432  0.00  0.00    +0.002 A 
ATOM     24  C   UNL     1       3.112  -2.029   0.286  0.00  0.00    +0.029 A 
ENDBRANCH   5  19
TORSDOF 2
