REMARK  Name = ZINC08789875
REMARK  5 active torsions:
REMARK  status: ('A' for Active; 'I' for Inactive)
REMARK    1  A    between atoms: C_1  and  C_2
REMARK    2  A    between atoms: N_23  and  C_26
REMARK    3  A    between atoms: C_31  and  C_32
REMARK    4  A    between atoms: C_32  and  O_34
REMARK    5  A    between atoms: O_34  and  C_35
REMARK                            x       y       z     vdW  Elec       q    Type
REMARK                         _______ _______ _______ _____ _____    ______ ____
ROOT
ATOM      1  C   UNL     1      -3.795   4.321   1.167  0.00  0.00    +0.046 C 
ATOM      2  C   UNL     1      -2.649   3.481   1.669  0.00  0.00    -0.028 A 
ATOM      3  C   UNL     1      -2.442   3.341   3.025  0.00  0.00    +0.025 A 
ATOM      4  C   UNL     1      -1.392   2.573   3.497  0.00  0.00    +0.042 A 
ATOM      5  C   UNL     1      -0.545   1.941   2.601  0.00  0.00    +0.024 A 
ATOM      6  C   UNL     1      -0.749   2.079   1.246  0.00  0.00    -0.026 A 
ATOM      7  C   UNL     1      -1.801   2.850   0.761  0.00  0.00    +0.039 A 
ATOM      8  N   UNL     1      -1.803   2.840  -0.635  0.00  0.00    -0.286 N 
ATOM      9  C   UNL     1      -0.800   2.096  -1.139  0.00  0.00    +0.212 C 
ATOM     10  O   UNL     1      -0.557   1.908  -2.313  0.00  0.00    -0.277 OA
ATOM     11  C   UNL     1      -0.037   1.545   0.035  0.00  0.00    +0.053 C 
ATOM     12  C   UNL     1      -0.026   0.012   0.025  0.00  0.00    +0.089 C 
ATOM     13  C   UNL     1       1.355  -0.368  -0.575  0.00  0.00    +0.074 C 
ATOM     14  C   UNL     1       2.047   0.973  -0.876  0.00  0.00    -0.054 C 
ATOM     15  C   UNL     1       1.985   1.763   1.343  0.00  0.00    -0.076 C 
ATOM     16  C   UNL     1       3.469   1.453   1.064  0.00  0.00    -0.020 C 
ATOM     17  C   UNL     1       3.511   0.909  -0.404  0.00  0.00    -0.016 C 
ATOM     18  C   UNL     1       2.059  -1.051   0.576  0.00  0.00    +0.228 C 
ATOM     19  O   UNL     1       3.181  -1.507   0.540  0.00  0.00    -0.275 OA
ATOM     20  N   UNL     1       1.249  -1.074   1.641  0.00  0.00    -0.209 N 
ATOM     21  C   UNL     1       0.054  -0.506   1.443  0.00  0.00    +0.229 C 
ATOM     22  O   UNL     1      -0.827  -0.421   2.271  0.00  0.00    -0.275 OA
ATOM     23 CL   UNL     1      -1.138   2.400   5.205  0.00  0.00    -0.084 Cl
ATOM     24  H   UNL     1      -2.452   3.314  -1.179  0.00  0.00    +0.155 HD
ATOM     25  N   UNL     1       1.383   1.909   0.002  0.00  0.00    +0.395 N 
ATOM     26  H   UNL     1       1.495   2.872  -0.336  0.00  0.00    -0.079 HD
ENDROOT
BRANCH  20  27
ATOM     27  C   UNL     1       1.621  -1.644   2.861  0.00  0.00    +0.058 A 
ATOM     28  C   UNL     1       2.326  -0.897   3.793  0.00  0.00    +0.025 A 
ATOM     29  C   UNL     1       2.693  -1.462   4.998  0.00  0.00    +0.002 A 
ATOM     30  C   UNL     1       2.362  -2.776   5.286  0.00  0.00    +0.001 A 
ATOM     31  C   UNL     1       1.662  -3.534   4.372  0.00  0.00    +0.017 A 
ATOM     32  C   UNL     1       1.280  -2.973   3.150  0.00  0.00    +0.081 A 
BRANCH  32  33
ATOM     33  C   UNL     1       0.525  -3.776   2.170  0.00  0.00    +0.341 C 
ATOM     34  O   UNL     1       0.284  -3.321   1.069  0.00  0.00    -0.245 OA
BRANCH  33  35
ATOM     35  O   UNL     1       0.103  -5.013   2.495  0.00  0.00    -0.464 OA
ATOM     36  C   UNL     1      -0.634  -5.746   1.481  0.00  0.00    +0.280 C 
ENDBRANCH  33  35
ENDBRANCH  32  33
ENDBRANCH  20  27
TORSDOF 3
