REMARK  Name = ZINC39936251
REMARK  6 active torsions:
REMARK  status: ('A' for Active; 'I' for Inactive)
REMARK    1  A    between atoms: C_6  and  C_7
REMARK    2  A    between atoms: C_9  and  S_13
REMARK    3  A    between atoms: S_13  and  C_14
REMARK    4  A    between atoms: C_14  and  C_15
REMARK    5  A    between atoms: N_17  and  C_18
REMARK    6  A    between atoms: C_20  and  C_28
REMARK                            x       y       z     vdW  Elec       q    Type
REMARK                         _______ _______ _______ _____ _____    ______ ____
ROOT
ATOM      1  C   UNL     1      -2.200  -6.580   0.012  0.00  0.00    +0.224 C 
ATOM      2  O   UNL     1      -3.374  -6.883   0.020  0.00  0.00    -0.275 OA
ATOM      3  N   UNL     1      -1.256  -7.542   0.004  0.00  0.00    -0.302 N 
ATOM      4  H   UNL     1      -0.317  -7.299  -0.003  0.00  0.00    +0.150 HD
ENDROOT
BRANCH   3   5
ATOM      5  C   UNL     1      -1.648  -8.953   0.005  0.00  0.00    +0.151 C 
ATOM      6  C   UNL     1      -0.911  -9.748  -1.096  0.00  0.00    +0.132 C 
ATOM      7  C   UNL     1      -1.812 -10.792  -1.728  0.00  0.00    -0.046 C 
ATOM      8  C   UNL     1      -3.116 -10.642  -1.579  0.00  0.00    -0.013 C 
ATOM      9  S   UNL     1      -3.373  -9.176  -0.596  0.00  0.00    -0.106 S 
ATOM     10  C   UNL     1      -3.901 -11.731  -2.272  0.00  0.00    +0.042 C 
ATOM     11  C   UNL     1      -2.892 -12.375  -3.247  0.00  0.00    +0.009 C 
ATOM     12  C   UNL     1      -1.555 -12.061  -2.549  0.00  0.00    +0.033 C 
BRANCH   6  13
ATOM     13  C   UNL     1       0.285 -10.436  -0.490  0.00  0.00    +0.220 C 
ATOM     14  O   UNL     1       0.363 -11.646  -0.508  0.00  0.00    -0.275 OA
ATOM     15  N   UNL     1       1.269  -9.706   0.073  0.00  0.00    -0.329 N 
ATOM     16  H   UNL     1       1.207  -8.738   0.087  0.00  0.00    +0.145 HD
ATOM     17  H   UNL     1       2.039 -10.149   0.463  0.00  0.00    +0.145 HD
ENDBRANCH   6  13
ENDBRANCH   3   5
BRANCH   1  18
ATOM     18  C   UNL     1      -1.796  -5.128   0.010  0.00  0.00    +0.173 C 
BRANCH  18  19
ATOM     19  S   UNL     1      -3.282  -4.087   0.022  0.00  0.00    -0.077 S 
BRANCH  19  22
ATOM     20  C   UNL     1      -1.271  -0.766   0.011  0.00  0.00    +0.182 A 
ATOM     21  N   UNL     1      -1.380  -2.102   0.010  0.00  0.00    -0.201 NA
ATOM     22  C   UNL     1      -2.651  -2.442   0.019  0.00  0.00    +0.185 A 
ATOM     23  N   UNL     1      -3.387  -1.309   0.026  0.00  0.00    -0.253 N 
ATOM     24  H   UNL     1      -4.355  -1.246   0.034  0.00  0.00    +0.191 HD
ATOM     25  N   UNL     1      -2.475  -0.241   0.026  0.00  0.00    -0.152 NA
BRANCH  20  31
ATOM     26  C   UNL     1      -0.017   1.389   0.010  0.00  0.00    +0.013 A 
ATOM     27  C   UNL     1       1.170   2.093   0.002  0.00  0.00    +0.016 A 
ATOM     28  C   UNL     1       2.378   1.417  -0.013  0.00  0.00    +0.018 A 
ATOM     29  C   UNL     1       2.402   0.034  -0.021  0.00  0.00    +0.016 A 
ATOM     30  C   UNL     1       1.221  -0.680  -0.014  0.00  0.00    +0.013 A 
ATOM     31  C   UNL     1       0.002  -0.004   0.002  0.00  0.00    +0.021 A 
ATOM     32 BR   UNL     1       4.001   2.388  -0.025  0.00  0.00    -0.050 Br
ENDBRANCH  20  31
ENDBRANCH  19  22
ENDBRANCH  18  19
ENDBRANCH   1  18
TORSDOF 6
