REMARK  Name = ZINC06414314
REMARK  6 active torsions:
REMARK  status: ('A' for Active; 'I' for Inactive)
REMARK    1  A    between atoms: C_6  and  N_7
REMARK    2  A    between atoms: N_7  and  N_8
REMARK    3  A    between atoms: C_10  and  C_15
REMARK    4  A    between atoms: C_10  and  C_17
REMARK    5  A    between atoms: C_15  and  O_16
REMARK    6  A    between atoms: C_17  and  O_18
REMARK                            x       y       z     vdW  Elec       q    Type
REMARK                         _______ _______ _______ _____ _____    ______ ____
ROOT
ATOM      1  N   UNL     1      -1.183  -0.708  -0.002  0.00  0.00    -0.247 N 
ATOM      2  C   UNL     1       0.002  -0.004   0.002  0.00  0.00    +0.196 C 
ATOM      3  C   UNL     1       1.201   2.094   0.002  0.00  0.00    +0.120 C 
ATOM      4  C   UNL     1       2.392   1.289   0.522  0.00  0.00    +0.265 C 
ATOM      5  O   UNL     1       2.428   0.005  -0.170  0.00  0.00    -0.457 OA
ATOM      6  C   UNL     1       1.303  -0.736  -0.001  0.00  0.00    +0.372 C 
ATOM      7  O   UNL     1       1.353  -1.940   0.142  0.00  0.00    -0.242 OA
ATOM      8  H   UNL     1      -1.171  -1.678  -0.008  0.00  0.00    +0.172 HD
ATOM      9  N   UNL     1      -0.096   1.327   0.010  0.00  0.00    -0.354 N 
ATOM     10  H   UNL     1      -1.006   1.803   0.021  0.00  0.00    +0.162 HD
ENDROOT
BRANCH   1  11
ATOM     11  N   UNL     1      -2.405  -0.022   0.001  0.00  0.00    -0.265 N 
ATOM     12  H   UNL     1      -2.417   0.947   0.006  0.00  0.00    +0.170 HD
BRANCH  11  18
ATOM     13  C   UNL     1      -3.591  -2.125  -0.017  0.00  0.00    +0.026 A 
ATOM     14  C   UNL     1      -4.779  -2.828  -0.016  0.00  0.00    +0.023 A 
ATOM     15  C   UNL     1      -5.986  -2.151  -0.013  0.00  0.00    +0.059 A 
ATOM     16  C   UNL     1      -6.005  -0.766  -0.005  0.00  0.00    +0.061 A 
ATOM     17  C   UNL     1      -4.819  -0.058   0.000  0.00  0.00    +0.046 A 
ATOM     18  C   UNL     1      -3.606  -0.736  -0.003  0.00  0.00    +0.046 A 
ATOM     19 CL   UNL     1      -7.521   0.081   0.000  0.00  0.00    -0.082 Cl
ATOM     20 CL   UNL     1      -7.478  -3.038  -0.019  0.00  0.00    -0.082 Cl
ENDBRANCH  11  18
ENDBRANCH   1  11
BRANCH   3  21
ATOM     21  C   UNL     1       1.491   2.555  -1.428  0.00  0.00    +0.189 C 
BRANCH  21  22
ATOM     22  O   UNL     1       0.395   3.336  -1.909  0.00  0.00    -0.393 OA
ATOM     23  H   UNL     1       0.510   3.662  -2.812  0.00  0.00    +0.210 HD
ENDBRANCH  21  22
ENDBRANCH   3  21
BRANCH   3  24
ATOM     24  C   UNL     1       0.996   3.322   0.892  0.00  0.00    +0.189 C 
BRANCH  24  25
ATOM     25  O   UNL     1      -0.166   4.033   0.463  0.00  0.00    -0.393 OA
ATOM     26  H   UNL     1      -0.358   4.825   0.984  0.00  0.00    +0.210 HD
ENDBRANCH  24  25
ENDBRANCH   3  24
TORSDOF 6
