REMARK  Name = ZINC40151081
REMARK  9 active torsions:
REMARK  status: ('A' for Active; 'I' for Inactive)
REMARK    1  A    between atoms: C_4  and  N_7
REMARK    2  A    between atoms: N_7  and  N_8
REMARK    3  A    between atoms: C_9  and  C_10
REMARK    4  A    between atoms: C_9  and  C_22
REMARK    5  A    between atoms: C_22  and  C_24
REMARK    6  A    between atoms: C_22  and  O_29
REMARK    7  A    between atoms: C_24  and  C_26
REMARK    8  A    between atoms: C_24  and  O_28
REMARK    9  A    between atoms: C_26  and  O_27
REMARK                            x       y       z     vdW  Elec       q    Type
REMARK                         _______ _______ _______ _____ _____    ______ ____
ROOT
ATOM      1  N   UNL     1       3.643  -2.054  -0.002  0.00  0.00    -0.186 NA
ATOM      2  C   UNL     1       4.753  -2.672  -0.157  0.00  0.00    +0.099 C 
ENDROOT
BRANCH   2   3
ATOM      3  C   UNL     1       6.049  -1.903  -0.166  0.00  0.00    +0.215 C 
ATOM      4  C   UNL     1       6.367  -1.553  -1.602  0.00  0.00    +0.245 C 
ATOM      5  O   UNL     1       5.581  -0.907  -2.266  0.00  0.00    -0.273 OA
ATOM      6  N   UNL     1       7.522  -1.962  -2.130  0.00  0.00    -0.282 N 
ATOM      7  C   UNL     1       8.395  -2.665  -1.428  0.00  0.00    +0.057 A 
ATOM      8  C   UNL     1       9.609  -3.082  -2.018  0.00  0.00    +0.025 A 
ATOM      9  C   UNL     1      10.506  -3.803  -1.305  0.00  0.00    +0.002 A 
ATOM     10  C   UNL     1      10.291  -4.172   0.033  0.00  0.00    +0.002 A 
ATOM     11  C   UNL     1       9.165  -3.825   0.693  0.00  0.00    +0.027 A 
ATOM     12  C   UNL     1       8.140  -3.040  -0.015  0.00  0.00    +0.058 A 
ATOM     13  N   UNL     1       7.041  -2.687   0.586  0.00  0.00    -0.368 N 
ATOM     14  H   UNL     1       7.727  -1.738  -3.051  0.00  0.00    +0.155 HD
ATOM     15  H   UNL     1       6.880  -2.935   1.510  0.00  0.00    +0.161 HD
ENDBRANCH   2   3
BRANCH   1  16
ATOM     16  N   UNL     1       3.621  -0.653   0.037  0.00  0.00    -0.238 N 
ATOM     17  H   UNL     1       4.452  -0.154   0.012  0.00  0.00    +0.174 HD
BRANCH  16  21
ATOM     18  C   UNL     1      -0.013   1.366   0.258  0.00  0.00    +0.000 A 
ATOM     19  C   UNL     1       1.171   2.079   0.224  0.00  0.00    +0.002 A 
ATOM     20  C   UNL     1       2.379   1.413   0.150  0.00  0.00    +0.025 A 
ATOM     21  C   UNL     1       2.402   0.024   0.112  0.00  0.00    +0.048 A 
ATOM     22  C   UNL     1       1.210  -0.689   0.147  0.00  0.00    +0.025 A 
ATOM     23  C   UNL     1       0.007  -0.016   0.220  0.00  0.00    +0.002 A 
ENDBRANCH  16  21
ENDBRANCH   1  16
BRANCH   2  24
ATOM     24  C   UNL     1       4.764  -4.169  -0.330  0.00  0.00    +0.193 C 
BRANCH  24  25
ATOM     25  O   UNL     1       5.351  -4.499  -1.590  0.00  0.00    -0.383 OA
ATOM     26  H   UNL     1       6.263  -4.194  -1.690  0.00  0.00    +0.210 HD
ENDBRANCH  24  25
BRANCH  24  27
ATOM     27  C   UNL     1       3.329  -4.698  -0.282  0.00  0.00    +0.174 C 
BRANCH  27  28
ATOM     28  O   UNL     1       2.741  -4.369   0.978  0.00  0.00    -0.387 OA
ATOM     29  H   UNL     1       3.208  -4.740   1.739  0.00  0.00    +0.210 HD
ENDBRANCH  27  28
BRANCH  27  30
ATOM     30  C   UNL     1       3.340  -6.218  -0.458  0.00  0.00    +0.190 C 
BRANCH  30  31
ATOM     31  O   UNL     1       1.996  -6.699  -0.530  0.00  0.00    -0.392 OA
ATOM     32  H   UNL     1       1.926  -7.657  -0.642  0.00  0.00    +0.210 HD
ENDBRANCH  30  31
ENDBRANCH  27  30
ENDBRANCH  24  27
ENDBRANCH   2  24
TORSDOF 9
