REMARK  Name = ZINC22146312
REMARK  7 active torsions:
REMARK  status: ('A' for Active; 'I' for Inactive)
REMARK    1  A    between atoms: C_1  and  C_2
REMARK    2  A    between atoms: N_4  and  C_19
REMARK    3  A    between atoms: C_8  and  C_9
REMARK    4  A    between atoms: C_11  and  O_17
REMARK    5  A    between atoms: C_12  and  O_16
REMARK    6  A    between atoms: O_17  and  C_18
REMARK    7  A    between atoms: C_23  and  C_25
REMARK                            x       y       z     vdW  Elec       q    Type
REMARK                         _______ _______ _______ _____ _____    ______ ____
ROOT
ATOM      1  C   UNL     1       1.094   8.248  -2.575  0.00  0.00    +0.068 C 
ATOM      2  C   UNL     1       0.379   8.457  -1.265  0.00  0.00    +0.069 C 
ATOM      3  N   UNL     1      -0.002   9.596  -0.773  0.00  0.00    -0.177 NA
ATOM      4  N   UNL     1      -0.629   9.433   0.462  0.00  0.00    -0.156 N 
ATOM      5  C   UNL     1      -0.669   8.127   0.794  0.00  0.00    +0.272 C 
ATOM      6  O   UNL     1      -1.147   7.641   1.804  0.00  0.00    -0.268 OA
ATOM      7  C   UNL     1      -0.017   7.407  -0.314  0.00  0.00    +0.062 C 
ATOM      8  C   UNL     1       0.183   6.043  -0.432  0.00  0.00    +0.023 C 
ENDROOT
BRANCH   8   9
ATOM      9  C   UNL     1      -0.432   5.128   0.528  0.00  0.00    -0.020 A 
ATOM     10  C   UNL     1       0.264   3.990   0.963  0.00  0.00    +0.057 A 
ATOM     11  C   UNL     1      -0.323   3.131   1.869  0.00  0.00    +0.163 A 
ATOM     12  C   UNL     1      -1.609   3.391   2.346  0.00  0.00    +0.172 A 
ATOM     13  C   UNL     1      -2.298   4.520   1.922  0.00  0.00    +0.059 A 
ATOM     14  C   UNL     1      -1.722   5.385   1.018  0.00  0.00    +0.026 A 
ATOM     15  I   UNL     1      -4.224   4.904   2.652  0.00  0.00    -0.040 I 
BRANCH  12  16
ATOM     16  O   UNL     1      -2.185   2.540   3.233  0.00  0.00    -0.503 OA
ATOM     17  H   UNL     1      -3.198   2.743   3.611  0.00  0.00    +0.292 HD
ENDBRANCH  12  16
BRANCH  11  18
ATOM     18  O   UNL     1       0.349   2.027   2.292  0.00  0.00    -0.491 OA
ATOM     19  C   UNL     1       1.658   1.820   1.758  0.00  0.00    +0.277 C 
ENDBRANCH  11  18
ENDBRANCH   8   9
BRANCH   4  20
ATOM     20  C   UNL     1      -1.143  10.476   1.244  0.00  0.00    +0.061 A 
ATOM     21  C   UNL     1      -1.750  10.196   2.462  0.00  0.00    +0.025 A 
ATOM     22  C   UNL     1      -2.259  11.220   3.239  0.00  0.00    +0.003 A 
ATOM     23  C   UNL     1      -2.167  12.529   2.809  0.00  0.00    +0.015 A 
ATOM     24  C   UNL     1      -1.559  12.820   1.586  0.00  0.00    +0.065 A 
ATOM     25  C   UNL     1      -1.042  11.786   0.805  0.00  0.00    +0.040 A 
BRANCH  24  26
ATOM     26  C   UNL     1      -1.459  14.220   1.123  0.00  0.00    +0.387 C 
ATOM     27  O   UNL     1      -0.930  14.471   0.059  0.00  0.00    -0.241 OA
ATOM     28  O   UNL     1      -1.955  15.217   1.881  0.00  0.00    -0.241 OA
ENDBRANCH  24  26
ENDBRANCH   4  20
TORSDOF 5
