REMARK  Name = ZINC37082769
REMARK  6 active torsions:
REMARK  status: ('A' for Active; 'I' for Inactive)
REMARK    1  A    between atoms: C_1  and  C_2
REMARK    2  A    between atoms: C_2  and  C_3
REMARK    3  A    between atoms: N_9  and  C_10
REMARK    4  A    between atoms: C_10  and  C_11
REMARK    5  A    between atoms: N_13  and  C_14
REMARK    6  A    between atoms: C_15  and  N_22
REMARK                            x       y       z     vdW  Elec       q    Type
REMARK                         _______ _______ _______ _____ _____    ______ ____
ROOT
ATOM      1  C   UNL     1      -3.294   1.569  -2.598  0.00  0.00    +0.201 C 
ATOM      2  O   UNL     1      -4.152   0.854  -3.071  0.00  0.00    -0.278 OA
ATOM      3  N   UNL     1      -2.882   2.662  -3.271  0.00  0.00    -0.284 N 
ATOM      4  H   UNL     1      -2.232   3.261  -2.872  0.00  0.00    +0.155 HD
ENDROOT
BRANCH   3   5
ATOM      5  C   UNL     1      -3.392   2.932  -4.550  0.00  0.00    +0.073 A 
ATOM      6  C   UNL     1      -3.744   4.235  -4.901  0.00  0.00    +0.049 A 
ATOM      7  C   UNL     1      -4.248   4.496  -6.167  0.00  0.00    +0.044 A 
ATOM      8  C   UNL     1      -4.399   3.465  -7.077  0.00  0.00    +0.044 A 
ATOM      9  C   UNL     1      -4.050   2.173  -6.729  0.00  0.00    +0.042 A 
ATOM     10  C   UNL     1      -3.542   1.905  -5.470  0.00  0.00    +0.065 A 
ATOM     11 CL   UNL     1      -3.098   0.283  -5.040  0.00  0.00    -0.082 Cl
ATOM     12 CL   UNL     1      -5.030   3.795  -8.660  0.00  0.00    -0.083 Cl
BRANCH   6  13
ATOM     13  N   UNL     1      -3.591   5.276  -3.979  0.00  0.00    -0.356 N 
ATOM     14  H   UNL     1      -3.239   5.091  -3.094  0.00  0.00    +0.142 HD
ATOM     15  H   UNL     1      -3.836   6.181  -4.224  0.00  0.00    +0.142 HD
ENDBRANCH   6  13
ENDBRANCH   3   5
BRANCH   1  16
ATOM     16  C   UNL     1      -2.688   1.236  -1.259  0.00  0.00    +0.019 C 
BRANCH  16  22
ATOM     17  C   UNL     1      -2.606  -0.401   0.490  0.00  0.00    -0.068 C 
ATOM     18  C   UNL     1      -3.188  -1.723   0.994  0.00  0.00    -0.015 C 
ATOM     19  C   UNL     1      -4.679  -1.539   1.289  0.00  0.00    -0.003 C 
ATOM     20  C   UNL     1      -5.382  -1.039   0.024  0.00  0.00    -0.019 C 
ATOM     21  C   UNL     1      -4.719   0.258  -0.444  0.00  0.00    -0.078 C 
ATOM     22  N   UNL     1      -3.302   0.009  -0.736  0.00  0.00    +0.387 N 
ATOM     23  H   UNL     1      -3.225  -0.724  -1.426  0.00  0.00    -0.081 HD
BRANCH  17  25
ATOM     24  C   UNL     1      -0.378  -0.937   1.485  0.00  0.00    +0.002 C 
ATOM     25  C   UNL     1      -1.115  -0.580   0.193  0.00  0.00    -0.019 C 
ENDBRANCH  17  25
ENDBRANCH  16  22
ENDBRANCH   1  16
TORSDOF 5
