REMARK  Name = ZINC37274892
REMARK  8 active torsions:
REMARK  status: ('A' for Active; 'I' for Inactive)
REMARK    1  A    between atoms: C_1  and  O_2
REMARK    2  A    between atoms: O_2  and  C_3
REMARK    3  A    between atoms: C_3  and  C_4
REMARK    4  A    between atoms: C_9  and  N_10
REMARK    5  A    between atoms: N_10  and  C_11
REMARK    6  A    between atoms: C_11  and  C_12
REMARK    7  A    between atoms: C_13  and  O_20
REMARK    8  A    between atoms: O_20  and  C_21
REMARK                            x       y       z     vdW  Elec       q    Type
REMARK                         _______ _______ _______ _____ _____    ______ ____
ROOT
ATOM      1  N   UNL     1       1.799  -2.236  -3.138  0.00  0.00    -0.338 N 
ATOM      2  H   UNL     1       1.825  -1.268  -3.201  0.00  0.00    +0.146 HD
ENDROOT
BRANCH   1   8
ATOM      3  C   UNL     1       0.614  -2.074  -1.042  0.00  0.00    -0.001 A 
ATOM      4  C   UNL     1       0.004  -2.683   0.037  0.00  0.00    +0.008 A 
ATOM      5  C   UNL     1      -0.031  -4.062   0.125  0.00  0.00    +0.000 A 
ATOM      6  C   UNL     1       0.543  -4.837  -0.866  0.00  0.00    +0.002 A 
ATOM      7  C   UNL     1       1.154  -4.234  -1.948  0.00  0.00    +0.023 A 
ATOM      8  C   UNL     1       1.187  -2.849  -2.043  0.00  0.00    +0.033 A 
BRANCH   3   9
ATOM      9  C   UNL     1       0.652  -0.570  -1.138  0.00  0.00    +0.196 C 
BRANCH   9  11
ATOM     10  C   UNL     1      -0.017   1.425   0.010  0.00  0.00    +0.194 C 
ATOM     11  O   UNL     1       0.002  -0.004   0.002  0.00  0.00    -0.378 OA
ENDBRANCH   9  11
ENDBRANCH   3   9
ENDBRANCH   1   8
BRANCH   1  12
ATOM     12  C   UNL     1       2.403  -3.055  -4.192  0.00  0.00    +0.161 C 
BRANCH  12  13
ATOM     13  C   UNL     1       2.991  -2.158  -5.251  0.00  0.00    +0.104 A 
ATOM     14  C   UNL     1       2.353  -1.689  -6.341  0.00  0.00    +0.239 A 
ATOM     15  N   UNL     1       3.212  -0.926  -7.037  0.00  0.00    -0.187 NA
ATOM     16  C   UNL     1       4.359  -0.904  -6.418  0.00  0.00    +0.181 A 
ATOM     17  N   UNL     1       4.295  -1.656  -5.276  0.00  0.00    -0.292 N 
ATOM     18  C   UNL     1       5.437  -1.723  -4.508  0.00  0.00    +0.101 A 
ATOM     19  C   UNL     1       6.543  -1.077  -4.873  0.00  0.00    +0.067 A 
ATOM     20  S   UNL     1       6.031  -0.303  -6.399  0.00  0.00    -0.058 S 
BRANCH  14  21
ATOM     21  O   UNL     1       1.060  -1.946  -6.680  0.00  0.00    -0.478 OA
ATOM     22  C   UNL     1       0.574  -1.348  -7.883  0.00  0.00    +0.279 C 
ENDBRANCH  14  21
ENDBRANCH  12  13
ENDBRANCH   1  12
TORSDOF 6
