REMARK  Name = ZINC39450942
REMARK  4 active torsions:
REMARK  status: ('A' for Active; 'I' for Inactive)
REMARK    1  A    between atoms: C_1  and  O_2
REMARK    2  A    between atoms: O_2  and  N_3
REMARK    3  A    between atoms: C_11  and  C_14
REMARK    4  A    between atoms: C_19  and  O_20
REMARK                            x       y       z     vdW  Elec       q    Type
REMARK                         _______ _______ _______ _____ _____    ______ ____
ROOT
ATOM      1  N   UNL     1       0.646  -0.565  -1.127  0.00  0.00    -0.139 N 
ATOM      2  C   UNL     1      -0.106  -0.837  -2.263  0.00  0.00    +0.150 A 
ATOM      3  C   UNL     1       0.481  -1.379  -3.392  0.00  0.00    +0.085 A 
ATOM      4  C   UNL     1       1.918  -1.683  -3.392  0.00  0.00    +0.099 A 
ATOM      5  C   UNL     1       2.659  -1.399  -2.224  0.00  0.00    +0.070 A 
ATOM      6  C   UNL     1       1.967  -0.812  -1.067  0.00  0.00    +0.293 A 
ATOM      7  O   UNL     1       2.589  -0.553  -0.053  0.00  0.00    -0.264 OA
ATOM      8  C   UNL     1       4.024  -1.676  -2.197  0.00  0.00    +0.025 A 
ATOM      9  C   UNL     1       4.601  -2.229  -3.342  0.00  0.00    +0.004 A 
ATOM     10  C   UNL     1       3.799  -2.482  -4.460  0.00  0.00    +0.120 A 
ATOM     11  N   UNL     1       2.514  -2.209  -4.456  0.00  0.00    -0.252 NA
ATOM     12  N   UNL     1      -0.285  -1.627  -4.516  0.00  0.00    -0.324 N 
ATOM     13  C   UNL     1      -1.495  -0.818  -4.727  0.00  0.00    +0.171 C 
ATOM     14  C   UNL     1      -2.346  -0.888  -3.454  0.00  0.00    +0.120 C 
ATOM     15  C   UNL     1      -1.490  -0.550  -2.261  0.00  0.00    +0.188 C 
ATOM     16  O   UNL     1      -1.995  -0.026  -1.288  0.00  0.00    -0.290 OA
ATOM     17 CL   UNL     1      -1.033   0.893  -5.057  0.00  0.00    -0.101 Cl
ATOM     18  H   UNL     1      -0.030  -2.317  -5.149  0.00  0.00    +0.148 HD
ENDROOT
BRANCH   9  19
ATOM     19  C   UNL     1       6.049  -2.545  -3.372  0.00  0.00    +0.025 A 
ATOM     20  C   UNL     1       6.983  -1.589  -2.975  0.00  0.00    +0.012 A 
ATOM     21  C   UNL     1       8.329  -1.889  -3.005  0.00  0.00    +0.001 A 
ATOM     22  C   UNL     1       8.757  -3.135  -3.428  0.00  0.00    +0.004 A 
ATOM     23  C   UNL     1       7.840  -4.090  -3.825  0.00  0.00    +0.046 A 
ATOM     24  C   UNL     1       6.484  -3.805  -3.795  0.00  0.00    +0.125 A 
BRANCH  24  25
ATOM     25  O   UNL     1       5.582  -4.745  -4.180  0.00  0.00    -0.506 OA
ATOM     26  H   UNL     1       5.368  -4.722  -5.122  0.00  0.00    +0.292 HD
ENDBRANCH  24  25
ENDBRANCH   9  19
BRANCH   1  28
ATOM     27  C   UNL     1      -0.017   1.425   0.010  0.00  0.00    +0.311 C 
ATOM     28  O   UNL     1       0.002  -0.004   0.002  0.00  0.00    -0.411 OA
ENDBRANCH   1  28
TORSDOF 3
