REMARK  Name = ZINC09490000
REMARK  7 active torsions:
REMARK  status: ('A' for Active; 'I' for Inactive)
REMARK    1  A    between atoms: C_1  and  O_2
REMARK    2  A    between atoms: O_2  and  C_3
REMARK    3  A    between atoms: C_6  and  C_10
REMARK    4  A    between atoms: C_8  and  O_9
REMARK    5  A    between atoms: C_14  and  C_24
REMARK    6  A    between atoms: C_19  and  N_23
REMARK    7  A    between atoms: C_20  and  C_21
REMARK                            x       y       z     vdW  Elec       q    Type
REMARK                         _______ _______ _______ _____ _____    ______ ____
ROOT
ATOM      1  C   UNL     1       2.613  -2.088  -4.338  0.00  0.00    +0.082 C 
ATOM      2  C   UNL     1       4.135  -1.923  -4.427  0.00  0.00    +0.140 C 
ATOM      3  C   UNL     1       4.839  -2.968  -3.591  0.00  0.00    +0.084 C 
ATOM      4  N   UNL     1       5.519  -3.704  -4.429  0.00  0.00    -0.150 NA
ATOM      5  N   UNL     1       5.334  -3.306  -5.753  0.00  0.00    -0.115 NA
ATOM      6  C   UNL     1       4.513  -2.304  -5.855  0.00  0.00    +0.227 C 
ATOM      7  O   UNL     1       3.955  -1.682  -6.917  0.00  0.00    -0.425 OA
ATOM      8  C   UNL     1       2.639  -1.385  -6.763  0.00  0.00    +0.200 C 
ATOM      9  C   UNL     1       1.984  -1.548  -5.594  0.00  0.00    +0.095 C 
ENDROOT
BRANCH   3  10
ATOM     10  C   UNL     1       4.771  -3.124  -2.129  0.00  0.00    -0.001 A 
ATOM     11  C   UNL     1       5.026  -4.368  -1.543  0.00  0.00    +0.011 A 
ATOM     12  C   UNL     1       4.961  -4.507  -0.173  0.00  0.00    +0.016 A 
ATOM     13  C   UNL     1       4.644  -3.419   0.622  0.00  0.00    +0.018 A 
ATOM     14  C   UNL     1       4.391  -2.184   0.049  0.00  0.00    +0.016 A 
ATOM     15  C   UNL     1       4.458  -2.028  -1.319  0.00  0.00    +0.011 A 
ATOM     16 BR   UNL     1       4.556  -3.620   2.501  0.00  0.00    -0.050 Br
ENDBRANCH   3  10
BRANCH   1  20
ATOM     17  C   UNL     1       1.138   0.079  -0.959  0.00  0.00    +0.161 A 
ATOM     18  C   UNL     1       1.813   0.743  -1.970  0.00  0.00    +0.049 A 
ATOM     19  C   UNL     1       2.289   0.040  -3.061  0.00  0.00    +0.008 A 
ATOM     20  C   UNL     1       2.093  -1.326  -3.146  0.00  0.00    -0.034 A 
ATOM     21  C   UNL     1       1.419  -1.995  -2.140  0.00  0.00    +0.053 A 
ATOM     22  C   UNL     1       0.945  -1.297  -1.041  0.00  0.00    +0.159 A 
BRANCH  17  24
ATOM     23  C   UNL     1       0.904   2.179   0.133  0.00  0.00    +0.277 C 
ATOM     24  O   UNL     1       0.670   0.769   0.115  0.00  0.00    -0.491 OA
ENDBRANCH  17  24
BRANCH  22  25
ATOM     25  O   UNL     1       0.288  -1.954  -0.048  0.00  0.00    -0.503 OA
ATOM     26  H   UNL     1      -0.668  -2.011  -0.180  0.00  0.00    +0.292 HD
ENDBRANCH  22  25
ENDBRANCH   1  20
BRANCH   8  27
ATOM     27  N   UNL     1       1.944  -0.898  -7.842  0.00  0.00    -0.328 N 
ATOM     28  H   UNL     1       2.395  -0.773  -8.692  0.00  0.00    +0.145 HD
ATOM     29  H   UNL     1       1.004  -0.679  -7.755  0.00  0.00    +0.145 HD
ENDBRANCH   8  27
BRANCH   9  30
ATOM     30  C   UNL     1       0.600  -1.184  -5.545  0.00  0.00    +0.100 C 
ATOM     31  N   UNL     1      -0.498  -0.895  -5.506  0.00  0.00    -0.191 NA
ENDBRANCH   9  30
TORSDOF 6
