REMARK  Name = ZINC60332852
REMARK  9 active torsions:
REMARK  status: ('A' for Active; 'I' for Inactive)
REMARK    1  A    between atoms: C_1  and  C_2
REMARK    2  A    between atoms: N_10  and  C_11
REMARK    3  A    between atoms: C_11  and  C_13
REMARK    4  A    between atoms: C_11  and  C_17
REMARK    5  A    between atoms: C_13  and  C_14
REMARK    6  A    between atoms: C_14  and  C_15
REMARK    7  A    between atoms: C_14  and  C_16
REMARK    8  A    between atoms: C_22  and  C_25
REMARK    9  A    between atoms: C_25  and  O_26
REMARK                            x       y       z     vdW  Elec       q    Type
REMARK                         _______ _______ _______ _____ _____    ______ ____
ROOT
ATOM      1  C   UNL     1      -6.008  -3.984  -0.530  0.00  0.00    +0.161 C 
ENDROOT
BRANCH   1  11
ATOM      2  C   UNL     1      -1.347   1.906  -0.938  0.00  0.00    +0.089 C 
ATOM      3  C   UNL     1      -1.298   0.478  -0.460  0.00  0.00    +0.136 A 
ATOM      4  C   UNL     1      -2.306  -0.410  -0.523  0.00  0.00    +0.091 A 
ATOM      5  C   UNL     1      -1.851  -1.629   0.027  0.00  0.00    +0.169 A 
ATOM      6  N   UNL     1      -0.609  -1.462   0.404  0.00  0.00    -0.063 NA
ATOM      7  O   UNL     1      -0.239  -0.130   0.098  0.00  0.00    -0.358 OA
ATOM      8  N   UNL     1      -2.594  -2.804   0.148  0.00  0.00    -0.251 N 
ATOM      9  C   UNL     1      -3.871  -2.840  -0.282  0.00  0.00    +0.306 C 
ATOM     10  O   UNL     1      -4.375  -1.850  -0.776  0.00  0.00    -0.252 OA
ATOM     11  N   UNL     1      -4.589  -3.975  -0.166  0.00  0.00    -0.288 N 
ATOM     12  H   UNL     1      -2.192  -3.594   0.542  0.00  0.00    +0.158 HD
ATOM     13  H   UNL     1      -4.167  -4.785   0.160  0.00  0.00    +0.151 HD
ENDBRANCH   1  11
BRANCH   1  14
ATOM     14  C   UNL     1      -6.711  -5.089   0.216  0.00  0.00    +0.236 C 
ATOM     15  O   UNL     1      -6.069  -5.881   0.873  0.00  0.00    -0.274 OA
ATOM     16  N   UNL     1      -8.053  -5.197   0.153  0.00  0.00    -0.300 N 
ATOM     17  C   UNL     1      -8.834  -4.317  -0.727  0.00  0.00    +0.108 C 
ATOM     18  C   UNL     1      -9.924  -3.631   0.103  0.00  0.00    +0.025 C 
ATOM     19  C   UNL     1     -10.754  -4.694   0.826  0.00  0.00    +0.017 C 
ATOM     20  C   UNL     1      -9.853  -5.489   1.775  0.00  0.00    +0.025 C 
ATOM     21  C   UNL     1      -8.762  -6.199   0.960  0.00  0.00    +0.108 C 
BRANCH  19  22
ATOM     22  C   UNL     1     -11.865  -4.014   1.629  0.00  0.00    +0.159 C 
BRANCH  22  23
ATOM     23  O   UNL     1     -12.710  -5.010   2.210  0.00  0.00    -0.395 OA
ATOM     24  H   UNL     1     -13.439  -4.650   2.734  0.00  0.00    +0.209 HD
ENDBRANCH  22  23
ENDBRANCH  19  22
ENDBRANCH   1  14
BRANCH   1  25
ATOM     25  C   UNL     1      -6.146  -4.218  -2.036  0.00  0.00    +0.034 C 
BRANCH  25  26
ATOM     26  C   UNL     1      -5.362  -5.471  -2.432  0.00  0.00    -0.015 C 
ATOM     27  C   UNL     1      -6.076  -6.711  -1.890  0.00  0.00    +0.007 C 
ATOM     28  C   UNL     1      -5.277  -5.558  -3.957  0.00  0.00    +0.007 C 
ENDBRANCH  25  26
ENDBRANCH   1  25
TORSDOF 6
