REMARK  Name = ZINC13199807
REMARK  4 active torsions:
REMARK  status: ('A' for Active; 'I' for Inactive)
REMARK    1  A    between atoms: C_1  and  N_2
REMARK    2  A    between atoms: N_11  and  N_12
REMARK    3  A    between atoms: N_12  and  S_13
REMARK    4  A    between atoms: S_13  and  C_16
REMARK                            x       y       z     vdW  Elec       q    Type
REMARK                         _______ _______ _______ _____ _____    ______ ____
ROOT
ATOM      1  C   UNL     1      -3.743   3.318   0.056  0.00  0.00    +0.151 C 
ATOM      2  N   UNL     1      -2.413   3.933   0.046  0.00  0.00    -0.321 N 
ATOM      3  C   UNL     1      -1.276   3.138   0.031  0.00  0.00    +0.057 A 
ATOM      4  C   UNL     1      -1.220   1.735   0.017  0.00  0.00    +0.027 A 
ATOM      5  C   UNL     1      -0.013   1.076   0.008  0.00  0.00    +0.002 A 
ATOM      6  C   UNL     1       1.183   1.771   0.000  0.00  0.00    +0.001 A 
ATOM      7  C   UNL     1       1.157   3.156   0.008  0.00  0.00    +0.017 A 
ATOM      8  C   UNL     1      -0.049   3.814   0.023  0.00  0.00    +0.039 A 
ATOM      9  S   UNL     1      -0.511   5.529   0.037  0.00  0.00    -0.048 S 
ATOM     10  C   UNL     1      -2.283   5.313   0.052  0.00  0.00    +0.192 A 
ATOM     11  N   UNL     1      -3.216   6.221   0.067  0.00  0.00    -0.141 NA
ENDROOT
BRANCH  11  12
ATOM     12  N   UNL     1      -2.872   7.579   0.070  0.00  0.00    -0.134 N 
ATOM     13  H   UNL     1      -1.939   7.843   0.063  0.00  0.00    +0.197 HD
BRANCH  12  14
ATOM     14  S   UNL     1      -4.059   8.734   0.088  0.00  0.00    +0.087 S 
ATOM     15  O   UNL     1      -3.405   9.986   0.234  0.00  0.00    -0.149 OA
ATOM     16  O   UNL     1      -4.921   8.447  -1.004  0.00  0.00    -0.149 OA
BRANCH  14  17
ATOM     17  C   UNL     1      -5.005   8.486   1.554  0.00  0.00    +0.110 A 
ATOM     18  C   UNL     1      -6.108   7.653   1.532  0.00  0.00    +0.029 A 
ATOM     19  C   UNL     1      -6.847   7.455   2.684  0.00  0.00    +0.002 A 
ATOM     20  C   UNL     1      -6.489   8.097   3.854  0.00  0.00    +0.000 A 
ATOM     21  C   UNL     1      -5.389   8.934   3.875  0.00  0.00    +0.002 A 
ATOM     22  C   UNL     1      -4.647   9.128   2.725  0.00  0.00    +0.029 A 
ENDBRANCH  14  17
ENDBRANCH  12  14
ENDBRANCH  11  12
TORSDOF 3
