REMARK  Name = ZINC36622655
REMARK  8 active torsions:
REMARK  status: ('A' for Active; 'I' for Inactive)
REMARK    1  A    between atoms: C_1  and  C_2
REMARK    2  A    between atoms: C_2  and  C_4
REMARK    3  A    between atoms: C_2  and  O_18
REMARK    4  A    between atoms: N_6  and  C_7
REMARK    5  A    between atoms: C_7  and  C_8
REMARK    6  A    between atoms: C_10  and  N_15
REMARK    7  A    between atoms: C_13  and  O_14
REMARK    8  A    between atoms: O_18  and  C_19
REMARK                            x       y       z     vdW  Elec       q    Type
REMARK                         _______ _______ _______ _____ _____    ______ ____
ROOT
ATOM      1  C   UNL     1       0.627  -0.283  -1.345  0.00  0.00    +0.254 C 
ATOM      2  O   UNL     1      -0.044  -0.756  -2.238  0.00  0.00    -0.272 OA
ATOM      3  N   UNL     1       1.927  -0.000  -1.555  0.00  0.00    -0.308 N 
ATOM      4  H   UNL     1       2.463   0.378  -0.841  0.00  0.00    +0.149 HD
ENDROOT
BRANCH   1   6
ATOM      5  C   UNL     1       0.004   1.495   0.268  0.00  0.00    +0.062 C 
ATOM      6  C   UNL     1       0.005  -0.012   0.001  0.00  0.00    +0.255 C 
BRANCH   6   7
ATOM      7  O   UNL     1      -1.339  -0.499   0.012  0.00  0.00    -0.480 OA
BRANCH   7   8
ATOM      8  C   UNL     1      -1.869  -0.818   1.222  0.00  0.00    +0.122 A 
ATOM      9  C   UNL     1      -3.124  -1.405   1.297  0.00  0.00    +0.045 A 
ATOM     10  C   UNL     1      -3.661  -1.729   2.528  0.00  0.00    +0.004 A 
ATOM     11  C   UNL     1      -2.950  -1.468   3.684  0.00  0.00    +0.000 A 
ATOM     12  C   UNL     1      -1.699  -0.881   3.612  0.00  0.00    +0.004 A 
ATOM     13  C   UNL     1      -1.155  -0.561   2.383  0.00  0.00    +0.045 A 
ENDBRANCH   7   8
ENDBRANCH   6   7
ENDBRANCH   1   6
BRANCH   3  14
ATOM     14  C   UNL     1       2.532  -0.264  -2.863  0.00  0.00    +0.143 C 
BRANCH  14  15
ATOM     15  C   UNL     1       3.984   0.137  -2.836  0.00  0.00    +0.013 A 
ATOM     16  C   UNL     1       4.968  -0.831  -2.777  0.00  0.00    +0.041 A 
ATOM     17  C   UNL     1       6.300  -0.463  -2.752  0.00  0.00    +0.127 A 
ATOM     18  C   UNL     1       6.652   0.874  -2.785  0.00  0.00    +0.036 A 
ATOM     19  C   UNL     1       5.672   1.845  -2.844  0.00  0.00    +0.048 A 
ATOM     20  C   UNL     1       4.334   1.479  -2.876  0.00  0.00    +0.122 A 
BRANCH  17  21
ATOM     21  N   UNL     1       7.352  -1.502  -2.688  0.00  0.00    +0.056 N 
ATOM     22  O   UNL     1       7.046  -2.672  -2.659  0.00  0.00    -0.126 OA
ATOM     23  O   UNL     1       8.518  -1.182  -2.666  0.00  0.00    -0.126 OA
ENDBRANCH  17  21
BRANCH  20  24
ATOM     24  O   UNL     1       3.369   2.433  -2.938  0.00  0.00    -0.506 OA
ATOM     25  H   UNL     1       3.064   2.742  -2.074  0.00  0.00    +0.292 HD
ENDBRANCH  20  24
ENDBRANCH  14  15
ENDBRANCH   3  14
TORSDOF 7
