REMARK  Name = ZINC09222648
REMARK  10 active torsions:
REMARK  status: ('A' for Active; 'I' for Inactive)
REMARK    1  A    between atoms: C_1  and  C_2
REMARK    2  A    between atoms: C_2  and  N_3
REMARK    3  A    between atoms: N_3  and  C_4
REMARK    4  A    between atoms: C_4  and  C_5
REMARK    5  A    between atoms: N_7  and  C_8
REMARK    6  A    between atoms: C_16  and  C_18
REMARK    7  A    between atoms: C_21  and  S_24
REMARK    8  A    between atoms: S_24  and  N_27
REMARK    9  A    between atoms: N_27  and  C_28
REMARK   10  A    between atoms: N_27  and  C_29
REMARK                            x       y       z     vdW  Elec       q    Type
REMARK                         _______ _______ _______ _____ _____    ______ ____
ROOT
ATOM      1  N   UNL     1      -0.859  -2.281   0.679  0.00  0.00    -0.289 N 
ATOM      2  C   UNL     1      -1.693  -2.541  -0.347  0.00  0.00    +0.247 C 
ATOM      3  O   UNL     1      -1.421  -2.150  -1.465  0.00  0.00    -0.270 OA
ENDROOT
BRANCH   2   4
ATOM      4  C   UNL     1      -2.939  -3.301  -0.113  0.00  0.00    +0.037 A 
ATOM      5  C   UNL     1      -3.780  -2.960   0.947  0.00  0.00    +0.015 A 
ATOM      6  C   UNL     1      -4.944  -3.671   1.157  0.00  0.00    +0.029 A 
ATOM      7  C   UNL     1      -5.273  -4.726   0.325  0.00  0.00    +0.109 A 
ATOM      8  C   UNL     1      -4.441  -5.074  -0.724  0.00  0.00    +0.029 A 
ATOM      9  C   UNL     1      -3.277  -4.367  -0.948  0.00  0.00    +0.015 A 
BRANCH   7  10
ATOM     10  S   UNL     1      -6.758  -5.633   0.604  0.00  0.00    +0.074 S 
ATOM     11  O   UNL     1      -7.634  -4.768   1.314  0.00  0.00    -0.150 OA
ATOM     12  O   UNL     1      -7.112  -6.223  -0.639  0.00  0.00    -0.150 OA
BRANCH  10  13
ATOM     13  N   UNL     1      -6.387  -6.878   1.631  0.00  0.00    -0.206 N 
ATOM     14  C   UNL     1      -6.595  -6.724   3.073  0.00  0.00    +0.157 C 
BRANCH  13  15
ATOM     15  C   UNL     1      -5.875  -8.073   1.122  0.00  0.00    +0.051 A 
ATOM     16  C   UNL     1      -6.671  -8.890   0.329  0.00  0.00    +0.025 A 
ATOM     17  C   UNL     1      -6.160 -10.069  -0.176  0.00  0.00    +0.002 A 
ATOM     18  C   UNL     1      -4.861 -10.443   0.116  0.00  0.00    +0.000 A 
ATOM     19  C   UNL     1      -4.068  -9.635   0.909  0.00  0.00    +0.002 A 
ATOM     20  C   UNL     1      -4.570  -8.452   1.413  0.00  0.00    +0.025 A 
ENDBRANCH  13  15
ENDBRANCH  10  13
ENDBRANCH   7  10
ENDBRANCH   2   4
BRANCH   1  22
ATOM     21  C   UNL     1      -1.810  -1.456   2.776  0.00  0.00    +0.024 C 
ATOM     22  C   UNL     1      -1.233  -2.668   2.042  0.00  0.00    +0.105 C 
ENDBRANCH   1  22
BRANCH   1  23
ATOM     23  C   UNL     1       0.421  -1.613   0.432  0.00  0.00    +0.203 C 
BRANCH  23  24
ATOM     24  C   UNL     1       0.236  -0.120   0.535  0.00  0.00    +0.231 C 
ATOM     25  O   UNL     1      -0.858   0.339   0.784  0.00  0.00    -0.274 OA
ATOM     26  N   UNL     1       1.286   0.703   0.344  0.00  0.00    -0.310 N 
ATOM     27  H   UNL     1       2.160   0.336   0.140  0.00  0.00    +0.149 HD
BRANCH  26  28
ATOM     28  C   UNL     1       1.106   2.154   0.443  0.00  0.00    +0.095 C 
ATOM     29  C   UNL     1       0.648   2.715  -0.913  0.00  0.00    +0.046 C 
ATOM     30  C   UNL     1       0.765   4.258  -0.913  0.00  0.00    +0.168 C 
ATOM     31  S   UNL     1       2.130   4.559   0.282  0.00  0.00    -0.029 S 
ATOM     32  O   UNL     1       1.623   5.294   1.388  0.00  0.00    -0.174 OA
ATOM     33  O   UNL     1       3.263   5.049  -0.423  0.00  0.00    -0.174 OA
ATOM     34  C   UNL     1       2.458   2.826   0.814  0.00  0.00    +0.188 C 
ENDBRANCH  26  28
ENDBRANCH  23  24
ENDBRANCH   1  23
TORSDOF 8
