REMARK  Name = ZINC65021902
REMARK  5 active torsions:
REMARK  status: ('A' for Active; 'I' for Inactive)
REMARK    1  A    between atoms: C_1  and  C_2
REMARK    2  A    between atoms: C_5  and  N_9
REMARK    3  A    between atoms: N_9  and  S_10
REMARK    4  A    between atoms: S_10  and  C_13
REMARK    5  A    between atoms: C_22  and  C_25
REMARK                            x       y       z     vdW  Elec       q    Type
REMARK                         _______ _______ _______ _____ _____    ______ ____
ROOT
ATOM      1  C   UNL     1       0.099  -6.722   1.003  0.00  0.00    +0.112 A 
ATOM      2  C   UNL     1      -1.093  -7.405   0.847  0.00  0.00    +0.030 A 
ATOM      3  C   UNL     1      -1.079  -8.752   0.535  0.00  0.00    +0.018 A 
ATOM      4  C   UNL     1       0.129  -9.412   0.378  0.00  0.00    +0.030 A 
ATOM      5  C   UNL     1       1.335  -8.728   0.526  0.00  0.00    +0.049 A 
ATOM      6  C   UNL     1       1.306  -7.373   0.841  0.00  0.00    +0.053 A 
ATOM      7  N   UNL     1       2.564  -9.358   0.352  0.00  0.00    -0.283 N 
ATOM      8  C   UNL     1       2.780 -10.525  -0.245  0.00  0.00    +0.240 C 
ATOM      9  O   UNL     1       3.900 -10.989  -0.217  0.00  0.00    -0.274 OA
ATOM     10  C   UNL     1       1.701 -11.301  -0.954  0.00  0.00    +0.223 C 
ATOM     11  S   UNL     1       0.155 -11.134  -0.009  0.00  0.00    -0.101 S 
ATOM     12  H   UNL     1       3.343  -8.897   0.701  0.00  0.00    +0.155 HD
ENDROOT
BRANCH  10  13
ATOM     13  C   UNL     1       1.511 -10.751  -2.344  0.00  0.00    +0.238 C 
ATOM     14  O   UNL     1       1.725  -9.578  -2.566  0.00  0.00    -0.274 OA
ATOM     15  N   UNL     1       1.104 -11.562  -3.341  0.00  0.00    -0.300 N 
ATOM     16  C   UNL     1       0.852 -12.954  -3.042  0.00  0.00    +0.108 C 
ATOM     17  C   UNL     1       2.156 -13.769  -3.226  0.00  0.00    +0.019 C 
ATOM     18  C   UNL     1       2.492 -13.880  -4.654  0.00  0.00    +0.002 C 
ATOM     19  C   UNL     1       2.780 -12.547  -5.338  0.00  0.00    +0.002 C 
ATOM     20  C   UNL     1       1.481 -11.925  -5.788  0.00  0.00    +0.019 C 
ATOM     21  C   UNL     1       0.928 -10.991  -4.691  0.00  0.00    +0.108 C 
ENDBRANCH  10  13
BRANCH   1  22
ATOM     22  S   UNL     1       0.078  -5.006   1.405  0.00  0.00    +0.092 S 
ATOM     23  O   UNL     1       1.323  -4.720   2.028  0.00  0.00    -0.148 OA
ATOM     24  O   UNL     1      -1.168  -4.754   2.041  0.00  0.00    -0.148 OA
BRANCH  22  25
ATOM     25  N   UNL     1       0.059  -4.169  -0.023  0.00  0.00    -0.098 NA
BRANCH  25  30
ATOM     26  C   UNL     1      -0.018   1.503   0.010  0.00  0.00    +0.047 C 
ATOM     27  C   UNL     1       0.002  -0.004   0.002  0.00  0.00    -0.015 A 
ATOM     28  C   UNL     1       0.006  -0.688  -1.200  0.00  0.00    +0.008 A 
ATOM     29  C   UNL     1       0.025  -2.068  -1.211  0.00  0.00    +0.027 A 
ATOM     30  C   UNL     1       0.041  -2.772  -0.014  0.00  0.00    +0.077 A 
ATOM     31  C   UNL     1       0.037  -2.085   1.193  0.00  0.00    +0.065 A 
ATOM     32  C   UNL     1       0.023  -0.702   1.198  0.00  0.00    +0.128 A 
ATOM     33  F   UNL     1       0.024  -0.031   2.371  0.00  0.00    -0.205 F 
ENDBRANCH  25  30
ENDBRANCH  22  25
ENDBRANCH   1  22
TORSDOF 4
