REMARK  Name = ZINC36732883
REMARK  5 active torsions:
REMARK  status: ('A' for Active; 'I' for Inactive)
REMARK    1  A    between atoms: C_1  and  C_2
REMARK    2  A    between atoms: C_2  and  N_3
REMARK    3  A    between atoms: C_13  and  C_15
REMARK    4  A    between atoms: N_17  and  C_24
REMARK    5  A    between atoms: C_18  and  C_21
REMARK                            x       y       z     vdW  Elec       q    Type
REMARK                         _______ _______ _______ _____ _____    ______ ____
ROOT
ATOM      1  C   UNL     1       2.763  -0.533  -0.119  0.00  0.00    +0.124 C 
ATOM      2  N   UNL     1       2.290   0.069  -1.163  0.00  0.00    -0.178 NA
ATOM      3  N   UNL     1       3.202   0.191  -2.209  0.00  0.00    -0.212 N 
ATOM      4  C   UNL     1       4.477  -0.423  -1.804  0.00  0.00    +0.189 C 
ATOM      5  C   UNL     1       4.202  -0.921  -0.371  0.00  0.00    +0.096 C 
ENDROOT
BRANCH   1  16
ATOM      6  N   UNL     1       0.709  -0.497   1.186  0.00  0.00    -0.246 N 
ATOM      7  C   UNL     1       0.033  -0.638   2.385  0.00  0.00    +0.168 A 
ATOM      8  N   UNL     1      -1.233  -0.409   2.649  0.00  0.00    -0.224 NA
ATOM      9  C   UNL     1      -1.763  -0.592   3.878  0.00  0.00    +0.080 A 
ATOM     10  C   UNL     1      -3.099  -0.383   4.292  0.00  0.00    +0.029 A 
ATOM     11  C   UNL     1      -3.474  -0.619   5.589  0.00  0.00    +0.002 A 
ATOM     12  C   UNL     1      -2.566  -1.066   6.537  0.00  0.00    +0.001 A 
ATOM     13  C   UNL     1      -1.251  -1.281   6.167  0.00  0.00    +0.017 A 
ATOM     14  C   UNL     1      -0.866  -1.048   4.870  0.00  0.00    +0.041 A 
ATOM     15  S   UNL     1       0.658  -1.186   3.967  0.00  0.00    -0.052 S 
ATOM     16  C   UNL     1       2.022  -0.792   1.114  0.00  0.00    +0.268 C 
ATOM     17  O   UNL     1       2.591  -1.274   2.076  0.00  0.00    -0.268 OA
BRANCH   6  19
ATOM     18  C   UNL     1       0.138   1.492  -0.117  0.00  0.00    +0.025 C 
ATOM     19  C   UNL     1      -0.003  -0.027  -0.005  0.00  0.00    +0.112 C 
ENDBRANCH   6  19
ENDBRANCH   1  16
BRANCH   3  20
ATOM     20  C   UNL     1       2.948   0.795  -3.442  0.00  0.00    +0.052 A 
ATOM     21  C   UNL     1       3.944   0.848  -4.410  0.00  0.00    +0.025 A 
ATOM     22  C   UNL     1       3.689   1.446  -5.628  0.00  0.00    +0.002 A 
ATOM     23  C   UNL     1       2.445   1.993  -5.885  0.00  0.00    +0.000 A 
ATOM     24  C   UNL     1       1.452   1.942  -4.924  0.00  0.00    +0.002 A 
ATOM     25  C   UNL     1       1.698   1.341  -3.705  0.00  0.00    +0.025 A 
ENDBRANCH   3  20
BRANCH   4  26
ATOM     26  C   UNL     1       5.582   0.602  -1.804  0.00  0.00    +0.233 C 
ATOM     27  O   UNL     1       5.312   1.784  -1.778  0.00  0.00    -0.274 OA
ATOM     28  N   UNL     1       6.869   0.205  -1.833  0.00  0.00    -0.328 N 
ATOM     29  H   UNL     1       7.085  -0.740  -1.854  0.00  0.00    +0.145 HD
ATOM     30  H   UNL     1       7.580   0.865  -1.833  0.00  0.00    +0.145 HD
ENDBRANCH   4  26
TORSDOF 4
