REMARK  Name = ZINC02361216
REMARK  5 active torsions:
REMARK  status: ('A' for Active; 'I' for Inactive)
REMARK    1  A    between atoms: C_1  and  C_2
REMARK    2  A    between atoms: C_5  and  N_9
REMARK    3  A    between atoms: C_13  and  C_14
REMARK    4  A    between atoms: N_18  and  C_19
REMARK    5  A    between atoms: C_19  and  C_20
REMARK                            x       y       z     vdW  Elec       q    Type
REMARK                         _______ _______ _______ _____ _____    ______ ____
ROOT
ATOM      1  N   UNL     1      -0.836  -4.477  -0.035  0.00  0.00    -0.188 N 
ATOM      2  C   UNL     1      -0.422  -5.083   1.098  0.00  0.00    +0.264 C 
ATOM      3  O   UNL     1      -0.163  -4.438   2.097  0.00  0.00    -0.269 OA
ATOM      4  C   UNL     1      -0.293  -6.549   1.086  0.00  0.00    +0.103 C 
ATOM      5  C   UNL     1       0.127  -7.251   2.211  0.00  0.00    +0.044 C 
ATOM      6  C   UNL     1      -0.631  -7.241  -0.173  0.00  0.00    +0.276 C 
ATOM      7  N   UNL     1      -1.030  -6.501  -1.221  0.00  0.00    -0.123 NA
ATOM      8  C   UNL     1      -1.131  -5.197  -1.151  0.00  0.00    +0.340 C 
ATOM      9  O   UNL     1      -1.545  -4.531  -2.247  0.00  0.00    -0.250 OA
ATOM     10  O   UNL     1      -0.549  -8.455  -0.261  0.00  0.00    -0.268 OA
ENDROOT
BRANCH   1  15
ATOM     11  C   UNL     1      -1.382   1.171  -0.135  0.00  0.00    +0.045 C 
ATOM     12  C   UNL     1      -1.237  -0.329  -0.109  0.00  0.00    -0.032 A 
ATOM     13  C   UNL     1      -2.360  -1.132  -0.174  0.00  0.00    +0.006 A 
ATOM     14  C   UNL     1      -2.231  -2.507  -0.150  0.00  0.00    +0.024 A 
ATOM     15  C   UNL     1      -0.970  -3.083  -0.060  0.00  0.00    +0.047 A 
ATOM     16  C   UNL     1       0.157  -2.275   0.005  0.00  0.00    +0.044 A 
ATOM     17  C   UNL     1       0.021  -0.899  -0.025  0.00  0.00    +0.046 A 
ATOM     18 CL   UNL     1       1.430   0.113   0.050  0.00  0.00    -0.083 Cl
ENDBRANCH   1  15
BRANCH   5  19
ATOM     19  C   UNL     1       0.374  -8.631   2.126  0.00  0.00    +0.043 A 
ATOM     20  C   UNL     1      -0.237  -9.626   2.881  0.00  0.00    +0.027 A 
ATOM     21  C   UNL     1       0.307 -10.840   2.468  0.00  0.00    +0.020 A 
ATOM     22  C   UNL     1       1.218 -10.581   1.493  0.00  0.00    +0.086 A 
ATOM     23  N   UNL     1       1.264  -9.251   1.273  0.00  0.00    -0.343 N 
BRANCH  23  24
ATOM     24  C   UNL     1       2.119  -8.577   0.293  0.00  0.00    +0.157 C 
BRANCH  24  25
ATOM     25  C   UNL     1       3.389  -8.121   0.965  0.00  0.00    -0.026 A 
ATOM     26  C   UNL     1       3.445  -6.879   1.569  0.00  0.00    +0.007 A 
ATOM     27  C   UNL     1       4.609  -6.460   2.184  0.00  0.00    +0.022 A 
ATOM     28  C   UNL     1       5.720  -7.284   2.196  0.00  0.00    +0.059 A 
ATOM     29  C   UNL     1       5.665  -8.528   1.592  0.00  0.00    +0.060 A 
ATOM     30  C   UNL     1       4.497  -8.948   0.981  0.00  0.00    +0.026 A 
ATOM     31 CL   UNL     1       7.058  -9.563   1.606  0.00  0.00    -0.082 Cl
ATOM     32 CL   UNL     1       7.183  -6.758   2.969  0.00  0.00    -0.082 Cl
ENDBRANCH  24  25
ENDBRANCH  23  24
ENDBRANCH   5  19
TORSDOF 4
