REMARK  Name = ZINC36922455
REMARK  4 active torsions:
REMARK  status: ('A' for Active; 'I' for Inactive)
REMARK    1  A    between atoms: C_1  and  C_2
REMARK    2  A    between atoms: C_2  and  C_4
REMARK    3  A    between atoms: C_2  and  N_10
REMARK    4  A    between atoms: N_10  and  C_11
REMARK                            x       y       z     vdW  Elec       q    Type
REMARK                         _______ _______ _______ _____ _____    ______ ____
ROOT
ATOM      1  C   UNL     1      -2.077  -0.648  -1.190  0.00  0.00    +0.050 A 
ATOM      2  C   UNL     1      -1.472  -0.308  -2.392  0.00  0.00    +0.073 A 
ATOM      3  C   UNL     1      -2.170  -0.445  -3.582  0.00  0.00    +0.164 A 
ATOM      4  C   UNL     1      -3.475  -0.923  -3.570  0.00  0.00    +0.164 A 
ATOM      5  C   UNL     1      -4.078  -1.259  -2.367  0.00  0.00    +0.071 A 
ATOM      6  C   UNL     1      -3.380  -1.129  -1.180  0.00  0.00    +0.065 A 
ATOM      7 CL   UNL     1      -4.136  -1.559   0.322  0.00  0.00    -0.082 Cl
ATOM      8  O   UNL     1      -4.174  -1.070  -4.730  0.00  0.00    -0.485 OA
ATOM      9  C   UNL     1      -3.672  -0.374  -5.876  0.00  0.00    +0.270 C 
ATOM     10  C   UNL     1      -2.157  -0.606  -5.955  0.00  0.00    +0.270 C 
ATOM     11  O   UNL     1      -1.564  -0.104  -4.753  0.00  0.00    -0.485 OA
ENDROOT
BRANCH   1  12
ATOM     12  N   UNL     1      -1.372  -0.511   0.012  0.00  0.00    -0.336 N 
ATOM     13  H   UNL     1      -1.794  -0.752   0.852  0.00  0.00    +0.147 HD
BRANCH  12  15
ATOM     14  C   UNL     1      -0.019   1.526   0.010  0.00  0.00    +0.033 C 
ATOM     15  C   UNL     1       0.002  -0.004   0.002  0.00  0.00    +0.104 C 
BRANCH  15  16
ATOM     16  C   UNL     1       0.731  -0.503   1.223  0.00  0.00    +0.011 A 
ATOM     17  C   UNL     1       2.009  -0.938   1.335  0.00  0.00    +0.014 A 
ATOM     18  C   UNL     1       2.471  -1.355   2.570  0.00  0.00    +0.028 A 
ATOM     19  C   UNL     1       1.629  -1.315   3.633  0.00  0.00    +0.078 A 
ATOM     20  S   UNL     1       0.136  -0.668   2.898  0.00  0.00    -0.080 S 
ATOM     21 CL   UNL     1       1.927  -1.770   5.282  0.00  0.00    -0.076 Cl
ENDBRANCH  15  16
ENDBRANCH  12  15
ENDBRANCH   1  12
TORSDOF 3
