REMARK  Name = ZINC20424884
REMARK  8 active torsions:
REMARK  status: ('A' for Active; 'I' for Inactive)
REMARK    1  A    between atoms: C_1  and  C_2
REMARK    2  A    between atoms: C_4  and  C_19
REMARK    3  A    between atoms: C_6  and  C_18
REMARK    4  A    between atoms: C_7  and  O_8
REMARK    5  A    between atoms: O_8  and  C_9
REMARK    6  A    between atoms: C_9  and  C_11
REMARK    7  A    between atoms: C_9  and  C_12
REMARK    8  A    between atoms: C_19  and  O_20
REMARK                            x       y       z     vdW  Elec       q    Type
REMARK                         _______ _______ _______ _____ _____    ______ ____
ROOT
ATOM      1  O   UNL     1      -2.476   3.809  -0.012  0.00  0.00    -0.479 OA
ENDROOT
BRANCH   1   8
ATOM      2  C   UNL     1      -2.303   1.232  -1.155  0.00  0.00    +0.047 C 
ATOM      3  C   UNL     1      -1.117   1.930  -0.541  0.00  0.00    -0.008 A 
ATOM      4  C   UNL     1       0.116   1.308  -0.518  0.00  0.00    +0.012 A 
ATOM      5  C   UNL     1       1.206   1.950   0.040  0.00  0.00    -0.021 A 
ATOM      6  C   UNL     1       1.064   3.215   0.580  0.00  0.00    +0.012 A 
ATOM      7  C   UNL     1      -0.168   3.840   0.564  0.00  0.00    -0.008 A 
ATOM      8  C   UNL     1      -1.263   3.197   0.005  0.00  0.00    +0.127 A 
ATOM      9  C   UNL     1      -0.322   5.218   1.152  0.00  0.00    +0.047 C 
BRANCH   5  10
ATOM     10  C   UNL     1       2.551   1.271   0.059  0.00  0.00    +0.191 C 
BRANCH  10  11
ATOM     11  O   UNL     1       3.268   1.600  -1.133  0.00  0.00    -0.390 OA
ATOM     12  H   UNL     1       4.277   1.194  -1.298  0.00  0.00    +0.210 HD
ENDBRANCH  10  11
ENDBRANCH   5  10
ENDBRANCH   1   8
BRANCH   1  13
ATOM     13  C   UNL     1      -3.395   3.457   1.024  0.00  0.00    +0.256 C 
ATOM     14  C   UNL     1      -3.264   4.448   2.182  0.00  0.00    +0.062 C 
BRANCH  13  15
ATOM     15  C   UNL     1      -4.802   3.499   0.483  0.00  0.00    +0.261 C 
ATOM     16  O   UNL     1      -4.997   3.801  -0.674  0.00  0.00    -0.271 OA
ATOM     17  N   UNL     1      -5.842   3.201   1.287  0.00  0.00    -0.237 N 
ATOM     18  C   UNL     1      -7.099   3.238   0.804  0.00  0.00    +0.303 C 
ATOM     19  O   UNL     1      -7.295   3.541  -0.357  0.00  0.00    -0.253 OA
ATOM     20  N   UNL     1      -8.139   2.940   1.607  0.00  0.00    -0.313 N 
ATOM     21  H   UNL     1      -5.664   2.926   2.337  0.00  0.00    +0.159 HD
ATOM     22  H   UNL     1      -9.166   2.971   1.213  0.00  0.00    +0.146 HD
ATOM     23  H   UNL     1      -7.962   2.666   2.658  0.00  0.00    +0.146 HD
ENDBRANCH  13  15
ENDBRANCH   1  13
TORSDOF 5
