REMARK  Name = ZINC54527602
REMARK  3 active torsions:
REMARK  status: ('A' for Active; 'I' for Inactive)
REMARK    1  A    between atoms: C_6  and  C_7
REMARK    2  A    between atoms: C_7  and  N_8
REMARK    3  A    between atoms: C_10  and  C_19
REMARK                            x       y       z     vdW  Elec       q    Type
REMARK                         _______ _______ _______ _____ _____    ______ ____
ROOT
ATOM      1  N   UNL     1      -1.734  -1.006  -1.364  0.00  0.00    -0.326 N 
ATOM      2  C   UNL     1      -2.882  -1.733  -1.611  0.00  0.00    +0.111 A 
ATOM      3  C   UNL     1      -3.336  -1.903  -2.932  0.00  0.00    +0.101 A 
ATOM      4  C   UNL     1      -4.505  -2.641  -3.144  0.00  0.00    +0.023 A 
ATOM      5  C   UNL     1      -5.168  -3.178  -2.049  0.00  0.00    -0.027 A 
ATOM      6  C   UNL     1      -4.661  -2.976  -0.782  0.00  0.00    +0.021 A 
ATOM      7  N   UNL     1      -3.549  -2.272  -0.607  0.00  0.00    -0.346 N 
ATOM      8  C   UNL     1      -5.320  -3.545   0.449  0.00  0.00    +0.053 C 
ATOM      9  C   UNL     1      -6.766  -3.938   0.151  0.00  0.00    +0.006 C 
ATOM     10  C   UNL     1      -6.780  -4.826  -1.098  0.00  0.00    +0.005 C 
ATOM     11  C   UNL     1      -6.428  -3.961  -2.307  0.00  0.00    +0.037 C 
ATOM     12  H   UNL     1      -1.199  -0.679  -2.104  0.00  0.00    +0.148 HD
ATOM     13  H   UNL     1      -3.216  -2.145   0.295  0.00  0.00    +0.167 HD
ENDROOT
BRANCH   3  14
ATOM     14  C   UNL     1      -2.599  -1.319  -4.062  0.00  0.00    +0.390 C 
ATOM     15  O   UNL     1      -3.063  -1.381  -5.193  0.00  0.00    -0.240 OA
ATOM     16  O   UNL     1      -1.522  -0.771  -3.872  0.00  0.00    -0.240 OA
ENDBRANCH   3  14
BRANCH   1  17
ATOM     17  C   UNL     1      -1.324  -0.730   0.015  0.00  0.00    +0.138 C 
BRANCH  17  23
ATOM     18  C   UNL     1      -0.084   1.459  -0.008  0.00  0.00    +0.025 A 
ATOM     19  C   UNL     1       1.106   2.163  -0.013  0.00  0.00    +0.111 A 
ATOM     20  N   UNL     1       2.264   1.531  -0.004  0.00  0.00    -0.263 NA
ATOM     21  C   UNL     1       2.335   0.214   0.011  0.00  0.00    +0.111 A 
ATOM     22  C   UNL     1       1.187  -0.556   0.018  0.00  0.00    +0.025 A 
ATOM     23  C   UNL     1      -0.049   0.073   0.008  0.00  0.00    -0.028 A 
ENDBRANCH  17  23
ENDBRANCH   1  17
TORSDOF 3
