REMARK  Name = ZINC23372411
REMARK  10 active torsions:
REMARK  status: ('A' for Active; 'I' for Inactive)
REMARK    1  A    between atoms: C_1  and  C_2
REMARK    2  A    between atoms: C_8  and  C_17
REMARK    3  A    between atoms: C_12  and  C_13
REMARK    4  A    between atoms: C_13  and  O_15
REMARK    5  A    between atoms: O_15  and  C_16
REMARK    6  A    between atoms: C_17  and  N_18
REMARK    7  A    between atoms: N_21  and  C_24
REMARK    8  A    between atoms: C_24  and  C_25
REMARK    9  A    between atoms: C_29  and  C_36
REMARK   10  A    between atoms: C_32  and  C_35
REMARK                            x       y       z     vdW  Elec       q    Type
REMARK                         _______ _______ _______ _____ _____    ______ ____
ROOT
ATOM      1  N   UNL     1       4.245   6.774   3.215  0.00  0.00    -0.299 NA
ATOM      2  C   UNL     1       5.041   5.552   3.394  0.00  0.00    +0.066 C 
ATOM      3  C   UNL     1       4.853   4.642   2.178  0.00  0.00    -0.063 C 
ATOM      4  N   UNL     1       3.427   4.321   2.024  0.00  0.00    +0.387 N 
ATOM      5  C   UNL     1       2.632   5.544   1.845  0.00  0.00    -0.063 C 
ATOM      6  C   UNL     1       2.819   6.454   3.062  0.00  0.00    +0.066 C 
ATOM      7  H   UNL     1       3.089   3.828   2.947  0.00  0.00    -0.081 HD
ENDROOT
BRANCH   1   8
ATOM      8  C   UNL     1       4.458   7.708   4.329  0.00  0.00    +0.158 C 
BRANCH   8  16
ATOM      9  C   UNL     1       1.990  13.855   3.703  0.00  0.00    +0.046 C 
ATOM     10  C   UNL     1       2.029  12.598   2.873  0.00  0.00    -0.015 A 
ATOM     11  C   UNL     1       2.667  11.456   3.361  0.00  0.00    +0.076 A 
ATOM     12  C   UNL     1       3.365  11.254   4.651  0.00  0.00    +0.260 A 
ATOM     13  O   UNL     1       3.444  12.155   5.467  0.00  0.00    -0.267 OA
ATOM     14  N   UNL     1       3.906  10.045   4.901  0.00  0.00    -0.309 N 
ATOM     15  H   UNL     1       4.424   9.861   5.853  0.00  0.00    +0.170 HD
ATOM     16  C   UNL     1       3.829   9.037   3.998  0.00  0.00    +0.125 A 
ATOM     17  N   UNL     1       3.221   9.182   2.852  0.00  0.00    -0.225 NA
ATOM     18  C   UNL     1       2.650  10.329   2.507  0.00  0.00    +0.116 A 
ATOM     19  S   UNL     1       1.756  10.906   1.087  0.00  0.00    -0.062 S 
ATOM     20  C   UNL     1       1.439  12.573   1.642  0.00  0.00    +0.102 A 
BRANCH  20  21
ATOM     21  C   UNL     1       0.725  13.647   0.948  0.00  0.00    +0.346 C 
ATOM     22  O   UNL     1       0.599  14.734   1.478  0.00  0.00    -0.244 OA
BRANCH  21  23
ATOM     23  O   UNL     1       0.206  13.430  -0.278  0.00  0.00    -0.464 OA
ATOM     24  C   UNL     1      -0.489  14.539  -0.905  0.00  0.00    +0.280 C 
ENDBRANCH  21  23
ENDBRANCH  20  21
ENDBRANCH   8  16
ENDBRANCH   1   8
BRANCH   4  25
ATOM     25  C   UNL     1       3.215   3.388   0.910  0.00  0.00    +0.019 C 
BRANCH  25  26
ATOM     26  C   UNL     1       1.792   2.892   0.934  0.00  0.00    +0.199 C 
ATOM     27  O   UNL     1       1.030   3.279   1.795  0.00  0.00    -0.278 OA
ATOM     28  N   UNL     1       1.366   2.019  -0.000  0.00  0.00    -0.303 N 
ATOM     29  C   UNL     1      -0.019   1.528   0.010  0.00  0.00    +0.111 C 
ATOM     30  C   UNL     1       0.002  -0.004   0.002  0.00  0.00    +0.004 C 
ATOM     31  C   UNL     1       0.834  -0.492  -1.186  0.00  0.00    +0.009 C 
ATOM     32  C   UNL     1       2.272   0.009  -1.045  0.00  0.00    +0.004 C 
ATOM     33  C   UNL     1       2.277   1.541  -1.048  0.00  0.00    +0.111 C 
ATOM     34  C   UNL     1       3.111  -0.507  -2.216  0.00  0.00    +0.009 C 
ATOM     35  C   UNL     1      -1.428  -0.533  -0.122  0.00  0.00    +0.009 C 
ENDBRANCH  25  26
ENDBRANCH   4  25
TORSDOF 6
