REMARK  Name = ZINC04349284
REMARK  8 active torsions:
REMARK  status: ('A' for Active; 'I' for Inactive)
REMARK    1  A    between atoms: C_4  and  C_7
REMARK    2  A    between atoms: C_14  and  O_18
REMARK    3  A    between atoms: O_18  and  C_19
REMARK    4  A    between atoms: C_21  and  O_34
REMARK    5  A    between atoms: C_23  and  O_33
REMARK    6  A    between atoms: C_25  and  O_32
REMARK    7  A    between atoms: C_27  and  C_30
REMARK    8  A    between atoms: C_30  and  O_31
REMARK                            x       y       z     vdW  Elec       q    Type
REMARK                         _______ _______ _______ _____ _____    ______ ____
ROOT
ATOM      1  C   UNL     1       2.325   4.145   0.003  0.00  0.00    +0.139 A 
ATOM      2  C   UNL     1       3.552   3.560  -0.012  0.00  0.00    +0.098 A 
ATOM      3  C   UNL     1       3.652   2.148  -0.021  0.00  0.00    +0.193 A 
ATOM      4  O   UNL     1       4.736   1.589  -0.034  0.00  0.00    -0.287 OA
ATOM      5  C   UNL     1       2.393   1.379  -0.013  0.00  0.00    +0.064 A 
ATOM      6  C   UNL     1       2.396  -0.016  -0.021  0.00  0.00    +0.019 A 
ATOM      7  C   UNL     1       1.211  -0.696  -0.013  0.00  0.00    +0.047 A 
ATOM      8  C   UNL     1       0.002  -0.004   0.002  0.00  0.00    +0.128 A 
ATOM      9  C   UNL     1      -0.017   1.381   0.010  0.00  0.00    +0.092 A 
ATOM     10  C   UNL     1       1.178   2.086   0.002  0.00  0.00    +0.143 A 
ATOM     11  O   UNL     1       1.186   3.435   0.010  0.00  0.00    -0.454 OA
ENDROOT
BRANCH   1  15
ATOM     12  C   UNL     1       2.086   8.385   0.028  0.00  0.00    +0.000 A 
ATOM     13  C   UNL     1       0.926   7.629   0.035  0.00  0.00    +0.001 A 
ATOM     14  C   UNL     1       0.996   6.252   0.027  0.00  0.00    +0.011 A 
ATOM     15  C   UNL     1       2.242   5.620   0.012  0.00  0.00    +0.017 A 
ATOM     16  C   UNL     1       3.408   6.388   0.011  0.00  0.00    +0.011 A 
ATOM     17  C   UNL     1       3.322   7.765   0.013  0.00  0.00    +0.001 A 
ENDBRANCH   1  15
BRANCH   8  18
ATOM     18  O   UNL     1      -1.167  -0.693   0.010  0.00  0.00    -0.461 OA
BRANCH  18  19
ATOM     19  C   UNL     1      -1.080  -2.119   0.001  0.00  0.00    +0.339 C 
ATOM     20  C   UNL     1      -2.483  -2.718   0.138  0.00  0.00    +0.214 C 
ATOM     21  C   UNL     1      -3.329  -2.296  -1.068  0.00  0.00    +0.180 C 
ATOM     22  C   UNL     1      -2.627  -2.748  -2.352  0.00  0.00    +0.177 C 
ATOM     23  C   UNL     1      -1.219  -2.148  -2.393  0.00  0.00    +0.179 C 
ATOM     24  O   UNL     1      -0.496  -2.554  -1.228  0.00  0.00    -0.331 OA
BRANCH  22  25
ATOM     25  O   UNL     1      -2.541  -4.174  -2.374  0.00  0.00    -0.386 OA
ATOM     26  H   UNL     1      -3.398  -4.620  -2.346  0.00  0.00    +0.210 HD
ENDBRANCH  22  25
BRANCH  21  27
ATOM     27  O   UNL     1      -3.474  -0.875  -1.076  0.00  0.00    -0.386 OA
ATOM     28  H   UNL     1      -3.906  -0.519  -0.288  0.00  0.00    +0.210 HD
ENDBRANCH  21  27
BRANCH  20  29
ATOM     29  O   UNL     1      -2.392  -4.143   0.184  0.00  0.00    -0.383 OA
ATOM     30  H   UNL     1      -1.865  -4.480   0.922  0.00  0.00    +0.210 HD
ENDBRANCH  20  29
BRANCH  23  31
ATOM     31  C   UNL     1      -0.489  -2.643  -3.644  0.00  0.00    +0.190 C 
BRANCH  31  32
ATOM     32  O   UNL     1       0.780  -1.994  -3.743  0.00  0.00    -0.392 OA
ATOM     33  H   UNL     1       1.299  -2.260  -4.514  0.00  0.00    +0.210 HD
ENDBRANCH  31  32
ENDBRANCH  23  31
ENDBRANCH  18  19
ENDBRANCH   8  18
TORSDOF 8
