REMARK  Name = ZINC44887284
REMARK  6 active torsions:
REMARK  status: ('A' for Active; 'I' for Inactive)
REMARK    1  A    between atoms: C_1  and  C_2
REMARK    2  A    between atoms: C_2  and  C_4
REMARK    3  A    between atoms: C_2  and  N_9
REMARK    4  A    between atoms: N_9  and  S_10
REMARK    5  A    between atoms: S_10  and  C_13
REMARK    6  A    between atoms: C_15  and  N_21
REMARK                            x       y       z     vdW  Elec       q    Type
REMARK                         _______ _______ _______ _____ _____    ______ ____
ROOT
ATOM      1  S   UNL     1       2.280  -0.898  -1.033  0.00  0.00    +0.062 S 
ATOM      2  O   UNL     1       2.833  -1.293  -2.281  0.00  0.00    -0.153 OA
ATOM      3  O   UNL     1       2.803   0.185  -0.277  0.00  0.00    -0.153 OA
ENDROOT
BRANCH   1   4
ATOM      4  C   UNL     1       2.335  -2.315   0.013  0.00  0.00    +0.143 A 
ATOM      5  C   UNL     1       2.884  -3.495  -0.452  0.00  0.00    +0.054 A 
ATOM      6  C   UNL     1       2.928  -4.612   0.372  0.00  0.00    +0.028 A 
ATOM      7  C   UNL     1       2.419  -4.540   1.663  0.00  0.00    +0.045 A 
ATOM      8  C   UNL     1       1.871  -3.358   2.123  0.00  0.00    +0.080 A 
ATOM      9  C   UNL     1       1.833  -2.244   1.300  0.00  0.00    +0.168 A 
ATOM     10  F   UNL     1       1.301  -1.088   1.754  0.00  0.00    -0.202 F 
ATOM     11 CL   UNL     1       1.234  -3.268   3.736  0.00  0.00    -0.080 Cl
BRANCH   6  12
ATOM     12  N   UNL     1       3.483  -5.806  -0.097  0.00  0.00    -0.358 N 
ATOM     13  H   UNL     1       3.838  -5.855  -0.998  0.00  0.00    +0.142 HD
ATOM     14  H   UNL     1       3.513  -6.586   0.479  0.00  0.00    +0.142 HD
ENDBRANCH   6  12
ENDBRANCH   1   4
BRANCH   1  15
ATOM     15  N   UNL     1       0.684  -0.555  -1.310  0.00  0.00    -0.180 NA
ATOM     16  H   UNL     1       0.300   0.271  -0.976  0.00  0.00    +0.149 HD
BRANCH  15  18
ATOM     17  C   UNL     1      -0.910  -2.395  -1.078  0.00  0.00    +0.034 C 
ATOM     18  C   UNL     1      -0.149  -1.500  -2.058  0.00  0.00    +0.145 C 
BRANCH  18  19
ATOM     19  C   UNL     1      -1.132  -0.737  -2.909  0.00  0.00    +0.195 A 
ATOM     20  N   UNL     1      -1.431  -0.977  -4.177  0.00  0.00    -0.109 NA
ATOM     21  N   UNL     1      -2.312  -0.109  -4.541  0.00  0.00    -0.021 NA
ATOM     22  N   UNL     1      -2.574   0.665  -3.546  0.00  0.00    -0.021 NA
ATOM     23  N   UNL     1      -1.868   0.298  -2.531  0.00  0.00    -0.109 NA
ENDBRANCH  18  19
ENDBRANCH  15  18
ENDBRANCH   1  15
TORSDOF 5
