REMARK  Name = ZINC67305382
REMARK  4 active torsions:
REMARK  status: ('A' for Active; 'I' for Inactive)
REMARK    1  A    between atoms: C_2  and  C_3
REMARK    2  A    between atoms: C_3  and  N_4
REMARK    3  A    between atoms: C_7  and  N_10
REMARK    4  A    between atoms: C_11  and  C_13
REMARK                            x       y       z     vdW  Elec       q    Type
REMARK                         _______ _______ _______ _____ _____    ______ ____
ROOT
ATOM      1  N   UNL     1       1.727  -5.144   3.486  0.00  0.00    -0.312 N 
ATOM      2  C   UNL     1       2.576  -6.188   3.562  0.00  0.00    +0.216 C 
ATOM      3  O   UNL     1       3.318  -6.436   2.636  0.00  0.00    -0.276 OA
ATOM      4  H   UNL     1       1.134  -4.946   4.227  0.00  0.00    +0.149 HD
ENDROOT
BRANCH   2   5
ATOM      5  C   UNL     1       2.603  -7.048   4.799  0.00  0.00    +0.075 C 
ATOM      6  C   UNL     1       2.965  -6.187   6.011  0.00  0.00    +0.015 C 
ATOM      7  C   UNL     1       2.979  -7.060   7.269  0.00  0.00    +0.036 C 
ATOM      8  C   UNL     1       3.997  -8.183   7.101  0.00  0.00    +0.112 C 
ATOM      9  C   UNL     1       3.663  -9.035   5.881  0.00  0.00    +0.036 C 
ATOM     10  C   UNL     1       3.646  -8.155   4.629  0.00  0.00    +0.015 C 
ATOM     11  C   UNL     1       5.393  -7.617   6.984  0.00  0.00    +0.244 C 
ATOM     12  O   UNL     1       5.813  -6.869   6.127  0.00  0.00    -0.273 OA
ATOM     13  N   UNL     1       6.074  -8.119   8.035  0.00  0.00    -0.238 N 
ATOM     14  C   UNL     1       5.304  -8.914   8.787  0.00  0.00    +0.307 C 
ATOM     15  O   UNL     1       5.694  -9.483   9.788  0.00  0.00    -0.252 OA
ATOM     16  N   UNL     1       4.049  -9.014   8.310  0.00  0.00    -0.285 N 
ATOM     17  H   UNL     1       7.007  -7.928   8.221  0.00  0.00    +0.159 HD
ATOM     18  H   UNL     1       3.322  -9.533   8.690  0.00  0.00    +0.151 HD
ENDBRANCH   2   5
BRANCH   1  22
ATOM     19  N   UNL     1       1.368  -1.678   1.115  0.00  0.00    +0.382 N 
ATOM     20  C   UNL     1       0.335  -2.707   0.940  0.00  0.00    -0.077 C 
ATOM     21  C   UNL     1       0.330  -3.640   2.153  0.00  0.00    +0.003 C 
ATOM     22  C   UNL     1       1.701  -4.308   2.283  0.00  0.00    +0.069 C 
ATOM     23  C   UNL     1       2.778  -3.224   2.390  0.00  0.00    +0.003 C 
ATOM     24  C   UNL     1       2.693  -2.307   1.168  0.00  0.00    -0.077 C 
ATOM     25  H   UNL     1       1.199  -1.178   1.974  0.00  0.00    -0.081 HD
BRANCH  19  26
ATOM     26  C   UNL     1       1.317  -0.740  -0.015  0.00  0.00    -0.052 C 
BRANCH  26  28
ATOM     27  C   UNL     1      -0.016   1.306   0.009  0.00  0.00    +0.002 C 
ATOM     28  C   UNL     1       0.002  -0.004   0.002  0.00  0.00    -0.053 C 
ENDBRANCH  26  28
ENDBRANCH  19  26
ENDBRANCH   1  22
TORSDOF 4
