REMARK  Name = ZINC40757958
REMARK  7 active torsions:
REMARK  status: ('A' for Active; 'I' for Inactive)
REMARK    1  A    between atoms: C_1  and  N_2
REMARK    2  A    between atoms: N_2  and  C_3
REMARK    3  A    between atoms: C_10  and  N_23
REMARK    4  A    between atoms: C_11  and  N_15
REMARK    5  A    between atoms: N_15  and  C_16
REMARK    6  A    between atoms: C_16  and  C_17
REMARK    7  A    between atoms: C_17  and  C_18
REMARK                            x       y       z     vdW  Elec       q    Type
REMARK                         _______ _______ _______ _____ _____    ______ ____
ROOT
ATOM      1  C   UNL     1       1.268   0.385   0.636  0.00  0.00    +0.137 C 
ATOM      2  N   UNL     1       0.004   0.003   0.000  0.00  0.00    -0.288 N 
ATOM      3  C   UNL     1       0.010  -0.597  -1.254  0.00  0.00    +0.128 A 
ATOM      4  C   UNL     1       0.056   0.181  -2.412  0.00  0.00    +0.104 A 
ATOM      5  C   UNL     1       0.060  -0.472  -3.646  0.00  0.00    +0.145 A 
ATOM      6  N   UNL     1       0.019  -1.803  -3.671  0.00  0.00    -0.221 NA
ATOM      7  C   UNL     1      -0.024  -2.500  -2.553  0.00  0.00    +0.200 A 
ATOM      8  N   UNL     1      -0.023  -1.923  -1.369  0.00  0.00    -0.333 N 
ATOM      9  H   UNL     1      -0.051  -2.471  -0.570  0.00  0.00    +0.168 HD
ENDROOT
BRANCH   2  10
ATOM     10  C   UNL     1      -1.208   0.243   0.654  0.00  0.00    +0.035 A 
ATOM     11  C   UNL     1      -2.398  -0.214   0.104  0.00  0.00    +0.023 A 
ATOM     12  C   UNL     1      -3.594   0.025   0.753  0.00  0.00    +0.002 A 
ATOM     13  C   UNL     1      -3.606   0.717   1.950  0.00  0.00    +0.000 A 
ATOM     14  C   UNL     1      -2.422   1.173   2.501  0.00  0.00    +0.002 A 
ATOM     15  C   UNL     1      -1.223   0.933   1.860  0.00  0.00    +0.023 A 
ENDBRANCH   2  10
BRANCH   4  16
ATOM     16  N   UNL     1       0.097   1.583  -2.338  0.00  0.00    -0.353 N 
ATOM     17  H   UNL     1       0.020   2.026  -1.479  0.00  0.00    +0.143 HD
ATOM     18  H   UNL     1       0.203   2.108  -3.147  0.00  0.00    +0.143 HD
ENDBRANCH   4  16
BRANCH   5  19
ATOM     19  N   UNL     1       0.105   0.254  -4.829  0.00  0.00    -0.327 N 
ATOM     20  H   UNL     1       0.134   1.224  -4.803  0.00  0.00    +0.148 HD
BRANCH  19  21
ATOM     21  C   UNL     1       0.108  -0.443  -6.118  0.00  0.00    +0.108 C 
BRANCH  21  22
ATOM     22  C   UNL     1       0.161   0.582  -7.253  0.00  0.00    +0.061 C 
BRANCH  22  23
ATOM     23  C   UNL     1       0.165  -0.136  -8.578  0.00  0.00    -0.009 A 
ATOM     24  C   UNL     1      -0.885  -0.505  -9.351  0.00  0.00    +0.011 A 
ATOM     25  C   UNL     1      -0.642  -1.161 -10.543  0.00  0.00    +0.008 A 
ATOM     26  C   UNL     1       0.640  -1.415 -10.904  0.00  0.00    +0.045 A 
ATOM     27  S   UNL     1       1.553  -0.713  -9.540  0.00  0.00    -0.102 S 
ENDBRANCH  22  23
ENDBRANCH  21  22
ENDBRANCH  19  21
ENDBRANCH   5  19
TORSDOF 6
