REMARK  Name = ZINC36227128
REMARK  5 active torsions:
REMARK  status: ('A' for Active; 'I' for Inactive)
REMARK    1  A    between atoms: C_2  and  S_10
REMARK    2  A    between atoms: CA_6  and  C_7
REMARK    3  A    between atoms: S_10  and  N_13
REMARK    4  A    between atoms: C_17  and  C_20
REMARK    5  A    between atoms: C_20  and  O_21
REMARK                            x       y       z     vdW  Elec       q    Type
REMARK                         _______ _______ _______ _____ _____    ______ ____
ROOT
ATOM      1  S   UNL     1       1.868   3.476   0.002  0.00  0.00    +0.062 S 
ATOM      2  O   UNL     1       3.172   3.472  -0.561  0.00  0.00    -0.153 OA
ATOM      3  O   UNL     1       0.808   4.256  -0.535  0.00  0.00    -0.153 OA
ENDROOT
BRANCH   1   5
ATOM      4  C   UNL     1      -0.017   1.378   0.010  0.00  0.00    +0.063 A 
ATOM      5  C   UNL     1       1.314   1.803  -0.001  0.00  0.00    +0.123 A 
ATOM      6  C   UNL     1       2.103   0.701  -0.014  0.00  0.00    +0.112 A 
ATOM      7  N   UNL     1       1.322  -0.399  -0.013  0.00  0.00    -0.354 N 
ATOM      8  H   UNL     1       1.638  -1.316  -0.021  0.00  0.00    +0.166 HD
ATOM      9  CA  UNL     1       0.002  -0.004   0.002  0.00  0.00    +0.130 A 
BRANCH   9  10
ATOM     10  C   UNL     1      -1.164  -0.885   0.008  0.00  0.00    +0.402 C 
ATOM     11  O   UNL     1      -1.014  -2.100   0.001  0.00  0.00    -0.239 OA
ATOM     12  OXT UNL     1      -2.292  -0.408   0.022  0.00  0.00    -0.239 OA
ENDBRANCH   9  10
ENDBRANCH   1   5
BRANCH   1  13
ATOM     13  N   UNL     1       2.037   3.933   1.585  0.00  0.00    -0.176 NA
ATOM     14  C   UNL     1       0.911   4.531   2.316  0.00  0.00    +0.109 C 
ATOM     15  C   UNL     1       0.684   3.738   3.607  0.00  0.00    +0.017 C 
ATOM     16  C   UNL     1       1.990   3.680   4.402  0.00  0.00    +0.008 C 
ATOM     17  C   UNL     1       3.061   2.963   3.577  0.00  0.00    +0.030 C 
ATOM     18  C   UNL     1       3.313   3.741   2.287  0.00  0.00    +0.115 C 
BRANCH  17  19
ATOM     19  C   UNL     1       4.356   2.876   4.386  0.00  0.00    +0.160 C 
BRANCH  19  20
ATOM     20  O   UNL     1       4.147   2.050   5.533  0.00  0.00    -0.395 OA
ATOM     21  H   UNL     1       4.928   1.949   6.093  0.00  0.00    +0.209 HD
ENDBRANCH  19  20
ENDBRANCH  17  19
ENDBRANCH   1  13
TORSDOF 5
