REMARK  Name = ZINC43385187
REMARK  7 active torsions:
REMARK  status: ('A' for Active; 'I' for Inactive)
REMARK    1  A    between atoms: C_1  and  C_2
REMARK    2  A    between atoms: C_2  and  N_3
REMARK    3  A    between atoms: C_4  and  C_6
REMARK    4  A    between atoms: C_6  and  C_8
REMARK    5  A    between atoms: C_6  and  N_9
REMARK    6  A    between atoms: C_10  and  N_12
REMARK    7  A    between atoms: C_17  and  C_19
REMARK                            x       y       z     vdW  Elec       q    Type
REMARK                         _______ _______ _______ _____ _____    ______ ____
ROOT
ATOM      1  N   UNL     1      -2.994  -3.826   0.010  0.00  0.00    -0.287 N 
ATOM      2  C   UNL     1      -4.048  -4.511  -0.477  0.00  0.00    +0.326 C 
ATOM      3  O   UNL     1      -5.017  -3.913  -0.910  0.00  0.00    -0.251 OA
ATOM      4  H   UNL     1      -2.223  -4.302   0.355  0.00  0.00    +0.151 HD
ENDROOT
BRANCH   2   5
ATOM      5  N   UNL     1      -4.030  -5.847  -0.484  0.00  0.00    -0.139 NA
ATOM      6  C   UNL     1      -5.070  -6.524  -0.965  0.00  0.00    +0.165 A 
ATOM      7  N   UNL     1      -6.227  -6.036  -1.492  0.00  0.00    -0.342 N 
ATOM      8  H   UNL     1      -6.376  -5.080  -1.554  0.00  0.00    +0.167 HD
ATOM      9  C   UNL     1      -7.170  -6.915  -1.929  0.00  0.00    +0.095 A 
ATOM     10  C   UNL     1      -6.895  -8.218  -1.812  0.00  0.00    +0.006 A 
ATOM     11  S   UNL     1      -5.271  -8.190  -1.077  0.00  0.00    -0.058 S 
ATOM     12  C   UNL     1      -7.738  -9.404  -2.205  0.00  0.00    +0.053 C 
ENDBRANCH   2   5
BRANCH   1  13
ATOM     13  C   UNL     1      -3.014  -2.361   0.018  0.00  0.00    +0.157 C 
ATOM     14  C   UNL     1      -3.731  -1.868   1.277  0.00  0.00    +0.038 C 
BRANCH  13  16
ATOM     15  N   UNL     1      -1.372  -0.511   0.012  0.00  0.00    -0.314 N 
ATOM     16  C   UNL     1      -1.601  -1.839   0.007  0.00  0.00    +0.233 C 
ATOM     17  O   UNL     1      -0.668  -2.615  -0.006  0.00  0.00    -0.274 OA
ATOM     18  H   UNL     1      -2.118   0.109   0.023  0.00  0.00    +0.149 HD
BRANCH  15  20
ATOM     19  C   UNL     1      -0.019   1.526   0.010  0.00  0.00    +0.024 C 
ATOM     20  C   UNL     1       0.002  -0.004   0.002  0.00  0.00    +0.101 C 
ENDBRANCH  15  20
ENDBRANCH  13  16
ENDBRANCH   1  13
TORSDOF 4
