REMARK  Name = ZINC01320748
REMARK  8 active torsions:
REMARK  status: ('A' for Active; 'I' for Inactive)
REMARK    1  A    between atoms: C_1  and  C_2
REMARK    2  A    between atoms: C_3  and  C_27
REMARK    3  A    between atoms: C_6  and  N_11
REMARK    4  A    between atoms: N_11  and  S_12
REMARK    5  A    between atoms: S_12  and  C_15
REMARK    6  A    between atoms: N_21  and  C_26
REMARK    7  A    between atoms: N_24  and  C_25
REMARK    8  A    between atoms: C_27  and  C_29
REMARK                            x       y       z     vdW  Elec       q    Type
REMARK                         _______ _______ _______ _____ _____    ______ ____
ROOT
ATOM      1  N   UNL     1       1.598   4.771   1.417  0.00  0.00    -0.216 N 
ATOM      2  H   UNL     1       0.766   5.152   1.738  0.00  0.00    +0.174 HD
ENDROOT
BRANCH   1   8
ATOM      3  C   UNL     1       5.117   1.976   7.316  0.00  0.00    +0.087 C 
ATOM      4  C   UNL     1       4.600   2.612   6.051  0.00  0.00    +0.114 A 
ATOM      5  C   UNL     1       3.291   2.634   5.661  0.00  0.00    +0.065 A 
ATOM      6  C   UNL     1       3.272   3.358   4.373  0.00  0.00    +0.033 A 
ATOM      7  C   UNL     1       2.270   3.717   3.478  0.00  0.00    +0.036 A 
ATOM      8  C   UNL     1       2.599   4.410   2.325  0.00  0.00    +0.049 A 
ATOM      9  C   UNL     1       3.925   4.754   2.073  0.00  0.00    +0.028 A 
ATOM     10  C   UNL     1       4.920   4.405   2.960  0.00  0.00    +0.049 A 
ATOM     11  C   UNL     1       4.606   3.704   4.119  0.00  0.00    +0.136 A 
ATOM     12  O   UNL     1       5.353   3.240   5.143  0.00  0.00    -0.459 OA
BRANCH   5  13
ATOM     13  C   UNL     1       2.149   2.060   6.369  0.00  0.00    +0.164 C 
ATOM     14  O   UNL     1       1.525   2.735   7.162  0.00  0.00    -0.292 OA
ATOM     15  C   UNL     1       1.745   0.630   6.115  0.00  0.00    +0.092 C 
ENDBRANCH   5  13
ENDBRANCH   1   8
BRANCH   1  16
ATOM     16  S   UNL     1       1.835   4.549  -0.207  0.00  0.00    +0.072 S 
ATOM     17  O   UNL     1       3.109   5.099  -0.510  0.00  0.00    -0.150 OA
ATOM     18  O   UNL     1       0.645   4.981  -0.853  0.00  0.00    -0.150 OA
BRANCH  16  19
ATOM     19  C   UNL     1       1.956   2.813  -0.483  0.00  0.00    +0.111 A 
ATOM     20  C   UNL     1       3.192   2.191  -0.427  0.00  0.00    +0.031 A 
ATOM     21  C   UNL     1       3.297   0.831  -0.641  0.00  0.00    +0.030 A 
ATOM     22  C   UNL     1       2.160   0.085  -0.915  0.00  0.00    +0.070 A 
ATOM     23  C   UNL     1       0.914   0.713  -0.973  0.00  0.00    +0.071 A 
ATOM     24  C   UNL     1       0.818   2.079  -0.755  0.00  0.00    +0.056 A 
ATOM     25  N   UNL     1      -0.022  -0.277  -1.262  0.00  0.00    -0.295 N 
ATOM     26  C   UNL     1       0.624  -1.452  -1.375  0.00  0.00    +0.330 A 
ATOM     27  O   UNL     1       0.098  -2.521  -1.625  0.00  0.00    -0.246 OA
ATOM     28  N   UNL     1       1.942  -1.266  -1.171  0.00  0.00    -0.295 N 
ATOM     29  C   UNL     1       2.971  -2.308  -1.213  0.00  0.00    +0.154 C 
ATOM     30  C   UNL     1      -1.465  -0.073  -1.416  0.00  0.00    +0.154 C 
ENDBRANCH  16  19
ENDBRANCH   1  16
TORSDOF 4
