REMARK  Name = ZINC06693059
REMARK  13 active torsions:
REMARK  status: ('A' for Active; 'I' for Inactive)
REMARK    1  A    between atoms: C_1  and  C_2
REMARK    2  A    between atoms: C_2  and  C_3
REMARK    3  A    between atoms: C_2  and  C_4
REMARK    4  A    between atoms: C_2  and  C_5
REMARK    5  A    between atoms: C_8  and  C_11
REMARK    6  A    between atoms: C_14  and  C_15
REMARK    7  A    between atoms: C_14  and  O_23
REMARK    8  A    between atoms: C_18  and  O_21
REMARK    9  A    between atoms: O_21  and  C_22
REMARK   10  A    between atoms: N_28  and  C_29
REMARK   11  A    between atoms: C_29  and  C_30
REMARK   12  A    between atoms: C_30  and  C_31
REMARK   13  A    between atoms: C_31  and  N_61
REMARK                            x       y       z     vdW  Elec       q    Type
REMARK                         _______ _______ _______ _____ _____    ______ ____
ROOT
ATOM      1  C   UNL     1      -5.077   1.073   0.257  0.00  0.00    +0.144 C 
ATOM      2  C   UNL     1      -3.701   1.685   0.133  0.00  0.00    +0.071 C 
ATOM      3  C   UNL     1      -2.500   1.012   0.019  0.00  0.00    +0.133 C 
ATOM      4  C   UNL     1      -3.888   3.075   0.163  0.00  0.00    +0.249 C 
ATOM      5  O   UNL     1      -3.010   3.916   0.092  0.00  0.00    -0.282 OA
ATOM      6  C   UNL     1      -5.345   3.344   0.292  0.00  0.00    +0.288 C 
ATOM      7  O   UNL     1      -5.847   4.449   0.343  0.00  0.00    -0.266 OA
ATOM      8  N   UNL     1      -6.025   2.187   0.349  0.00  0.00    -0.284 N 
ENDROOT
BRANCH   1  12
ATOM      9  C   UNL     1      -5.939  -1.300  -3.189  0.00  0.00    -0.042 A 
ATOM     10  C   UNL     1      -5.547  -1.908  -2.011  0.00  0.00    +0.004 A 
ATOM     11  C   UNL     1      -5.268  -1.141  -0.896  0.00  0.00    +0.006 A 
ATOM     12  C   UNL     1      -5.381   0.236  -0.959  0.00  0.00    -0.022 A 
ATOM     13  C   UNL     1      -5.778   0.844  -2.135  0.00  0.00    +0.006 A 
ATOM     14  C   UNL     1      -6.052   0.076  -3.251  0.00  0.00    +0.004 A 
BRANCH   9  16
ATOM     15  C   UNL     1      -7.386  -3.101  -4.088  0.00  0.00    +0.015 C 
ATOM     16  C   UNL     1      -6.242  -2.137  -4.405  0.00  0.00    -0.013 C 
ATOM     17  C   UNL     1      -6.649  -1.224  -5.564  0.00  0.00    +0.015 C 
ATOM     18  C   UNL     1      -4.997  -2.935  -4.798  0.00  0.00    +0.015 C 
ENDBRANCH   9  16
ENDBRANCH   1  12
BRANCH   3  19
ATOM     19  C   UNL     1      -1.261   1.757  -0.252  0.00  0.00    +0.017 A 
ATOM     20  C   UNL     1      -1.211   2.676  -1.308  0.00  0.00    +0.015 A 
ATOM     21  C   UNL     1      -0.052   3.375  -1.554  0.00  0.00    +0.046 A 
ATOM     22  C   UNL     1       1.071   3.167  -0.760  0.00  0.00    +0.120 A 
ATOM     23  C   UNL     1       1.028   2.252   0.287  0.00  0.00    +0.046 A 
ATOM     24  C   UNL     1      -0.127   1.547   0.541  0.00  0.00    +0.015 A 
BRANCH  22  25
ATOM     25  O   UNL     1       2.211   3.859  -1.007  0.00  0.00    -0.495 OA
ATOM     26  C   UNL     1       3.327   3.597  -0.153  0.00  0.00    +0.277 C 
ENDBRANCH  22  25
ENDBRANCH   3  19
BRANCH   3  27
ATOM     27  O   UNL     1      -2.463  -0.331   0.158  0.00  0.00    -0.506 OA
ATOM     28  H   UNL     1      -1.522  -0.652   0.046  0.00  0.00    +0.292 HD
ENDBRANCH   3  27
BRANCH   8  29
ATOM     29  C   UNL     1      -7.478   2.059   0.482  0.00  0.00    +0.107 C 
BRANCH  29  30
ATOM     30  C   UNL     1      -7.852   2.007   1.965  0.00  0.00    -0.001 C 
BRANCH  30  31
ATOM     31  C   UNL     1      -9.370   1.873   2.104  0.00  0.00    -0.085 C 
BRANCH  31  34
ATOM     32  H   UNL     1     -10.727   1.736   3.646  0.00  0.00    -0.090 HD
ATOM     33  H   UNL     1      -9.242   1.076   3.998  0.00  0.00    -0.090 HD
ATOM     34  N   UNL     1      -9.721   1.847   3.535  0.00  0.00    +0.378 N 
ATOM     35  H   UNL     1      -9.431   2.731   3.970  0.00  0.00    -0.090 HD
ENDBRANCH  31  34
ENDBRANCH  30  31
ENDBRANCH  29  30
ENDBRANCH   8  29
TORSDOF 9
