REMARK  Name = ZINC21010563
REMARK  3 active torsions:
REMARK  status: ('A' for Active; 'I' for Inactive)
REMARK    1  A    between atoms: C_5  and  C_7
REMARK    2  A    between atoms: C_7  and  N_8
REMARK    3  A    between atoms: C_9  and  C_11
REMARK                            x       y       z     vdW  Elec       q    Type
REMARK                         _______ _______ _______ _____ _____    ______ ____
ROOT
ATOM      1  N   UNL     1       1.143   1.898   0.001  0.00  0.00    -0.308 N 
ATOM      2  C   UNL     1      -0.014   1.209   0.009  0.00  0.00    +0.256 C 
ATOM      3  O   UNL     1       0.002  -0.004   0.002  0.00  0.00    -0.272 OA
ATOM      4  H   UNL     1       1.129   2.998   0.007  0.00  0.00    +0.149 HD
ENDROOT
BRANCH   2   5
ATOM      5  C   UNL     1      -1.330   1.944   0.019  0.00  0.00    +0.275 C 
ATOM      6  C   UNL     1      -1.494   2.723  -1.294  0.00  0.00    +0.155 C 
ATOM      7  N   UNL     1      -2.810   3.383  -1.258  0.00  0.00    -0.337 N 
ATOM      8  C   UNL     1      -3.896   2.646  -0.760  0.00  0.00    +0.070 A 
ATOM      9  C   UNL     1      -5.191   3.097  -0.960  0.00  0.00    +0.026 A 
ATOM     10  C   UNL     1      -6.258   2.371  -0.463  0.00  0.00    +0.002 A 
ATOM     11  C   UNL     1      -6.033   1.197   0.233  0.00  0.00    +0.004 A 
ATOM     12  C   UNL     1      -4.743   0.742   0.433  0.00  0.00    +0.047 A 
ATOM     13  C   UNL     1      -3.667   1.463  -0.063  0.00  0.00    +0.142 A 
ATOM     14  O   UNL     1      -2.402   1.007   0.136  0.00  0.00    -0.476 OA
ATOM     15  H   UNL     1      -2.916   4.418  -1.614  0.00  0.00    +0.146 HD
ENDBRANCH   2   5
BRANCH   1  16
ATOM     16  C   UNL     1       2.422   1.183  -0.015  0.00  0.00    +0.141 C 
BRANCH  16  21
ATOM     17  C   UNL     1       5.239   3.396  -1.209  0.00  0.00    +0.000 A 
ATOM     18  C   UNL     1       5.632   4.003  -0.030  0.00  0.00    +0.001 A 
ATOM     19  C   UNL     1       4.987   3.697   1.153  0.00  0.00    +0.020 A 
ATOM     20  C   UNL     1       3.948   2.784   1.159  0.00  0.00    +0.046 A 
ATOM     21  C   UNL     1       3.554   2.178  -0.020  0.00  0.00    -0.012 A 
ATOM     22  C   UNL     1       4.203   2.480  -1.203  0.00  0.00    +0.006 A 
ATOM     23 CL   UNL     1       3.138   2.400   2.646  0.00  0.00    -0.083 Cl
ENDBRANCH  16  21
ENDBRANCH   1  16
TORSDOF 3
