REMARK  Name = ZINC63878940
REMARK  6 active torsions:
REMARK  status: ('A' for Active; 'I' for Inactive)
REMARK    1  A    between atoms: C_1  and  C_2
REMARK    2  A    between atoms: C_6  and  C_19
REMARK    3  A    between atoms: C_7  and  N_8
REMARK    4  A    between atoms: N_8  and  S_9
REMARK    5  A    between atoms: S_9  and  C_12
REMARK    6  A    between atoms: N_14  and  C_17
REMARK                            x       y       z     vdW  Elec       q    Type
REMARK                         _______ _______ _______ _____ _____    ______ ____
ROOT
ATOM      1  N   UNL     1      -0.036  -0.210   2.489  0.00  0.00    -0.095 NA
ENDROOT
BRANCH   1   8
ATOM      2  C   UNL     1       1.855  -1.969   1.308  0.00  0.00    +0.046 C 
ATOM      3  C   UNL     1       0.527  -1.672   0.662  0.00  0.00    -0.022 A 
ATOM      4  C   UNL     1       0.196  -2.267  -0.539  0.00  0.00    +0.043 A 
ATOM      5  C   UNL     1      -1.025  -2.000  -1.143  0.00  0.00    +0.125 A 
ATOM      6  C   UNL     1      -1.922  -1.137  -0.549  0.00  0.00    +0.055 A 
ATOM      7  C   UNL     1      -1.600  -0.526   0.668  0.00  0.00    +0.090 A 
ATOM      8  C   UNL     1      -0.365  -0.804   1.279  0.00  0.00    +0.091 A 
ATOM      9  F   UNL     1      -1.336  -2.589  -2.318  0.00  0.00    -0.205 F 
BRANCH   7  10
ATOM     10  C   UNL     1      -2.551   0.396   1.307  0.00  0.00    +0.389 C 
ATOM     11  O   UNL     1      -3.663   0.559   0.824  0.00  0.00    -0.241 OA
ATOM     12  O   UNL     1      -2.230   0.999   2.322  0.00  0.00    -0.241 OA
ENDBRANCH   7  10
ENDBRANCH   1   8
BRANCH   1  13
ATOM     13  S   UNL     1       0.164  -1.143   3.843  0.00  0.00    +0.110 S 
ATOM     14  O   UNL     1      -1.020  -1.916   3.981  0.00  0.00    -0.147 OA
ATOM     15  O   UNL     1       1.452  -1.734   3.742  0.00  0.00    -0.147 OA
BRANCH  13  16
ATOM     16  C   UNL     1       0.217  -0.051   5.225  0.00  0.00    +0.214 A 
ATOM     17  C   UNL     1       1.165   0.876   5.466  0.00  0.00    +0.154 A 
ATOM     18  N   UNL     1       0.823   1.497   6.636  0.00  0.00    -0.324 N 
ATOM     19  C   UNL     1      -0.324   0.928   7.070  0.00  0.00    +0.176 A 
ATOM     20  N   UNL     1      -0.682   0.007   6.219  0.00  0.00    -0.329 N 
ATOM     21  C   UNL     1       1.561   2.578   7.296  0.00  0.00    +0.151 C 
ATOM     22 CL   UNL     1       2.554   1.216   4.481  0.00  0.00    -0.060 Cl
ATOM     23  H   UNL     1      -1.473  -0.550   6.294  0.00  0.00    +0.168 HD
ENDBRANCH  13  16
ENDBRANCH   1  13
TORSDOF 4
