REMARK  Name = ZINC14252133
REMARK  6 active torsions:
REMARK  status: ('A' for Active; 'I' for Inactive)
REMARK    1  A    between atoms: C_10  and  C_13
REMARK    2  A    between atoms: C_13  and  C_14
REMARK    3  A    between atoms: N_16  and  C_17
REMARK    4  A    between atoms: C_21  and  S_23
REMARK    5  A    between atoms: S_23  and  N_26
REMARK    6  A    between atoms: N_26  and  C_27
REMARK                            x       y       z     vdW  Elec       q    Type
REMARK                         _______ _______ _______ _____ _____    ______ ____
ROOT
ATOM      1  C   UNL     1       2.153  -0.079   0.573  0.00  0.00    +0.035 A 
ATOM      2  C   UNL     1       3.136   0.827   0.195  0.00  0.00    +0.023 A 
ATOM      3  C   UNL     1       2.793   2.131  -0.102  0.00  0.00    +0.004 A 
ATOM      4  C   UNL     1       1.473   2.536  -0.024  0.00  0.00    +0.029 A 
ATOM      5  C   UNL     1       0.492   1.636   0.351  0.00  0.00    +0.110 A 
ATOM      6  C   UNL     1       0.828   0.330   0.650  0.00  0.00    +0.052 A 
ENDROOT
BRANCH   1   9
ATOM      7  C   UNL     1       1.639  -2.402   0.592  0.00  0.00    +0.219 C 
ATOM      8  O   UNL     1       0.611  -2.168  -0.009  0.00  0.00    -0.275 OA
ATOM      9  N   UNL     1       2.497  -1.402   0.874  0.00  0.00    -0.285 N 
ATOM     10  H   UNL     1       3.352  -1.598   1.286  0.00  0.00    +0.155 HD
BRANCH   7  11
ATOM     11  C   UNL     1       1.956  -3.811   1.022  0.00  0.00    +0.120 C 
BRANCH  11  21
ATOM     12  C   UNL     1       4.285  -7.521  -2.210  0.00  0.00    +0.002 A 
ATOM     13  C   UNL     1       3.900  -6.542  -3.108  0.00  0.00    +0.001 A 
ATOM     14  C   UNL     1       2.835  -5.713  -2.809  0.00  0.00    +0.016 A 
ATOM     15  C   UNL     1       2.159  -5.862  -1.610  0.00  0.00    +0.030 A 
ATOM     16  C   UNL     1       2.555  -6.833  -0.688  0.00  0.00    +0.047 A 
ATOM     17  C   UNL     1       3.617  -7.671  -1.011  0.00  0.00    +0.024 A 
ATOM     18  N   UNL     1       1.900  -6.998   0.528  0.00  0.00    -0.284 N 
ATOM     19  C   UNL     1       1.080  -6.132   1.114  0.00  0.00    +0.231 C 
ATOM     20  O   UNL     1       0.507  -6.474   2.127  0.00  0.00    -0.274 OA
ATOM     21  C   UNL     1       0.828  -4.745   0.581  0.00  0.00    +0.146 C 
ATOM     22  S   UNL     1       0.777  -4.829  -1.236  0.00  0.00    -0.110 S 
ATOM     23  H   UNL     1       2.058  -7.833   0.997  0.00  0.00    +0.155 HD
ENDBRANCH  11  21
ENDBRANCH   7  11
ENDBRANCH   1   9
BRANCH   5  24
ATOM     24  S   UNL     1      -1.189   2.155   0.442  0.00  0.00    +0.072 S 
ATOM     25  O   UNL     1      -1.313   3.283  -0.413  0.00  0.00    -0.150 OA
ATOM     26  O   UNL     1      -1.984   0.988   0.282  0.00  0.00    -0.150 OA
BRANCH  24  27
ATOM     27  N   UNL     1      -1.452   2.699   1.984  0.00  0.00    -0.213 N 
ATOM     28  H   UNL     1      -2.118   2.269   2.543  0.00  0.00    +0.174 HD
BRANCH  27  29
ATOM     29  C   UNL     1      -0.712   3.777   2.480  0.00  0.00    +0.083 A 
ATOM     30  C   UNL     1      -0.352   4.820   1.638  0.00  0.00    +0.027 A 
ATOM     31  C   UNL     1       0.378   5.884   2.131  0.00  0.00    +0.002 A 
ATOM     32  C   UNL     1       0.751   5.912   3.462  0.00  0.00    +0.003 A 
ATOM     33  C   UNL     1       0.395   4.875   4.306  0.00  0.00    +0.040 A 
ATOM     34  C   UNL     1      -0.341   3.810   3.820  0.00  0.00    +0.146 A 
ATOM     35  F   UNL     1      -0.694   2.800   4.645  0.00  0.00    -0.204 F 
ENDBRANCH  27  29
ENDBRANCH  24  27
ENDBRANCH   5  24
TORSDOF 6
