REMARK  Name = ZINC39457534
REMARK  5 active torsions:
REMARK  status: ('A' for Active; 'I' for Inactive)
REMARK    1  A    between atoms: C_1  and  C_2
REMARK    2  A    between atoms: C_2  and  O_3
REMARK    3  A    between atoms: O_3  and  C_4
REMARK    4  A    between atoms: C_21  and  C_24
REMARK    5  A    between atoms: C_22  and  O_23
REMARK                            x       y       z     vdW  Elec       q    Type
REMARK                         _______ _______ _______ _____ _____    ______ ____
ROOT
ATOM      1  C   UNL     1       0.776  -1.803  -1.335  0.00  0.00    +0.142 A 
ATOM      2  C   UNL     1       1.885  -2.520  -0.822  0.00  0.00    +0.043 A 
ATOM      3  C   UNL     1       2.909  -1.848  -0.135  0.00  0.00    +0.013 A 
ATOM      4  C   UNL     1       3.961  -2.553   0.367  0.00  0.00    +0.001 A 
ATOM      5  C   UNL     1       4.036  -3.933   0.206  0.00  0.00    +0.002 A 
ATOM      6  C   UNL     1       3.065  -4.615  -0.462  0.00  0.00    +0.028 A 
ATOM      7  C   UNL     1       1.965  -3.922  -1.000  0.00  0.00    +0.075 A 
ATOM      8  N   UNL     1       1.018  -4.591  -1.673  0.00  0.00    -0.244 NA
ATOM      9  C   UNL     1      -0.025  -3.977  -2.182  0.00  0.00    +0.103 A 
ATOM     10  C   UNL     1      -0.205  -2.529  -2.008  0.00  0.00    +0.087 A 
ATOM     11  C   UNL     1      -1.416  -1.913  -2.535  0.00  0.00    +0.169 C 
ATOM     12  O   UNL     1      -2.295  -1.577  -1.769  0.00  0.00    -0.292 OA
ATOM     13  C   UNL     1      -1.597  -1.686  -4.017  0.00  0.00    +0.084 C 
ATOM     14  C   UNL     1      -1.119  -2.925  -4.785  0.00  0.00    +0.049 C 
ATOM     15  C   UNL     1      -1.584  -4.189  -4.119  0.00  0.00    +0.023 A 
ATOM     16  C   UNL     1      -1.068  -4.678  -2.953  0.00  0.00    +0.086 A 
ATOM     17  N   UNL     1      -1.702  -5.853  -2.675  0.00  0.00    -0.275 N 
ATOM     18  C   UNL     1      -2.626  -6.087  -3.655  0.00  0.00    +0.069 A 
ATOM     19  C   UNL     1      -2.576  -5.079  -4.541  0.00  0.00    +0.142 A 
ATOM     20  C   UNL     1      -3.559  -7.268  -3.721  0.00  0.00    +0.068 C 
ATOM     21 BR   UNL     1      -1.369  -6.945  -1.219  0.00  0.00    +0.055 Br
ENDROOT
BRANCH  19  22
ATOM     22  O   UNL     1      -3.344  -4.955  -5.659  0.00  0.00    -0.505 OA
ATOM     23  H   UNL     1      -2.964  -5.370  -6.446  0.00  0.00    +0.292 HD
ENDBRANCH  19  22
BRANCH   1  24
ATOM     24  O   UNL     1       0.671  -0.465  -1.174  0.00  0.00    -0.491 OA
BRANCH  24  26
ATOM     25  C   UNL     1      -0.019   1.526   0.010  0.00  0.00    +0.048 C 
ATOM     26  C   UNL     1       0.002  -0.004   0.002  0.00  0.00    +0.226 C 
ENDBRANCH  24  26
ENDBRANCH   1  24
TORSDOF 3
