REMARK  Name = ZINC08845578
REMARK  9 active torsions:
REMARK  status: ('A' for Active; 'I' for Inactive)
REMARK    1  A    between atoms: C_1  and  C_2
REMARK    2  A    between atoms: C_4  and  C_31
REMARK    3  A    between atoms: C_5  and  O_30
REMARK    4  A    between atoms: C_6  and  C_8
REMARK    5  A    between atoms: C_10  and  C_14
REMARK    6  A    between atoms: N_16  and  C_17
REMARK    7  A    between atoms: C_18  and  C_26
REMARK    8  A    between atoms: C_26  and  O_28
REMARK    9  A    between atoms: O_28  and  C_29
REMARK                            x       y       z     vdW  Elec       q    Type
REMARK                         _______ _______ _______ _____ _____    ______ ____
ROOT
ATOM      1  C   UNL     1       5.936  -3.589  -0.071  0.00  0.00    +0.266 C 
ATOM      2  O   UNL     1       5.300  -4.625  -0.069  0.00  0.00    -0.268 OA
ATOM      3  N   UNL     1       7.284  -3.625  -0.083  0.00  0.00    -0.274 N 
ATOM      4  H   UNL     1       7.791  -2.798  -0.084  0.00  0.00    +0.156 HD
ENDROOT
BRANCH   3   5
ATOM      5  C   UNL     1       7.943  -4.842  -0.095  0.00  0.00    +0.087 A 
ATOM      6  C   UNL     1       9.311  -5.083  -0.114  0.00  0.00    +0.091 A 
ATOM      7  C   UNL     1       9.749  -6.469  -0.119  0.00  0.00    -0.021 A 
ATOM      8  C   UNL     1       8.757  -7.385  -0.115  0.00  0.00    -0.004 A 
ATOM      9  S   UNL     1       7.263  -6.436  -0.097  0.00  0.00    -0.077 S 
ATOM     10  C   UNL     1       8.904  -8.876  -0.124  0.00  0.00    +0.043 C 
ATOM     11  C   UNL     1      10.349  -9.217  -0.517  0.00  0.00    +0.005 C 
ATOM     12  C   UNL     1      11.303  -8.355   0.315  0.00  0.00    +0.005 C 
ATOM     13  C   UNL     1      11.211  -6.896  -0.133  0.00  0.00    +0.037 C 
BRANCH   6  14
ATOM     14  C   UNL     1      10.276  -3.982  -0.126  0.00  0.00    +0.342 C 
ATOM     15  O   UNL     1      10.692  -3.526   0.922  0.00  0.00    -0.245 OA
BRANCH  14  16
ATOM     16  O   UNL     1      10.704  -3.472  -1.299  0.00  0.00    -0.464 OA
ATOM     17  C   UNL     1      11.661  -2.382  -1.235  0.00  0.00    +0.280 C 
ENDBRANCH  14  16
ENDBRANCH   6  14
ENDBRANCH   3   5
BRANCH   1  20
ATOM     18  C   UNL     1       3.697  -0.699  -0.037  0.00  0.00    +0.097 A 
ATOM     19  C   UNL     1       3.868  -2.095  -0.040  0.00  0.00    +0.062 A 
ATOM     20  C   UNL     1       5.236  -2.295  -0.058  0.00  0.00    +0.121 A 
ATOM     21  N   UNL     1       5.808  -1.054  -0.057  0.00  0.00    -0.272 N 
ATOM     22  H   UNL     1       6.792  -0.875  -0.065  0.00  0.00    +0.189 HD
ATOM     23  N   UNL     1       4.895  -0.152  -0.045  0.00  0.00    -0.173 NA
BRANCH  18  29
ATOM     24  C   UNL     1      -1.294  -0.773   0.010  0.00  0.00    +0.044 C 
ATOM     25  C   UNL     1       0.002  -0.004   0.002  0.00  0.00    -0.049 A 
ATOM     26  C   UNL     1      -0.017   1.379   0.010  0.00  0.00    +0.010 A 
ATOM     27  C   UNL     1       1.167   2.093   0.002  0.00  0.00    -0.008 A 
ATOM     28  C   UNL     1       2.380   1.424  -0.013  0.00  0.00    +0.129 A 
ATOM     29  C   UNL     1       2.402   0.026  -0.021  0.00  0.00    +0.044 A 
ATOM     30  C   UNL     1       1.204  -0.683  -0.013  0.00  0.00    +0.017 A 
ATOM     31  C   UNL     1       1.138   3.599   0.010  0.00  0.00    +0.047 C 
BRANCH  28  32
ATOM     32  O   UNL     1       3.545   2.124  -0.020  0.00  0.00    -0.506 OA
ATOM     33  H   UNL     1       3.874   2.331  -0.905  0.00  0.00    +0.292 HD
ENDBRANCH  28  32
ENDBRANCH  18  29
ENDBRANCH   1  20
TORSDOF 6
