REMARK  Name = ZINC38664368
REMARK  9 active torsions:
REMARK  status: ('A' for Active; 'I' for Inactive)
REMARK    1  A    between atoms: C_1  and  O_2
REMARK    2  A    between atoms: O_2  and  C_3
REMARK    3  A    between atoms: C_6  and  O_9
REMARK    4  A    between atoms: O_9  and  C_10
REMARK    5  A    between atoms: C_14  and  C_16
REMARK    6  A    between atoms: C_19  and  O_23
REMARK    7  A    between atoms: C_21  and  O_22
REMARK    8  A    between atoms: O_23  and  C_24
REMARK    9  A    between atoms: C_24  and  C_25
REMARK                            x       y       z     vdW  Elec       q    Type
REMARK                         _______ _______ _______ _____ _____    ______ ____
ROOT
ATOM      1  C   UNL     1       4.738  -4.322   5.516  0.00  0.00    +0.025 A 
ATOM      2  C   UNL     1       5.690  -5.079   4.859  0.00  0.00    +0.013 A 
ATOM      3  C   UNL     1       7.031  -4.773   4.992  0.00  0.00    +0.046 A 
ATOM      4  C   UNL     1       7.425  -3.704   5.784  0.00  0.00    +0.124 A 
ATOM      5  C   UNL     1       6.472  -2.943   6.443  0.00  0.00    +0.091 A 
ATOM      6  C   UNL     1       5.127  -3.248   6.304  0.00  0.00    +0.126 A 
ENDROOT
BRANCH   1  11
ATOM      7  C   UNL     1       2.641  -3.828   4.268  0.00  0.00    +0.153 C 
ATOM      8  C   UNL     1       2.231  -4.748   3.371  0.00  0.00    +0.176 C 
ATOM      9  N   UNL     1       2.530  -5.983   3.790  0.00  0.00    -0.182 NA
ATOM     10  N   UNL     1       3.103  -6.037   4.880  0.00  0.00    -0.294 N 
ATOM     11  C   UNL     1       3.277  -4.658   5.369  0.00  0.00    +0.199 C 
ATOM     12  H   UNL     1       3.391  -6.844   5.334  0.00  0.00    +0.184 HD
BRANCH   7  13
ATOM     13  O   UNL     1       2.520  -2.485   4.200  0.00  0.00    -0.456 OA
BRANCH  13  17
ATOM     14  C   UNL     1       0.040  -0.622   6.924  0.00  0.00    +0.120 A 
ATOM     15  C   UNL     1       0.108  -2.007   6.881  0.00  0.00    +0.049 A 
ATOM     16  C   UNL     1       0.937  -2.630   5.970  0.00  0.00    +0.050 A 
ATOM     17  C   UNL     1       1.703  -1.871   5.097  0.00  0.00    +0.128 A 
ATOM     18  C   UNL     1       1.635  -0.486   5.139  0.00  0.00    +0.050 A 
ATOM     19  C   UNL     1       0.802   0.137   6.048  0.00  0.00    +0.049 A 
BRANCH  14  21
ATOM     20  C   UNL     1      -1.532  -0.852   8.694  0.00  0.00    +0.277 C 
ATOM     21  O   UNL     1      -0.776  -0.009   7.822  0.00  0.00    -0.495 OA
ENDBRANCH  14  21
ENDBRANCH  13  17
ENDBRANCH   7  13
ENDBRANCH   1  11
BRANCH   6  22
ATOM     22  O   UNL     1       4.190  -2.501   6.944  0.00  0.00    -0.506 OA
ATOM     23  H   UNL     1       3.971  -2.819   7.831  0.00  0.00    +0.292 HD
ENDBRANCH   6  22
BRANCH   4  24
ATOM     24  O   UNL     1       8.744  -3.403   5.914  0.00  0.00    -0.487 OA
BRANCH  24  25
ATOM     25  C   UNL     1       9.670  -4.230   5.207  0.00  0.00    +0.267 C 
BRANCH  25  26
ATOM     26  C   UNL     1      11.074  -3.750   5.470  0.00  0.00    +0.025 A 
ATOM     27  C   UNL     1      11.290  -2.663   6.296  0.00  0.00    +0.010 A 
ATOM     28  C   UNL     1      12.578  -2.222   6.537  0.00  0.00    +0.001 A 
ATOM     29  C   UNL     1      13.651  -2.867   5.951  0.00  0.00    +0.003 A 
ATOM     30  C   UNL     1      13.438  -3.954   5.125  0.00  0.00    +0.039 A 
ATOM     31  C   UNL     1      12.149  -4.400   4.887  0.00  0.00    +0.130 A 
ATOM     32  F   UNL     1      11.940  -5.465   4.083  0.00  0.00    -0.205 F 
ENDBRANCH  25  26
ENDBRANCH  24  25
ENDBRANCH   4  24
TORSDOF 8
