REMARK  Name = ZINC40784878
REMARK  4 active torsions:
REMARK  status: ('A' for Active; 'I' for Inactive)
REMARK    1  A    between atoms: C_5  and  C_7
REMARK    2  A    between atoms: N_9  and  N_10
REMARK    3  A    between atoms: C_12  and  N_29
REMARK    4  A    between atoms: C_13  and  N_17
REMARK                            x       y       z     vdW  Elec       q    Type
REMARK                         _______ _______ _______ _____ _____    ______ ____
ROOT
ATOM      1  N   UNL     1       0.117  -4.231  -0.097  0.00  0.00    -0.247 N 
ATOM      2  C   UNL     1      -1.067  -4.957  -0.065  0.00  0.00    +0.161 A 
ATOM      3  C   UNL     1      -1.044  -6.353  -0.070  0.00  0.00    +0.107 A 
ATOM      4  C   UNL     1      -2.263  -7.032  -0.036  0.00  0.00    +0.147 A 
ATOM      5  N   UNL     1      -3.392  -6.329  -0.001  0.00  0.00    -0.219 NA
ATOM      6  C   UNL     1      -3.370  -5.012   0.002  0.00  0.00    +0.225 A 
ATOM      7  N   UNL     1      -2.242  -4.332  -0.024  0.00  0.00    -0.217 NA
ATOM      8  H   UNL     1       0.969  -4.694  -0.127  0.00  0.00    +0.172 HD
ENDROOT
BRANCH   4   9
ATOM      9  N   UNL     1      -2.296  -8.422  -0.039  0.00  0.00    -0.311 N 
ATOM     10  C   UNL     1      -2.391  -9.171   1.222  0.00  0.00    +0.125 C 
ATOM     11  C   UNL     1      -3.606 -10.104   1.147  0.00  0.00    +0.125 C 
ATOM     12  N   UNL     1      -3.547 -10.851  -0.118  0.00  0.00    -0.314 N 
ATOM     13  C   UNL     1      -3.451 -10.102  -1.379  0.00  0.00    +0.125 C 
ATOM     14  C   UNL     1      -2.243  -9.168  -1.304  0.00  0.00    +0.125 C 
ATOM     15  C   UNL     1      -3.580 -12.240  -0.121  0.00  0.00    +0.099 A 
ATOM     16  C   UNL     1      -3.809 -12.927   1.067  0.00  0.00    +0.042 A 
ATOM     17  C   UNL     1      -3.839 -14.310   1.049  0.00  0.00    +0.005 A 
ATOM     18  C   UNL     1      -3.640 -14.962  -0.161  0.00  0.00    +0.018 A 
ATOM     19  C   UNL     1      -3.419 -14.217  -1.302  0.00  0.00    +0.084 A 
ATOM     20  N   UNL     1      -3.400 -12.898  -1.256  0.00  0.00    -0.350 N 
ATOM     21  H   UNL     1      -3.247 -12.399  -2.073  0.00  0.00    +0.166 HD
ENDBRANCH   4   9
BRANCH   1  24
ATOM     22  C   UNL     1       1.231  -2.127  -0.118  0.00  0.00    +0.262 C 
ATOM     23  O   UNL     1       2.298  -2.707  -0.155  0.00  0.00    -0.269 OA
ATOM     24  N   UNL     1       0.082  -2.830  -0.086  0.00  0.00    -0.231 N 
ATOM     25  H   UNL     1      -0.770  -2.367  -0.057  0.00  0.00    +0.173 HD
BRANCH  22  30
ATOM     26  C   UNL     1      -0.060   1.399  -0.054  0.00  0.00    +0.001 A 
ATOM     27  C   UNL     1       1.122   2.120  -0.086  0.00  0.00    +0.001 A 
ATOM     28  C   UNL     1       2.338   1.464  -0.128  0.00  0.00    +0.021 A 
ATOM     29  C   UNL     1       2.382   0.083  -0.139  0.00  0.00    +0.053 A 
ATOM     30  C   UNL     1       1.193  -0.649  -0.106  0.00  0.00    +0.056 A 
ATOM     31  C   UNL     1      -0.032   0.021  -0.064  0.00  0.00    +0.014 A 
ATOM     32 CL   UNL     1       3.910  -0.739  -0.192  0.00  0.00    -0.083 Cl
ENDBRANCH  22  30
ENDBRANCH   1  24
BRANCH   3  33
ATOM     33  N   UNL     1       0.172  -7.054  -0.108  0.00  0.00    -0.353 N 
ATOM     34  H   UNL     1       1.008  -6.571  -0.205  0.00  0.00    +0.143 HD
ATOM     35  H   UNL     1       0.177  -8.021  -0.036  0.00  0.00    +0.143 HD
ENDBRANCH   3  33
TORSDOF 4
