REMARK  Name = ZINC39125263
REMARK  6 active torsions:
REMARK  status: ('A' for Active; 'I' for Inactive)
REMARK    1  A    between atoms: C_1  and  N_2
REMARK    2  A    between atoms: C_5  and  N_11
REMARK    3  A    between atoms: C_6  and  N_10
REMARK    4  A    between atoms: N_11  and  C_12
REMARK    5  A    between atoms: C_12  and  C_13
REMARK    6  A    between atoms: C_19  and  C_21
REMARK                            x       y       z     vdW  Elec       q    Type
REMARK                         _______ _______ _______ _____ _____    ______ ____
ROOT
ATOM      1  N   UNL     1      -2.348  -2.802   0.223  0.00  0.00    -0.252 N 
ATOM      2  C   UNL     1      -2.381  -4.120  -0.065  0.00  0.00    +0.325 C 
ATOM      3  O   UNL     1      -3.445  -4.701  -0.127  0.00  0.00    -0.265 OA
ENDROOT
BRANCH   1   8
ATOM      4  C   UNL     1       1.755  -0.948  -1.659  0.00  0.00    +0.157 C 
ATOM      5  N   UNL     1       0.895  -1.243  -0.511  0.00  0.00    -0.263 N 
ATOM      6  C   UNL     1      -0.284  -1.867  -0.704  0.00  0.00    +0.280 A 
ATOM      7  O   UNL     1      -0.633  -2.184  -1.829  0.00  0.00    -0.265 OA
ATOM      8  C   UNL     1      -1.109  -2.150   0.401  0.00  0.00    +0.140 A 
ATOM      9  C   UNL     1      -0.686  -1.779   1.660  0.00  0.00    +0.125 A 
ATOM     10  N   UNL     1       0.526  -1.145   1.802  0.00  0.00    -0.294 N 
ATOM     11  C   UNL     1       1.293  -0.893   0.725  0.00  0.00    +0.331 A 
ATOM     12  O   UNL     1       2.364  -0.336   0.872  0.00  0.00    -0.246 OA
ATOM     13  H   UNL     1       0.832  -0.880   2.684  0.00  0.00    +0.172 HD
BRANCH   9  14
ATOM     14  N   UNL     1      -1.467  -2.040   2.761  0.00  0.00    -0.343 N 
ATOM     15  H   UNL     1      -2.274  -2.570   2.668  0.00  0.00    +0.144 HD
ATOM     16  H   UNL     1      -1.211  -1.694   3.630  0.00  0.00    +0.144 HD
ENDBRANCH   9  14
ENDBRANCH   1   8
BRANCH   2  17
ATOM     17  C   UNL     1      -1.097  -4.872  -0.307  0.00  0.00    +0.470 C 
ATOM     18  F   UNL     1      -1.372  -6.238  -0.428  0.00  0.00    -0.162 F 
ATOM     19  F   UNL     1      -0.503  -4.410  -1.487  0.00  0.00    -0.162 F 
ATOM     20  F   UNL     1      -0.225  -4.664   0.767  0.00  0.00    -0.162 F 
ENDBRANCH   2  17
BRANCH   1  21
ATOM     21  C   UNL     1      -3.597  -2.048   0.349  0.00  0.00    +0.149 C 
BRANCH  21  22
ATOM     22  C   UNL     1      -4.003  -1.517  -1.002  0.00  0.00    -0.030 A 
ATOM     23  C   UNL     1      -3.486  -0.318  -1.456  0.00  0.00    +0.005 A 
ATOM     24  C   UNL     1      -3.858   0.169  -2.695  0.00  0.00    +0.000 A 
ATOM     25  C   UNL     1      -4.746  -0.543  -3.480  0.00  0.00    +0.000 A 
ATOM     26  C   UNL     1      -5.262  -1.742  -3.026  0.00  0.00    +0.000 A 
ATOM     27  C   UNL     1      -4.886  -2.231  -1.788  0.00  0.00    +0.005 A 
ENDBRANCH  21  22
ENDBRANCH   1  21
TORSDOF 5
