REMARK  Name = ZINC44357055
REMARK  6 active torsions:
REMARK  status: ('A' for Active; 'I' for Inactive)
REMARK    1  A    between atoms: C_1  and  C_2
REMARK    2  A    between atoms: C_9  and  N_14
REMARK    3  A    between atoms: C_10  and  C_11
REMARK    4  A    between atoms: C_15  and  C_17
REMARK    5  A    between atoms: N_22  and  S_23
REMARK    6  A    between atoms: S_23  and  C_26
REMARK                            x       y       z     vdW  Elec       q    Type
REMARK                         _______ _______ _______ _____ _____    ______ ____
ROOT
ATOM      1  C   UNL     1      -0.798   1.952   1.668  0.00  0.00    +0.008 C 
ATOM      2  C   UNL     1      -0.502   0.495   1.306  0.00  0.00    -0.009 C 
ATOM      3  C   UNL     1       0.584   0.445   0.228  0.00  0.00    +0.008 C 
ATOM      4  C   UNL     1       0.713  -0.980  -0.317  0.00  0.00    +0.037 C 
ATOM      5  C   UNL     1       0.889  -1.935   0.855  0.00  0.00    -0.023 A 
ATOM      6  C   UNL     1       0.559  -1.571   2.113  0.00  0.00    -0.004 A 
ATOM      7  S   UNL     1       0.936  -2.988   3.103  0.00  0.00    -0.077 S 
ATOM      8  C   UNL     1       1.506  -4.026   1.912  0.00  0.00    +0.084 A 
ATOM      9  C   UNL     1       1.410  -3.286   0.744  0.00  0.00    +0.068 A 
ATOM     10  C   UNL     1      -0.005  -0.255   2.551  0.00  0.00    +0.046 C 
ENDROOT
BRANCH   9  11
ATOM     11  C   UNL     1       1.817  -3.845  -0.549  0.00  0.00    +0.244 C 
ATOM     12  O   UNL     1       2.963  -3.712  -0.936  0.00  0.00    -0.270 OA
ATOM     13  N   UNL     1       0.921  -4.505  -1.310  0.00  0.00    -0.325 N 
ATOM     14  H   UNL     1       0.008  -4.612  -1.001  0.00  0.00    +0.145 HD
ATOM     15  H   UNL     1       1.190  -4.875  -2.165  0.00  0.00    +0.145 HD
ENDBRANCH   9  11
BRANCH   8  16
ATOM     16  N   UNL     1       1.968  -5.324   2.064  0.00  0.00    -0.278 N 
ATOM     17  C   UNL     1       1.993  -5.893   3.285  0.00  0.00    +0.236 C 
ATOM     18  O   UNL     1       1.611  -5.269   4.253  0.00  0.00    -0.274 OA
ATOM     19  H   UNL     1       2.274  -5.824   1.290  0.00  0.00    +0.155 HD
BRANCH  17  20
ATOM     20  C   UNL     1       2.495  -7.304   3.450  0.00  0.00    +0.165 C 
ATOM     21  C   UNL     1       1.329  -8.300   3.273  0.00  0.00    +0.031 C 
ATOM     22  C   UNL     1       1.633  -9.384   4.341  0.00  0.00    +0.019 C 
ATOM     23  C   UNL     1       2.233  -8.532   5.487  0.00  0.00    +0.110 C 
ATOM     24  N   UNL     1       3.030  -7.490   4.807  0.00  0.00    -0.170 NA
BRANCH  24  25
ATOM     25  S   UNL     1       4.310  -6.668   5.460  0.00  0.00    +0.030 S 
ATOM     26  O   UNL     1       4.432  -5.496   4.666  0.00  0.00    -0.158 OA
ATOM     27  O   UNL     1       4.012  -6.576   6.847  0.00  0.00    -0.158 OA
ATOM     28  C   UNL     1       5.742  -7.751   5.199  0.00  0.00    +0.215 C 
ENDBRANCH  24  25
ENDBRANCH  17  20
ENDBRANCH   8  16
TORSDOF 4
