REMARK  Name = ZINC40733011
REMARK  7 active torsions:
REMARK  status: ('A' for Active; 'I' for Inactive)
REMARK    1  A    between atoms: C_1  and  C_2
REMARK    2  A    between atoms: C_5  and  S_8
REMARK    3  A    between atoms: S_8  and  N_11
REMARK    4  A    between atoms: N_11  and  N_12
REMARK    5  A    between atoms: C_14  and  N_26
REMARK    6  A    between atoms: C_15  and  N_19
REMARK    7  A    between atoms: C_22  and  C_25
REMARK                            x       y       z     vdW  Elec       q    Type
REMARK                         _______ _______ _______ _____ _____    ______ ____
ROOT
ATOM      1  N   UNL     1       2.421  -4.624   1.095  0.00  0.00    -0.244 N 
ATOM      2  C   UNL     1       3.166  -5.590   1.760  0.00  0.00    +0.159 A 
ATOM      3  C   UNL     1       4.031  -5.230   2.795  0.00  0.00    +0.107 A 
ATOM      4  C   UNL     1       4.755  -6.240   3.430  0.00  0.00    +0.147 A 
ATOM      5  N   UNL     1       4.595  -7.499   3.028  0.00  0.00    -0.219 NA
ATOM      6  C   UNL     1       3.768  -7.796   2.046  0.00  0.00    +0.225 A 
ATOM      7  N   UNL     1       3.062  -6.874   1.424  0.00  0.00    -0.218 NA
ATOM      8  H   UNL     1       2.502  -3.691   1.346  0.00  0.00    +0.169 HD
ENDROOT
BRANCH   4   9
ATOM      9  N   UNL     1       5.630  -5.936   4.466  0.00  0.00    -0.314 N 
ATOM     10  C   UNL     1       7.018  -5.545   4.183  0.00  0.00    +0.107 C 
ATOM     11  C   UNL     1       7.959  -6.450   4.985  0.00  0.00    +0.022 C 
ATOM     12  C   UNL     1       7.578  -6.390   6.466  0.00  0.00    -0.011 C 
ATOM     13  C   UNL     1       6.146  -6.900   6.648  0.00  0.00    +0.022 C 
ATOM     14  C   UNL     1       5.184  -5.994   5.864  0.00  0.00    +0.107 C 
ATOM     15  C   UNL     1       8.537  -7.266   7.275  0.00  0.00    +0.007 C 
ENDBRANCH   4   9
BRANCH   3  16
ATOM     16  N   UNL     1       4.168  -3.888   3.186  0.00  0.00    -0.353 N 
ATOM     17  H   UNL     1       3.729  -3.188   2.679  0.00  0.00    +0.143 HD
ATOM     18  H   UNL     1       4.702  -3.662   3.964  0.00  0.00    +0.143 HD
ENDBRANCH   3  16
BRANCH   1  19
ATOM     19  N   UNL     1       1.552  -4.998   0.061  0.00  0.00    -0.109 NA
ATOM     20  H   UNL     1       1.885  -5.511  -0.692  0.00  0.00    +0.172 HD
BRANCH  19  21
ATOM     21  S   UNL     1      -0.046  -4.566   0.126  0.00  0.00    +0.074 S 
ATOM     22  O   UNL     1      -0.541  -5.025   1.376  0.00  0.00    -0.152 OA
ATOM     23  O   UNL     1      -0.623  -4.957  -1.113  0.00  0.00    -0.152 OA
BRANCH  21  28
ATOM     24  C   UNL     1      -0.260   1.462   0.296  0.00  0.00    +0.044 C 
ATOM     25  C   UNL     1      -0.206  -0.044   0.253  0.00  0.00    -0.050 A 
ATOM     26  C   UNL     1      -0.220  -0.702  -0.962  0.00  0.00    +0.005 A 
ATOM     27  C   UNL     1      -0.171  -2.083  -1.001  0.00  0.00    +0.029 A 
ATOM     28  C   UNL     1      -0.107  -2.805   0.175  0.00  0.00    +0.107 A 
ATOM     29  C   UNL     1      -0.092  -2.147   1.391  0.00  0.00    +0.029 A 
ATOM     30  C   UNL     1      -0.137  -0.766   1.430  0.00  0.00    +0.005 A 
ENDBRANCH  21  28
ENDBRANCH  19  21
ENDBRANCH   1  19
TORSDOF 5
