REMARK  Name = ZINC16273123
REMARK  3 active torsions:
REMARK  status: ('A' for Active; 'I' for Inactive)
REMARK    1  A    between atoms: N_11  and  C_12
REMARK    2  A    between atoms: C_12  and  N_14
REMARK    3  A    between atoms: N_14  and  C_15
REMARK                            x       y       z     vdW  Elec       q    Type
REMARK                         _______ _______ _______ _____ _____    ______ ____
ROOT
ATOM      1  C   UNL     1       0.001   1.408   0.071  0.00  0.00    +0.002 A 
ATOM      2  C   UNL     1       1.190   2.113   0.066  0.00  0.00    +0.002 A 
ATOM      3  C   UNL     1       2.398   1.440   0.033  0.00  0.00    +0.025 A 
ATOM      4  C   UNL     1       2.412   0.057   0.003  0.00  0.00    +0.057 A 
ATOM      5  C   UNL     1       1.213  -0.658   0.004  0.00  0.00    +0.055 A 
ATOM      6  C   UNL     1       0.008   0.025   0.041  0.00  0.00    +0.025 A 
ATOM      7  N   UNL     1       1.242  -2.056  -0.038  0.00  0.00    -0.283 N 
ATOM      8  C   UNL     1       2.383  -2.728   0.207  0.00  0.00    +0.235 C 
ATOM      9  O   UNL     1       2.396  -3.938   0.123  0.00  0.00    -0.274 OA
ATOM     10  C   UNL     1       3.645  -1.994   0.583  0.00  0.00    +0.208 C 
ATOM     11  N   UNL     1       3.621  -0.656  -0.025  0.00  0.00    -0.272 N 
ATOM     12  H   UNL     1       0.432  -2.547  -0.245  0.00  0.00    +0.155 HD
ENDROOT
BRANCH  11  13
ATOM     13  C   UNL     1       4.725  -0.130  -0.592  0.00  0.00    +0.138 C 
ATOM     14  S   UNL     1       4.630   1.360  -1.430  0.00  0.00    -0.018 S 
BRANCH  13  15
ATOM     15  N   UNL     1       5.904  -0.777  -0.499  0.00  0.00    -0.323 N 
ATOM     16  H   UNL     1       5.944  -1.654  -0.088  0.00  0.00    +0.148 HD
BRANCH  15  17
ATOM     17  C   UNL     1       7.124  -0.154  -1.019  0.00  0.00    +0.075 C 
ATOM     18  C   UNL     1       7.310  -0.500  -2.514  0.00  0.00    +0.026 C 
ATOM     19  C   UNL     1       8.662  -1.275  -2.574  0.00  0.00    -0.009 C 
ATOM     20  C   UNL     1       9.747  -0.188  -2.303  0.00  0.00    +0.004 C 
ATOM     21  C   UNL     1       9.571   0.176  -0.811  0.00  0.00    +0.005 C 
ATOM     22  C   UNL     1       8.381  -0.750  -0.314  0.00  0.00    +0.010 C 
ATOM     23  C   UNL     1       8.627  -2.028  -1.198  0.00  0.00    +0.009 C 
ENDBRANCH  15  17
ENDBRANCH  13  15
ENDBRANCH  11  13
TORSDOF 3
