REMARK  Name = ZINC39532073
REMARK  8 active torsions:
REMARK  status: ('A' for Active; 'I' for Inactive)
REMARK    1  A    between atoms: C_1  and  C_2
REMARK    2  A    between atoms: C_2  and  C_3
REMARK    3  A    between atoms: C_6  and  C_9
REMARK    4  A    between atoms: C_9  and  C_11
REMARK    5  A    between atoms: C_9  and  N_14
REMARK    6  A    between atoms: C_11  and  N_12
REMARK    7  A    between atoms: C_18  and  C_21
REMARK    8  A    between atoms: C_21  and  C_22
REMARK                            x       y       z     vdW  Elec       q    Type
REMARK                         _______ _______ _______ _____ _____    ______ ____
ROOT
ATOM      1  N   UNL     1      -5.606  -2.955  -0.994  0.00  0.00    -0.297 NA
ATOM      2  C   UNL     1      -5.262  -2.354  -2.290  0.00  0.00    +0.066 C 
ATOM      3  C   UNL     1      -5.385  -3.412  -3.389  0.00  0.00    -0.067 C 
ATOM      4  N   UNL     1      -6.759  -3.930  -3.419  0.00  0.00    +0.383 N 
ATOM      5  C   UNL     1      -7.079  -4.549  -2.126  0.00  0.00    -0.053 C 
ATOM      6  C   UNL     1      -6.971  -3.500  -1.017  0.00  0.00    +0.069 C 
ATOM      7  H   UNL     1      -7.400  -3.171  -3.596  0.00  0.00    -0.085 HD
ATOM      8  H   UNL     1      -6.843  -4.619  -4.151  0.00  0.00    -0.085 HD
ENDROOT
BRANCH   1   9
ATOM      9  C   UNL     1      -5.445  -1.983   0.096  0.00  0.00    +0.101 C 
BRANCH   9  13
ATOM     10  C   UNL     1      -1.372  -1.948   1.382  0.00  0.00    -0.048 A 
ATOM     11  C   UNL     1      -2.362  -1.451   2.209  0.00  0.00    +0.004 A 
ATOM     12  C   UNL     1      -3.680  -1.462   1.792  0.00  0.00    +0.005 A 
ATOM     13  C   UNL     1      -4.008  -1.970   0.549  0.00  0.00    -0.029 A 
ATOM     14  C   UNL     1      -3.018  -2.466  -0.278  0.00  0.00    +0.005 A 
ATOM     15  C   UNL     1      -1.699  -2.451   0.137  0.00  0.00    +0.004 A 
BRANCH  10  17
ATOM     16  C   UNL     1       0.722  -0.619   1.414  0.00  0.00    +0.009 C 
ATOM     17  C   UNL     1       0.065  -1.935   1.836  0.00  0.00    +0.032 C 
ENDBRANCH  10  17
ENDBRANCH   9  13
BRANCH   9  18
ATOM     18  C   UNL     1      -5.836  -0.590  -0.401  0.00  0.00    +0.117 C 
BRANCH  18  19
ATOM     19  N   UNL     1      -7.239  -0.602  -0.838  0.00  0.00    -0.254 NA
ATOM     20 BR   UNL     1      -7.823   1.108  -1.236  0.00  0.00    +0.010 Br
ATOM     21  H   UNL     1      -7.367  -1.220  -1.624  0.00  0.00    +0.135 HD
ENDBRANCH  18  19
ENDBRANCH   9  18
ENDBRANCH   1   9
BRANCH   5  22
ATOM     22  C   UNL     1      -8.505  -5.103  -2.165  0.00  0.00    +0.020 C 
BRANCH  22  23
ATOM     23  C   UNL     1      -8.581  -6.222  -3.173  0.00  0.00    -0.049 A 
ATOM     24  C   UNL     1      -8.894  -5.945  -4.490  0.00  0.00    +0.003 A 
ATOM     25  C   UNL     1      -8.964  -6.971  -5.414  0.00  0.00    +0.000 A 
ATOM     26  C   UNL     1      -8.720  -8.273  -5.021  0.00  0.00    +0.000 A 
ATOM     27  C   UNL     1      -8.407  -8.550  -3.703  0.00  0.00    +0.000 A 
ATOM     28  C   UNL     1      -8.333  -7.524  -2.780  0.00  0.00    +0.003 A 
ENDBRANCH  22  23
ENDBRANCH   5  22
TORSDOF 7
