REMARK  Name = ZINC24671676
REMARK  13 active torsions:
REMARK  status: ('A' for Active; 'I' for Inactive)
REMARK    1  A    between atoms: C_1  and  C_2
REMARK    2  A    between atoms: C_2  and  N_3
REMARK    3  A    between atoms: N_3  and  C_4
REMARK    4  A    between atoms: N_3  and  C_7
REMARK    5  A    between atoms: C_4  and  C_5
REMARK    6  A    between atoms: C_5  and  O_6
REMARK    7  A    between atoms: C_7  and  C_8
REMARK    8  A    between atoms: N_10  and  C_11
REMARK    9  A    between atoms: N_10  and  C_13
REMARK   10  A    between atoms: C_11  and  C_12
REMARK   11  A    between atoms: C_14  and  N_29
REMARK   12  A    between atoms: N_15  and  C_22
REMARK   13  A    between atoms: C_22  and  C_23
REMARK                            x       y       z     vdW  Elec       q    Type
REMARK                         _______ _______ _______ _____ _____    ______ ____
ROOT
ATOM      1  C   UNL     1      -0.894  -2.087   0.258  0.00  0.00    +0.140 A 
ATOM      2  C   UNL     1      -0.322  -2.885  -0.711  0.00  0.00    +0.128 A 
ATOM      3  N   UNL     1      -0.318  -4.250  -0.540  0.00  0.00    -0.276 N 
ATOM      4  C   UNL     1      -0.876  -4.801   0.553  0.00  0.00    +0.331 A 
ATOM      5  O   UNL     1      -0.868  -6.010   0.683  0.00  0.00    -0.246 OA
ATOM      6  N   UNL     1      -1.442  -4.039   1.506  0.00  0.00    -0.273 N 
ATOM      7  H   UNL     1      -1.892  -4.510   2.392  0.00  0.00    +0.173 HD
ATOM      8  C   UNL     1      -1.468  -2.696   1.390  0.00  0.00    +0.277 A 
ATOM      9  O   UNL     1      -1.984  -2.015   2.259  0.00  0.00    -0.266 OA
ENDROOT
BRANCH   1  12
ATOM     10  C   UNL     1       0.250   0.010   0.142  0.00  0.00    +0.203 C 
ATOM     11  O   UNL     1       1.309  -0.580   0.196  0.00  0.00    -0.277 OA
ATOM     12  N   UNL     1      -0.908  -0.683   0.115  0.00  0.00    -0.266 N 
BRANCH  12  13
ATOM     13  C   UNL     1      -2.179   0.022  -0.064  0.00  0.00    +0.110 C 
ATOM     14  C   UNL     1      -2.558   0.025  -1.546  0.00  0.00    +0.025 C 
ENDBRANCH  12  13
BRANCH  10  15
ATOM     15  C   UNL     1       0.228   1.516   0.105  0.00  0.00    +0.019 C 
BRANCH  15  16
ATOM     16  N   UNL     1       1.597   2.030   0.238  0.00  0.00    +0.387 N 
ATOM     17  H   UNL     1       2.111   1.427   1.002  0.00  0.00    -0.081 HD
BRANCH  16  19
ATOM     18  C   UNL     1       1.276   3.476   2.188  0.00  0.00    -0.017 C 
ATOM     19  C   UNL     1       1.594   3.426   0.693  0.00  0.00    -0.081 C 
ENDBRANCH  16  19
BRANCH  16  20
ATOM     20  C   UNL     1       2.338   1.888  -1.022  0.00  0.00    -0.050 C 
BRANCH  20  21
ATOM     21  C   UNL     1       3.817   2.196  -0.782  0.00  0.00    +0.137 C 
BRANCH  21  22
ATOM     22  O   UNL     1       4.372   1.214   0.095  0.00  0.00    -0.397 OA
ATOM     23  H   UNL     1       5.432   1.271   0.384  0.00  0.00    +0.209 HD
ENDBRANCH  21  22
ENDBRANCH  20  21
ENDBRANCH  16  20
ENDBRANCH  15  16
ENDBRANCH  10  15
ENDBRANCH   1  12
BRANCH   2  24
ATOM     24  N   UNL     1       0.242  -2.324  -1.831  0.00  0.00    -0.343 N 
ATOM     25  H   UNL     1       0.696  -2.966  -2.600  0.00  0.00    +0.144 HD
ATOM     26  H   UNL     1       0.239  -1.231  -1.959  0.00  0.00    +0.144 HD
ENDBRANCH   2  24
BRANCH   3  27
ATOM     27  C   UNL     1       0.291  -5.110  -1.558  0.00  0.00    +0.163 C 
BRANCH  27  28
ATOM     28  C   UNL     1      -0.747  -5.486  -2.584  0.00  0.00    -0.028 A 
ATOM     29  C   UNL     1      -1.506  -6.629  -2.412  0.00  0.00    +0.005 A 
ATOM     30  C   UNL     1      -2.462  -6.971  -3.351  0.00  0.00    +0.000 A 
ATOM     31  C   UNL     1      -2.651  -6.177  -4.466  0.00  0.00    +0.000 A 
ATOM     32  C   UNL     1      -1.888  -5.037  -4.641  0.00  0.00    +0.000 A 
ATOM     33  C   UNL     1      -0.936  -4.692  -3.699  0.00  0.00    +0.005 A 
ENDBRANCH  27  28
ENDBRANCH   3  27
TORSDOF 11
