REMARK  Name = ZINC65743029
REMARK  16 active torsions:
REMARK  status: ('A' for Active; 'I' for Inactive)
REMARK    1  A    between atoms: C_1  and  C_2
REMARK    2  A    between atoms: C_2  and  C_3
REMARK    3  A    between atoms: C_2  and  C_4
REMARK    4  A    between atoms: C_2  and  C_23
REMARK    5  A    between atoms: C_4  and  O_5
REMARK    6  A    between atoms: O_5  and  C_6
REMARK    7  A    between atoms: C_8  and  O_22
REMARK    8  A    between atoms: C_10  and  O_21
REMARK    9  A    between atoms: C_12  and  O_20
REMARK   10  A    between atoms: C_14  and  C_17
REMARK   11  A    between atoms: C_24  and  C_25
REMARK   12  A    between atoms: C_26  and  C_27
REMARK   13  A    between atoms: C_27  and  N_28
REMARK   14  A    between atoms: N_28  and  C_29
REMARK   15  A    between atoms: N_28  and  C_30
REMARK   16  A    between atoms: C_30  and  C_31
REMARK                            x       y       z     vdW  Elec       q    Type
REMARK                         _______ _______ _______ _____ _____    ______ ____
ROOT
ATOM      1  C   UNL     1      -0.019   1.526   0.010  0.00  0.00    +0.027 C 
ATOM      2  C   UNL     1       0.002  -0.004   0.002  0.00  0.00    +0.050 C 
ATOM      3  C   UNL     1       0.742  -0.511   1.242  0.00  0.00    +0.027 C 
ENDROOT
BRANCH   2   4
ATOM      4  C   UNL     1       0.691  -0.479  -1.209  0.00  0.00    -0.089 C 
ATOM      5  C   UNL     1       1.241  -0.857  -2.175  0.00  0.00    -0.074 C 
BRANCH   5   6
ATOM      6  C   UNL     1       1.911  -1.319  -3.353  0.00  0.00    +0.054 C 
ATOM      7  C   UNL     1       2.048  -2.623  -3.572  0.00  0.00    -0.037 C 
BRANCH   7   8
ATOM      8  C   UNL     1       2.753  -3.109  -4.812  0.00  0.00    -0.050 C 
BRANCH   8   9
ATOM      9  N   UNL     1       3.850  -4.008  -4.430  0.00  0.00    +0.383 N 
ATOM     10  C   UNL     1       4.862  -3.255  -3.678  0.00  0.00    -0.095 C 
ATOM     11  H   UNL     1       3.489  -4.754  -3.854  0.00  0.00    -0.081 HD
BRANCH   9  12
ATOM     12  C   UNL     1       4.461  -4.575  -5.639  0.00  0.00    -0.042 C 
BRANCH  12  13
ATOM     13  C   UNL     1       5.504  -5.590  -5.247  0.00  0.00    -0.056 A 
ATOM     14  C   UNL     1       6.822  -5.251  -5.244  0.00  0.00    +0.002 A 
ATOM     15  C   UNL     1       7.800  -6.176  -4.884  0.00  0.00    +0.001 A 
ATOM     16  C   UNL     1       7.466  -7.446  -4.525  0.00  0.00    +0.008 A 
ATOM     17  C   UNL     1       6.115  -7.833  -4.515  0.00  0.00    -0.018 A 
ATOM     18  C   UNL     1       5.120  -6.890  -4.876  0.00  0.00    -0.017 A 
ATOM     19  C   UNL     1       3.768  -7.275  -4.861  0.00  0.00    +0.009 A 
ATOM     20  C   UNL     1       3.434  -8.543  -4.495  0.00  0.00    +0.001 A 
ATOM     21  C   UNL     1       4.412  -9.468  -4.135  0.00  0.00    +0.001 A 
ATOM     22  C   UNL     1       5.731  -9.134  -4.151  0.00  0.00    +0.008 A 
ENDBRANCH  12  13
ENDBRANCH   9  12
ENDBRANCH   8   9
ENDBRANCH   7   8
ENDBRANCH   5   6
ENDBRANCH   2   4
BRANCH   2  23
ATOM     23  C   UNL     1      -1.433  -0.534   0.013  0.00  0.00    +0.182 C 
BRANCH  23  24
ATOM     24  O   UNL     1      -2.102  -0.073   1.189  0.00  0.00    -0.347 OA
BRANCH  24  25
ATOM     25  C   UNL     1      -3.457  -0.513   1.297  0.00  0.00    +0.282 C 
ATOM     26  C   UNL     1      -4.146   0.230   2.445  0.00  0.00    +0.201 C 
ATOM     27  C   UNL     1      -5.579  -0.291   2.593  0.00  0.00    +0.179 C 
ATOM     28  C   UNL     1      -5.539  -1.805   2.822  0.00  0.00    +0.185 C 
ATOM     29  C   UNL     1      -4.796  -2.470   1.660  0.00  0.00    +0.265 C 
ATOM     30  O   UNL     1      -3.482  -1.918   1.558  0.00  0.00    -0.331 OA
BRANCH  29  31
ATOM     31  C   UNL     1      -4.702  -3.953   1.907  0.00  0.00    +0.387 C 
ATOM     32  O   UNL     1      -5.714  -4.632   1.935  0.00  0.00    -0.243 OA
ATOM     33  O   UNL     1      -3.613  -4.474   2.078  0.00  0.00    -0.243 OA
ENDBRANCH  29  31
BRANCH  28  34
ATOM     34  O   UNL     1      -4.859  -2.085   4.047  0.00  0.00    -0.386 OA
ATOM     35  H   UNL     1      -4.796  -3.027   4.256  0.00  0.00    +0.210 HD
ENDBRANCH  28  34
BRANCH  27  36
ATOM     36  O   UNL     1      -6.206   0.347   3.708  0.00  0.00    -0.386 OA
ATOM     37  H   UNL     1      -7.118   0.064   3.861  0.00  0.00    +0.210 HD
ENDBRANCH  27  36
BRANCH  26  38
ATOM     38  O   UNL     1      -4.172   1.630   2.159  0.00  0.00    -0.384 OA
ATOM     39  H   UNL     1      -3.297   2.025   2.048  0.00  0.00    +0.210 HD
ENDBRANCH  26  38
ENDBRANCH  24  25
ENDBRANCH  23  24
ENDBRANCH   2  23
TORSDOF 13
