REMARK  Name = ZINC67624088
REMARK  8 active torsions:
REMARK  status: ('A' for Active; 'I' for Inactive)
REMARK    1  A    between atoms: C_1  and  C_2
REMARK    2  A    between atoms: C_2  and  C_4
REMARK    3  A    between atoms: C_2  and  N_15
REMARK    4  A    between atoms: N_18  and  C_19
REMARK    5  A    between atoms: C_19  and  C_20
REMARK    6  A    between atoms: C_20  and  C_21
REMARK    7  A    between atoms: C_21  and  N_22
REMARK    8  A    between atoms: N_22  and  C_23
REMARK                            x       y       z     vdW  Elec       q    Type
REMARK                         _______ _______ _______ _____ _____    ______ ____
ROOT
ATOM      1  N   UNL     1      -1.372  -0.511   0.012  0.00  0.00    -0.293 N 
ATOM      2  C   UNL     1      -2.051  -0.643  -1.145  0.00  0.00    +0.300 C 
ATOM      3  O   UNL     1      -1.522  -0.341  -2.197  0.00  0.00    -0.253 OA
ATOM      4  N   UNL     1      -3.315  -1.109  -1.135  0.00  0.00    -0.299 N 
ATOM      5  H   UNL     1      -1.794  -0.752   0.852  0.00  0.00    +0.151 HD
ATOM      6  H   UNL     1      -3.737  -1.350  -0.295  0.00  0.00    +0.150 HD
ENDROOT
BRANCH   1   8
ATOM      7  C   UNL     1      -0.019   1.526   0.010  0.00  0.00    +0.033 C 
ATOM      8  C   UNL     1       0.002  -0.004   0.002  0.00  0.00    +0.102 C 
BRANCH   8   9
ATOM      9  C   UNL     1       0.731  -0.503   1.223  0.00  0.00    -0.025 A 
ATOM     10  C   UNL     1       0.079  -0.558   2.441  0.00  0.00    +0.009 A 
ATOM     11  C   UNL     1       0.740  -1.016   3.566  0.00  0.00    +0.048 A 
ATOM     12  C   UNL     1       2.060  -1.421   3.473  0.00  0.00    +0.142 A 
ATOM     13  C   UNL     1       2.718  -1.365   2.245  0.00  0.00    +0.076 A 
ATOM     14  C   UNL     1       2.048  -0.911   1.121  0.00  0.00    +0.032 A 
ATOM     15  N   UNL     1       4.056  -1.776   2.165  0.00  0.00    -0.280 N 
ATOM     16  C   UNL     1       4.580  -2.501   3.177  0.00  0.00    +0.255 C 
ATOM     17  O   UNL     1       5.744  -2.841   3.144  0.00  0.00    -0.272 OA
ATOM     18  C   UNL     1       3.712  -2.886   4.348  0.00  0.00    +0.325 C 
ATOM     19  O   UNL     1       2.726  -1.875   4.568  0.00  0.00    -0.481 OA
ATOM     20  H   UNL     1       4.597  -1.543   1.394  0.00  0.00    +0.155 HD
ENDBRANCH   8   9
ENDBRANCH   1   8
BRANCH   4  21
ATOM     21  C   UNL     1      -4.053  -1.252  -2.393  0.00  0.00    +0.107 C 
BRANCH  21  22
ATOM     22  C   UNL     1      -5.453  -1.797  -2.104  0.00  0.00    +0.037 C 
BRANCH  22  23
ATOM     23  C   UNL     1      -6.223  -1.947  -3.417  0.00  0.00    +0.103 C 
BRANCH  23  24
ATOM     24  N   UNL     1      -7.564  -2.469  -3.141  0.00  0.00    -0.344 N 
ATOM     25  H   UNL     1      -7.831  -2.660  -2.228  0.00  0.00    +0.146 HD
BRANCH  24  26
ATOM     26  C   UNL     1      -8.457  -2.690  -4.191  0.00  0.00    +0.027 A 
ATOM     27  C   UNL     1      -8.075  -2.422  -5.499  0.00  0.00    +0.023 A 
ATOM     28  C   UNL     1      -8.960  -2.643  -6.535  0.00  0.00    +0.002 A 
ATOM     29  C   UNL     1     -10.228  -3.130  -6.272  0.00  0.00    +0.000 A 
ATOM     30  C   UNL     1     -10.612  -3.398  -4.971  0.00  0.00    +0.002 A 
ATOM     31  C   UNL     1      -9.729  -3.185  -3.930  0.00  0.00    +0.023 A 
ENDBRANCH  24  26
ENDBRANCH  23  24
ENDBRANCH  22  23
ENDBRANCH  21  22
ENDBRANCH   4  21
TORSDOF 7
