REMARK  Name = ZINC38965794
REMARK  9 active torsions:
REMARK  status: ('A' for Active; 'I' for Inactive)
REMARK    1  A    between atoms: C_1  and  O_2
REMARK    2  A    between atoms: O_2  and  C_3
REMARK    3  A    between atoms: C_9  and  C_15
REMARK    4  A    between atoms: C_17  and  N_26
REMARK    5  A    between atoms: N_26  and  C_27
REMARK    6  A    between atoms: C_30  and  O_35
REMARK    7  A    between atoms: C_31  and  O_33
REMARK    8  A    between atoms: O_33  and  C_34
REMARK    9  A    between atoms: O_35  and  C_36
REMARK                            x       y       z     vdW  Elec       q    Type
REMARK                         _______ _______ _______ _____ _____    ______ ____
ROOT
ATOM      1  C   UNL     1      -0.019  -4.605  -2.411  0.00  0.00    +0.135 C 
ATOM      2  C   UNL     1      -0.051  -6.139  -2.536  0.00  0.00    +0.188 C 
ATOM      3  N   UNL     1      -0.652  -6.578  -1.265  0.00  0.00    -0.272 N 
ATOM      4  C   UNL     1      -0.931  -7.833  -0.808  0.00  0.00    +0.078 C 
ATOM      5  C   UNL     1      -1.492  -8.020   0.404  0.00  0.00    +0.015 C 
ATOM      6  C   UNL     1      -1.796  -6.914   1.216  0.00  0.00    +0.005 C 
ATOM      7  C   UNL     1      -1.526  -5.661   0.778  0.00  0.00    +0.042 C 
ATOM      8  C   UNL     1      -0.934  -5.474  -0.504  0.00  0.00    +0.100 C 
ATOM      9  N   UNL     1      -0.604  -4.340  -1.093  0.00  0.00    -0.366 N 
ATOM     10  H   UNL     1      -0.729  -3.458  -0.710  0.00  0.00    +0.161 HD
ENDROOT
BRANCH   1  17
ATOM     11  C   UNL     1       1.785  -3.874  -6.234  0.00  0.00    +0.120 A 
ATOM     12  C   UNL     1       2.922  -4.650  -6.438  0.00  0.00    +0.046 A 
ATOM     13  C   UNL     1       3.562  -5.234  -5.381  0.00  0.00    +0.013 A 
ATOM     14  C   UNL     1       3.067  -5.049  -4.084  0.00  0.00    -0.005 A 
ATOM     15  C   UNL     1       1.917  -4.263  -3.889  0.00  0.00    -0.022 A 
ATOM     16  C   UNL     1       1.290  -3.681  -4.945  0.00  0.00    +0.050 A 
ATOM     17  C   UNL     1       1.420  -4.091  -2.472  0.00  0.00    +0.133 C 
ATOM     18  C   UNL     1       2.212  -4.787  -1.384  0.00  0.00    +0.246 C 
ATOM     19  O   UNL     1       1.868  -4.692  -0.223  0.00  0.00    -0.273 OA
ATOM     20  N   UNL     1       3.289  -5.506  -1.708  0.00  0.00    -0.188 NA
ATOM     21  C   UNL     1       3.723  -5.658  -2.930  0.00  0.00    +0.109 C 
BRANCH  11  23
ATOM     22  C   UNL     1       1.719  -3.539  -8.584  0.00  0.00    +0.277 C 
ATOM     23  O   UNL     1       1.159  -3.300  -7.291  0.00  0.00    -0.495 OA
ENDBRANCH  11  23
ENDBRANCH   1  17
BRANCH   2  24
ATOM     24  N   UNL     1      -0.882  -6.547  -3.671  0.00  0.00    -0.324 N 
ATOM     25  H   UNL     1      -1.740  -6.120  -3.822  0.00  0.00    +0.148 HD
BRANCH  24  26
ATOM     26  C   UNL     1      -0.439  -7.553  -4.538  0.00  0.00    +0.032 A 
ATOM     27  C   UNL     1       0.707  -8.275  -4.234  0.00  0.00    +0.027 A 
ATOM     28  C   UNL     1       1.147  -9.269  -5.089  0.00  0.00    +0.051 A 
ATOM     29  C   UNL     1       0.444  -9.545  -6.251  0.00  0.00    +0.162 A 
ATOM     30  C   UNL     1      -0.704  -8.822  -6.558  0.00  0.00    +0.163 A 
ATOM     31  C   UNL     1      -1.148  -7.831  -5.699  0.00  0.00    +0.072 A 
BRANCH  30  32
ATOM     32  O   UNL     1      -1.393  -9.093  -7.699  0.00  0.00    -0.491 OA
ATOM     33  C   UNL     1      -2.563  -8.312  -7.951  0.00  0.00    +0.277 C 
ENDBRANCH  30  32
BRANCH  29  34
ATOM     34  O   UNL     1       0.878 -10.524  -7.091  0.00  0.00    -0.491 OA
ATOM     35  C   UNL     1       2.064 -11.225  -6.713  0.00  0.00    +0.277 C 
ENDBRANCH  29  34
ENDBRANCH  24  26
ENDBRANCH   2  24
TORSDOF 6
