REMARK  Name = ZINC59806330
REMARK  9 active torsions:
REMARK  status: ('A' for Active; 'I' for Inactive)
REMARK    1  A    between atoms: C_1  and  C_2
REMARK    2  A    between atoms: C_15  and  C_17
REMARK    3  A    between atoms: C_17  and  N_18
REMARK    4  A    between atoms: N_18  and  C_19
REMARK    5  A    between atoms: C_22  and  C_26
REMARK    6  A    between atoms: N_28  and  C_29
REMARK    7  A    between atoms: C_29  and  C_30
REMARK    8  A    between atoms: C_30  and  C_31
REMARK    9  A    between atoms: C_30  and  C_32
REMARK                            x       y       z     vdW  Elec       q    Type
REMARK                         _______ _______ _______ _____ _____    ______ ____
ROOT
ATOM      1  C   UNL     1       0.762  -1.460   3.464  0.00  0.00    +0.198 C 
ENDROOT
BRANCH   1  15
ATOM      2  C   UNL     1      -0.019   1.526   0.010  0.00  0.00    +0.029 C 
ATOM      3  C   UNL     1       0.002  -0.004   0.002  0.00  0.00    +0.087 C 
ATOM      4  C   UNL     1       0.715  -0.496  -1.259  0.00  0.00    +0.118 C 
ATOM      5  C   UNL     1       1.097  -1.944  -1.106  0.00  0.00    +0.219 C 
ATOM      6  O   UNL     1       0.459  -2.800  -1.683  0.00  0.00    -0.275 OA
ATOM      7  N   UNL     1       2.146  -2.297  -0.332  0.00  0.00    -0.284 N 
ATOM      8  C   UNL     1       2.832  -1.333   0.416  0.00  0.00    +0.055 A 
ATOM      9  C   UNL     1       4.214  -1.255   0.377  0.00  0.00    +0.025 A 
ATOM     10  C   UNL     1       4.871  -0.309   1.143  0.00  0.00    +0.002 A 
ATOM     11  C   UNL     1       4.154   0.557   1.947  0.00  0.00    +0.002 A 
ATOM     12  C   UNL     1       2.773   0.492   1.984  0.00  0.00    +0.025 A 
ATOM     13  C   UNL     1       2.107  -0.445   1.211  0.00  0.00    +0.058 A 
ATOM     14  N   UNL     1       0.707  -0.488   1.190  0.00  0.00    -0.265 N 
ATOM     15  C   UNL     1       0.022  -0.966   2.248  0.00  0.00    +0.237 C 
ATOM     16  O   UNL     1      -1.190  -0.998   2.221  0.00  0.00    -0.274 OA
ATOM     17  H   UNL     1       2.425  -3.225  -0.293  0.00  0.00    +0.155 HD
ENDBRANCH   1  15
BRANCH   1  18
ATOM     18  N   UNL     1      -0.201  -1.924   4.466  0.00  0.00    -0.335 N 
ATOM     19  H   UNL     1      -1.152  -1.879   4.282  0.00  0.00    +0.147 HD
BRANCH  18  20
ATOM     20  C   UNL     1       0.249  -2.428   5.682  0.00  0.00    +0.029 A 
ATOM     21  C   UNL     1       1.615  -2.486   5.947  0.00  0.00    +0.024 A 
ATOM     22  C   UNL     1       2.064  -2.980   7.138  0.00  0.00    +0.016 A 
ATOM     23  C   UNL     1       1.153  -3.430   8.098  0.00  0.00    +0.055 A 
ATOM     24  C   UNL     1      -0.221  -3.373   7.835  0.00  0.00    +0.055 A 
ATOM     25  C   UNL     1      -0.667  -2.869   6.632  0.00  0.00    +0.043 A 
ATOM     26 CL   UNL     1      -1.359  -3.930   9.022  0.00  0.00    -0.083 Cl
BRANCH  23  27
ATOM     27  C   UNL     1       1.637  -3.964   9.384  0.00  0.00    +0.245 C 
ATOM     28  O   UNL     1       0.843  -4.355  10.218  0.00  0.00    -0.270 OA
ATOM     29  N   UNL     1       2.960  -4.018   9.636  0.00  0.00    -0.311 N 
ATOM     30  H   UNL     1       3.593  -3.707   8.971  0.00  0.00    +0.149 HD
BRANCH  29  31
ATOM     31  C   UNL     1       3.441  -4.549  10.914  0.00  0.00    +0.107 C 
BRANCH  31  32
ATOM     32  C   UNL     1       4.970  -4.499  10.943  0.00  0.00    -0.000 C 
ATOM     33  C   UNL     1       5.468  -4.936  12.322  0.00  0.00    +0.009 C 
ATOM     34  C   UNL     1       5.532  -5.442   9.876  0.00  0.00    +0.009 C 
ENDBRANCH  31  32
ENDBRANCH  29  31
ENDBRANCH  23  27
ENDBRANCH  18  20
ENDBRANCH   1  18
TORSDOF 6
