REMARK  Name = ZINC39683674
REMARK  8 active torsions:
REMARK  status: ('A' for Active; 'I' for Inactive)
REMARK    1  A    between atoms: C_1  and  C_2
REMARK    2  A    between atoms: C_2  and  C_3
REMARK    3  A    between atoms: C_3  and  C_5
REMARK    4  A    between atoms: C_3  and  C_6
REMARK    5  A    between atoms: C_10  and  C_19
REMARK    6  A    between atoms: N_21  and  C_22
REMARK    7  A    between atoms: C_22  and  C_23
REMARK    8  A    between atoms: C_23  and  C_24
REMARK                            x       y       z     vdW  Elec       q    Type
REMARK                         _______ _______ _______ _____ _____    ______ ____
ROOT
ATOM      1  C   UNL     1       0.658  -2.174   1.255  0.00  0.00    +0.218 C 
ATOM      2  O   UNL     1       0.025  -2.802   0.433  0.00  0.00    -0.275 OA
ATOM      3  N   UNL     1       1.224  -2.810   2.300  0.00  0.00    -0.300 N 
ATOM      4  C   UNL     1       2.022  -2.219   3.400  0.00  0.00    +0.121 C 
ATOM      5  C   UNL     1       1.572  -2.985   4.664  0.00  0.00    +0.100 C 
ATOM      6  C   UNL     1       1.028  -4.324   4.139  0.00  0.00    -0.004 C 
ATOM      7  C   UNL     1       1.183  -4.259   2.612  0.00  0.00    +0.115 C 
ATOM      8  C   UNL     1      -0.444  -4.478   4.507  0.00  0.00    -0.010 C 
ATOM      9  C   UNL     1      -0.947  -5.841   4.024  0.00  0.00    -0.082 C 
ATOM     10  N   UNL     1      -0.152  -6.906   4.647  0.00  0.00    +0.379 N 
ATOM     11  C   UNL     1       1.246  -6.806   4.213  0.00  0.00    -0.082 C 
ATOM     12  C   UNL     1       1.842  -5.484   4.704  0.00  0.00    -0.010 C 
ATOM     13  H   UNL     1      -0.199  -6.816   5.651  0.00  0.00    -0.086 HD
ATOM     14  H   UNL     1      -0.524  -7.804   4.375  0.00  0.00    -0.086 HD
ENDROOT
BRANCH   5  15
ATOM     15  C   UNL     1       2.745  -3.216   5.582  0.00  0.00    +0.218 C 
ATOM     16  O   UNL     1       3.859  -3.347   5.122  0.00  0.00    -0.275 OA
ATOM     17  N   UNL     1       2.555  -3.278   6.915  0.00  0.00    -0.315 N 
ATOM     18  H   UNL     1       1.664  -3.174   7.284  0.00  0.00    +0.149 HD
BRANCH  17  19
ATOM     19  C   UNL     1       3.695  -3.503   7.808  0.00  0.00    +0.109 C 
BRANCH  19  20
ATOM     20  C   UNL     1       3.209  -3.530   9.258  0.00  0.00    +0.055 C 
BRANCH  20  21
ATOM     21  C   UNL     1       4.382  -3.761  10.176  0.00  0.00    -0.032 A 
ATOM     22  C   UNL     1       4.689  -5.042  10.596  0.00  0.00    +0.005 A 
ATOM     23  C   UNL     1       5.764  -5.255  11.438  0.00  0.00    +0.000 A 
ATOM     24  C   UNL     1       6.534  -4.186  11.860  0.00  0.00    +0.001 A 
ATOM     25  C   UNL     1       6.228  -2.906  11.441  0.00  0.00    +0.015 A 
ATOM     26  C   UNL     1       5.154  -2.693  10.594  0.00  0.00    +0.021 A 
ATOM     27 BR   UNL     1       4.739  -0.942  10.014  0.00  0.00    -0.050 Br
ENDBRANCH  20  21
ENDBRANCH  19  20
ENDBRANCH  17  19
ENDBRANCH   5  15
BRANCH   1  28
ATOM     28  C   UNL     1       0.813  -0.682   1.108  0.00  0.00    +0.072 C 
ATOM     29  C   UNL     1       2.298  -0.332   0.995  0.00  0.00    +0.017 C 
BRANCH  28  31
ATOM     30  C   UNL     1       0.131   1.312  -0.235  0.00  0.00    +0.004 C 
ATOM     31  C   UNL     1       0.081  -0.215  -0.152  0.00  0.00    +0.009 C 
ENDBRANCH  28  31
ENDBRANCH   1  28
TORSDOF 6
