REMARK  Name = ZINC01148705
REMARK  8 active torsions:
REMARK  status: ('A' for Active; 'I' for Inactive)
REMARK    1  A    between atoms: C_1  and  C_2
REMARK    2  A    between atoms: C_2  and  C_3
REMARK    3  A    between atoms: C_2  and  C_4
REMARK    4  A    between atoms: C_11  and  S_20
REMARK    5  A    between atoms: C_15  and  N_19
REMARK    6  A    between atoms: C_16  and  C_17
REMARK    7  A    between atoms: S_20  and  C_21
REMARK    8  A    between atoms: C_21  and  C_22
REMARK                            x       y       z     vdW  Elec       q    Type
REMARK                         _______ _______ _______ _____ _____    ______ ____
ROOT
ATOM      1  C   UNL     1       1.269  -2.171  -0.023  0.00  0.00    +0.078 C 
ATOM      2  C   UNL     1       1.213  -0.669  -0.013  0.00  0.00    +0.087 A 
ATOM      3  C   UNL     1       2.398   0.077  -0.021  0.00  0.00    +0.260 A 
ATOM      4  O   UNL     1       3.484  -0.482  -0.034  0.00  0.00    -0.267 OA
ATOM      5  N   UNL     1       2.318   1.424  -0.013  0.00  0.00    -0.302 N 
ATOM      6  H   UNL     1       3.153   1.975  -0.017  0.00  0.00    +0.171 HD
ATOM      7  C   UNL     1       1.100   2.033   0.003  0.00  0.00    +0.173 A 
ATOM      8  N   UNL     1      -0.016   1.334   0.009  0.00  0.00    -0.188 NA
ATOM      9  C   UNL     1       0.002  -0.004   0.002  0.00  0.00    +0.233 A 
ATOM     10  O   UNL     1      -1.163  -0.687   0.010  0.00  0.00    -0.423 OA
ATOM     11  C   UNL     1      -1.189  -1.975  -0.374  0.00  0.00    +0.200 C 
ATOM     12  C   UNL     1      -0.070  -2.736  -0.412  0.00  0.00    +0.094 C 
ENDROOT
BRANCH   1  14
ATOM     13  C   UNL     1       1.718  -4.201   1.363  0.00  0.00    +0.008 C 
ATOM     14  C   UNL     1       1.645  -2.673   1.373  0.00  0.00    -0.004 C 
ATOM     15  C   UNL     1       3.006  -2.100   1.771  0.00  0.00    +0.008 C 
ENDBRANCH   1  14
BRANCH  11  16
ATOM     16  N   UNL     1      -2.387  -2.536  -0.739  0.00  0.00    -0.328 N 
ATOM     17  H   UNL     1      -3.198  -2.005  -0.717  0.00  0.00    +0.145 HD
ATOM     18  H   UNL     1      -2.423  -3.465  -1.018  0.00  0.00    +0.145 HD
ENDBRANCH  11  16
BRANCH  12  19
ATOM     19  C   UNL     1      -0.162  -4.102  -0.831  0.00  0.00    +0.100 C 
ATOM     20  N   UNL     1      -0.234  -5.186  -1.163  0.00  0.00    -0.191 NA
ENDBRANCH  12  19
BRANCH   7  21
ATOM     21  S   UNL     1       1.016   3.793   0.013  0.00  0.00    -0.083 S 
BRANCH  21  22
ATOM     22  C   UNL     1      -0.779   4.021   0.031  0.00  0.00    +0.112 C 
BRANCH  22  23
ATOM     23  C   UNL     1      -1.098   5.494   0.042  0.00  0.00    -0.037 A 
ATOM     24  C   UNL     1      -1.239   6.162   1.244  0.00  0.00    +0.004 A 
ATOM     25  C   UNL     1      -1.526   7.514   1.254  0.00  0.00    +0.000 A 
ATOM     26  C   UNL     1      -1.683   8.196   0.062  0.00  0.00    +0.000 A 
ATOM     27  C   UNL     1      -1.549   7.527  -1.140  0.00  0.00    +0.000 A 
ATOM     28  C   UNL     1      -1.256   6.176  -1.150  0.00  0.00    +0.004 A 
ENDBRANCH  22  23
ENDBRANCH  21  22
ENDBRANCH   7  21
TORSDOF 6
