REMARK  Name = ZINC31944158
REMARK  9 active torsions:
REMARK  status: ('A' for Active; 'I' for Inactive)
REMARK    1  A    between atoms: C_1  and  C_2
REMARK    2  A    between atoms: C_5  and  C_23
REMARK    3  A    between atoms: C_6  and  O_9
REMARK    4  A    between atoms: C_7  and  C_8
REMARK    5  A    between atoms: O_9  and  C_10
REMARK    6  A    between atoms: C_10  and  C_11
REMARK    7  A    between atoms: N_13  and  C_14
REMARK    8  A    between atoms: C_17  and  C_20
REMARK    9  A    between atoms: C_20  and  N_22
REMARK                            x       y       z     vdW  Elec       q    Type
REMARK                         _______ _______ _______ _____ _____    ______ ____
ROOT
ATOM      1  C   UNL     1       3.635   2.242   1.994  0.00  0.00    +0.255 C 
ATOM      2  O   UNL     1       3.935   1.079   2.165  0.00  0.00    -0.272 OA
ATOM      3  N   UNL     1       4.598   3.175   1.867  0.00  0.00    -0.283 N 
ATOM      4  H   UNL     1       4.329   4.214   1.626  0.00  0.00    +0.155 HD
ENDROOT
BRANCH   3   5
ATOM      5  C   UNL     1       5.937   2.824   2.042  0.00  0.00    +0.034 A 
ATOM      6  C   UNL     1       6.282   1.840   2.962  0.00  0.00    +0.024 A 
ATOM      7  C   UNL     1       7.602   1.487   3.134  0.00  0.00    +0.012 A 
ATOM      8  C   UNL     1       8.597   2.126   2.388  0.00  0.00    +0.003 A 
ATOM      9  C   UNL     1       8.247   3.119   1.468  0.00  0.00    +0.012 A 
ATOM     10  C   UNL     1       6.924   3.463   1.298  0.00  0.00    +0.024 A 
BRANCH   8  11
ATOM     11  C   UNL     1      10.011   1.755   2.572  0.00  0.00    +0.077 C 
ATOM     12  S   UNL     1      11.232   2.949   2.450  0.00  0.00    -0.035 S 
BRANCH  11  13
ATOM     13  N   UNL     1      10.343   0.476   2.837  0.00  0.00    -0.352 N 
ATOM     14  H   UNL     1      11.399   0.199   2.974  0.00  0.00    +0.143 HD
ATOM     15  H   UNL     1       9.559  -0.291   2.915  0.00  0.00    +0.143 HD
ENDBRANCH  11  13
ENDBRANCH   8  11
ENDBRANCH   3   5
BRANCH   1  16
ATOM     16  C   UNL     1       2.183   2.643   1.925  0.00  0.00    +0.324 C 
BRANCH  16  17
ATOM     17  O   UNL     1       1.361   1.485   2.085  0.00  0.00    -0.482 OA
BRANCH  17  23
ATOM     18  C   UNL     1      -2.765   1.720  -0.511  0.00  0.00    +0.044 C 
ATOM     19  C   UNL     1      -2.029   1.796   0.802  0.00  0.00    -0.044 A 
ATOM     20  C   UNL     1      -2.723   2.058   1.969  0.00  0.00    +0.004 A 
ATOM     21  C   UNL     1      -2.049   2.134   3.174  0.00  0.00    +0.007 A 
ATOM     22  C   UNL     1      -0.681   1.942   3.215  0.00  0.00    -0.008 A 
ATOM     23  C   UNL     1       0.016   1.673   2.047  0.00  0.00    +0.127 A 
ATOM     24  C   UNL     1      -0.662   1.598   0.839  0.00  0.00    -0.006 A 
ATOM     25  C   UNL     1       0.092   1.306  -0.433  0.00  0.00    +0.048 C 
ATOM     26  C   UNL     1       0.052   2.025   4.529  0.00  0.00    +0.047 C 
ENDBRANCH  17  23
ENDBRANCH  16  17
ENDBRANCH   1  16
TORSDOF 6
