REMARK  Name = ZINC19882976
REMARK  9 active torsions:
REMARK  status: ('A' for Active; 'I' for Inactive)
REMARK    1  A    between atoms: C_1  and  C_2
REMARK    2  A    between atoms: C_3  and  N_9
REMARK    3  A    between atoms: C_10  and  C_12
REMARK    4  A    between atoms: C_12  and  S_13
REMARK    5  A    between atoms: S_13  and  C_14
REMARK    6  A    between atoms: C_15  and  C_30
REMARK    7  A    between atoms: C_16  and  C_25
REMARK    8  A    between atoms: C_18  and  C_22
REMARK    9  A    between atoms: C_19  and  C_21
REMARK                            x       y       z     vdW  Elec       q    Type
REMARK                         _______ _______ _______ _____ _____    ______ ____
ROOT
ATOM      1  C   UNL     1       0.768  -3.802   1.268  0.00  0.00    +0.080 C 
ATOM      2  C   UNL     1       1.302  -2.552   1.236  0.00  0.00    +0.072 C 
ATOM      3  C   UNL     1       1.726  -1.919  -0.059  0.00  0.00    +0.134 C 
ATOM      4  C   UNL     1       1.133  -2.649  -1.230  0.00  0.00    +0.046 C 
ATOM      5  C   UNL     1       0.614  -3.880  -1.105  0.00  0.00    +0.015 C 
ATOM      6  N   UNL     1       0.595  -4.518   0.105  0.00  0.00    -0.312 N 
ATOM      7  C   UNL     1       0.040  -4.569  -2.317  0.00  0.00    +0.061 C 
ATOM      8  H   UNL     1       0.442  -5.607   0.146  0.00  0.00    +0.152 HD
ENDROOT
BRANCH   4   9
ATOM      9  C   UNL     1       1.122  -2.021  -2.499  0.00  0.00    +0.240 C 
ATOM     10  O   UNL     1       2.150  -1.939  -3.147  0.00  0.00    -0.271 OA
ATOM     11  N   UNL     1      -0.026  -1.515  -2.990  0.00  0.00    -0.326 N 
ATOM     12  H   UNL     1      -0.035  -1.027  -3.977  0.00  0.00    +0.145 HD
ATOM     13  H   UNL     1      -0.955  -1.589  -2.405  0.00  0.00    +0.145 HD
ENDBRANCH   4   9
BRANCH   3  14
ATOM     14  C   UNL     1       1.265  -0.484  -0.084  0.00  0.00    +0.118 A 
ATOM     15  C   UNL     1       2.063   0.598  -0.100  0.00  0.00    +0.045 A 
ATOM     16  C   UNL     1       1.217   1.731  -0.121  0.00  0.00    +0.041 A 
ATOM     17  C   UNL     1      -0.047   1.273  -0.118  0.00  0.00    +0.195 A 
ATOM     18  O   UNL     1      -0.012  -0.070  -0.095  0.00  0.00    -0.467 OA
ENDBRANCH   3  14
BRANCH   2  19
ATOM     19  C   UNL     1       1.462  -1.825   2.459  0.00  0.00    +0.098 C 
ATOM     20  N   UNL     1       1.589  -1.248   3.429  0.00  0.00    -0.191 NA
ENDBRANCH   2  19
BRANCH   1  21
ATOM     21  S   UNL     1       0.293  -4.511   2.810  0.00  0.00    -0.100 S 
BRANCH  21  22
ATOM     22  C   UNL     1      -0.323  -6.115   2.242  0.00  0.00    +0.171 C 
BRANCH  22  24
ATOM     23  N   UNL     1      -1.302  -8.155   3.242  0.00  0.00    -0.285 N 
ATOM     24  C   UNL     1      -0.798  -6.918   3.425  0.00  0.00    +0.227 C 
ATOM     25  O   UNL     1      -0.727  -6.452   4.543  0.00  0.00    -0.275 OA
ATOM     26  H   UNL     1      -1.306  -8.604   2.238  0.00  0.00    +0.155 HD
BRANCH  23  29
ATOM     27  C   UNL     1      -3.277 -10.139   2.731  0.00  0.00    +0.047 C 
ATOM     28  C   UNL     1      -2.785  -9.845   4.124  0.00  0.00    -0.011 A 
ATOM     29  C   UNL     1      -1.819  -8.868   4.329  0.00  0.00    +0.038 A 
ATOM     30  C   UNL     1      -1.373  -8.596   5.616  0.00  0.00    +0.023 A 
ATOM     31  C   UNL     1      -1.885  -9.301   6.687  0.00  0.00    +0.003 A 
ATOM     32  C   UNL     1      -2.842 -10.277   6.481  0.00  0.00    +0.020 A 
ATOM     33  C   UNL     1      -3.290 -10.551   5.200  0.00  0.00    +0.046 A 
ATOM     34 CL   UNL     1      -4.491 -11.778   4.944  0.00  0.00    -0.083 Cl
ENDBRANCH  23  29
ENDBRANCH  22  24
ENDBRANCH  21  22
ENDBRANCH   1  21
TORSDOF 7
