REMARK  Name = ZINC57862756
REMARK  6 active torsions:
REMARK  status: ('A' for Active; 'I' for Inactive)
REMARK    1  A    between atoms: C_3  and  N_12
REMARK    2  A    between atoms: C_5  and  N_7
REMARK    3  A    between atoms: N_15  and  C_16
REMARK    4  A    between atoms: C_16  and  C_17
REMARK    5  A    between atoms: C_17  and  C_19
REMARK    6  A    between atoms: C_17  and  O_26
REMARK                            x       y       z     vdW  Elec       q    Type
REMARK                         _______ _______ _______ _____ _____    ______ ____
ROOT
ATOM      1  N   UNL     1       3.583   2.133  -0.021  0.00  0.00    -0.269 N 
ATOM      2  C   UNL     1       3.563   3.477  -0.116  0.00  0.00    +0.304 C 
ATOM      3  O   UNL     1       2.502   4.071  -0.103  0.00  0.00    -0.253 OA
ATOM      4  N   UNL     1       4.718   4.163  -0.225  0.00  0.00    -0.296 N 
ATOM      5  H   UNL     1       4.430   1.665   0.046  0.00  0.00    +0.156 HD
ATOM      6  H   UNL     1       5.564   3.689  -0.236  0.00  0.00    +0.150 HD
ENDROOT
BRANCH   1   9
ATOM      7  C   UNL     1       0.114   1.157  -0.758  0.00  0.00    +0.004 A 
ATOM      8  C   UNL     1       1.299   1.868  -0.758  0.00  0.00    +0.023 A 
ATOM      9  C   UNL     1       2.384   1.413  -0.020  0.00  0.00    +0.037 A 
ATOM     10  C   UNL     1       2.276   0.243   0.719  0.00  0.00    +0.051 A 
ATOM     11  C   UNL     1       1.085  -0.468   0.718  0.00  0.00    +0.067 A 
ATOM     12  C   UNL     1       0.004  -0.007  -0.023  0.00  0.00    +0.028 A 
BRANCH  11  13
ATOM     13  N   UNL     1       0.973  -1.650   1.462  0.00  0.00    -0.240 N 
ATOM     14  C   UNL     1      -0.122  -2.438   1.544  0.00  0.00    +0.114 A 
ATOM     15  C   UNL     1       0.177  -3.476   2.359  0.00  0.00    +0.041 A 
ATOM     16  C   UNL     1       1.498  -3.318   2.791  0.00  0.00    +0.135 A 
ATOM     17  N   UNL     1       1.978  -2.227   2.250  0.00  0.00    -0.175 NA
ENDBRANCH  11  13
ENDBRANCH   1   9
BRANCH   4  18
ATOM     18  C   UNL     1       4.695   5.624  -0.328  0.00  0.00    +0.141 C 
BRANCH  18  19
ATOM     19  C   UNL     1       6.128   6.150  -0.441  0.00  0.00    +0.162 C 
BRANCH  19  20
ATOM     20  C   UNL     1       6.104   7.653  -0.547  0.00  0.00    -0.018 A 
ATOM     21  C   UNL     1       6.057   8.426   0.599  0.00  0.00    +0.007 A 
ATOM     22  C   UNL     1       6.036   9.804   0.502  0.00  0.00    +0.020 A 
ATOM     23  C   UNL     1       6.061  10.411  -0.741  0.00  0.00    +0.041 A 
ATOM     24  C   UNL     1       6.109   9.637  -1.887  0.00  0.00    +0.020 A 
ATOM     25  C   UNL     1       6.136   8.258  -1.789  0.00  0.00    +0.007 A 
ATOM     26 CL   UNL     1       6.034  12.142  -0.863  0.00  0.00    -0.084 Cl
ENDBRANCH  19  20
BRANCH  19  27
ATOM     27  O   UNL     1       6.868   5.766   0.719  0.00  0.00    -0.386 OA
ATOM     28  H   UNL     1       6.504   6.104   1.549  0.00  0.00    +0.210 HD
ENDBRANCH  19  27
ENDBRANCH  18  19
ENDBRANCH   4  18
TORSDOF 6
