REMARK  Name = ZINC56478146
REMARK  11 active torsions:
REMARK  status: ('A' for Active; 'I' for Inactive)
REMARK    1  A    between atoms: C_1  and  C_2
REMARK    2  A    between atoms: C_6  and  O_8
REMARK    3  A    between atoms: O_8  and  C_9
REMARK    4  A    between atoms: C_9  and  C_10
REMARK    5  A    between atoms: N_12  and  N_13
REMARK    6  A    between atoms: N_16  and  C_17
REMARK    7  A    between atoms: C_17  and  C_18
REMARK    8  A    between atoms: C_23  and  O_24
REMARK    9  A    between atoms: O_24  and  C_25
REMARK   10  A    between atoms: C_25  and  C_26
REMARK   11  A    between atoms: C_25  and  C_27
REMARK                            x       y       z     vdW  Elec       q    Type
REMARK                         _______ _______ _______ _____ _____    ______ ____
ROOT
ATOM      1  N   UNL     1       0.270  -6.216   4.323  0.00  0.00    -0.218 N 
ATOM      2  C   UNL     1       0.179  -7.509   4.693  0.00  0.00    +0.316 C 
ATOM      3  O   UNL     1       0.087  -7.800   5.870  0.00  0.00    -0.251 OA
ATOM      4  N   UNL     1       0.192  -8.480   3.758  0.00  0.00    -0.294 N 
ATOM      5  H   UNL     1       0.261  -5.518   4.996  0.00  0.00    +0.174 HD
ATOM      6  H   UNL     1       0.266  -8.248   2.819  0.00  0.00    +0.151 HD
ENDROOT
BRANCH   1   9
ATOM      7  C   UNL     1       0.467  -4.588   2.597  0.00  0.00    +0.267 C 
ATOM      8  O   UNL     1       0.456  -3.715   3.438  0.00  0.00    -0.271 OA
ATOM      9  N   UNL     1       0.377  -5.881   2.967  0.00  0.00    -0.230 N 
ATOM     10  H   UNL     1       0.386  -6.580   2.294  0.00  0.00    +0.173 HD
BRANCH   7  11
ATOM     11  C   UNL     1       0.583  -4.228   1.138  0.00  0.00    +0.326 C 
BRANCH  11  12
ATOM     12  O   UNL     1       0.664  -2.808   1.003  0.00  0.00    -0.483 OA
BRANCH  12  18
ATOM     13  C   UNL     1       1.056   1.045  -1.967  0.00  0.00    +0.044 C 
ATOM     14  C   UNL     1       0.966  -0.443  -1.745  0.00  0.00    -0.047 A 
ATOM     15  C   UNL     1       0.994  -1.306  -2.825  0.00  0.00    +0.003 A 
ATOM     16  C   UNL     1       0.912  -2.671  -2.624  0.00  0.00    +0.004 A 
ATOM     17  C   UNL     1       0.801  -3.177  -1.343  0.00  0.00    +0.045 A 
ATOM     18  C   UNL     1       0.773  -2.313  -0.258  0.00  0.00    +0.121 A 
ATOM     19  C   UNL     1       0.862  -0.944  -0.462  0.00  0.00    +0.049 A 
ENDBRANCH  12  18
ENDBRANCH  11  12
ENDBRANCH   7  11
ENDBRANCH   1   9
BRANCH   4  20
ATOM     20  C   UNL     1       0.094  -9.885   4.160  0.00  0.00    +0.144 C 
BRANCH  20  21
ATOM     21  C   UNL     1       0.131 -10.762   2.935  0.00  0.00    +0.011 A 
ATOM     22  C   UNL     1      -1.044 -11.268   2.412  0.00  0.00    +0.009 A 
ATOM     23  C   UNL     1      -1.011 -12.073   1.288  0.00  0.00    +0.001 A 
ATOM     24  C   UNL     1       0.197 -12.373   0.684  0.00  0.00    +0.004 A 
ATOM     25  C   UNL     1       1.374 -11.868   1.203  0.00  0.00    +0.046 A 
ATOM     26  C   UNL     1       1.343 -11.056   2.328  0.00  0.00    +0.126 A 
BRANCH  26  27
ATOM     27  O   UNL     1       2.498 -10.555   2.837  0.00  0.00    -0.489 OA
BRANCH  27  28
ATOM     28  C   UNL     1       3.695 -10.803   2.097  0.00  0.00    +0.167 C 
ATOM     29  C   UNL     1       4.726  -9.718   2.414  0.00  0.00    +0.051 C 
ATOM     30  C   UNL     1       4.260 -12.171   2.484  0.00  0.00    +0.051 C 
ENDBRANCH  27  28
ENDBRANCH  26  27
ENDBRANCH  20  21
ENDBRANCH   4  20
TORSDOF 8
