REMARK  Name = ZINC67294487
REMARK  4 active torsions:
REMARK  status: ('A' for Active; 'I' for Inactive)
REMARK    1  A    between atoms: C_8  and  C_21
REMARK    2  A    between atoms: N_10  and  C_11
REMARK    3  A    between atoms: C_14  and  C_17
REMARK    4  A    between atoms: N_23  and  C_24
REMARK                            x       y       z     vdW  Elec       q    Type
REMARK                         _______ _______ _______ _____ _____    ______ ____
ROOT
ATOM      1  C   UNL     1       0.078   1.388  -0.644  0.00  0.00    +0.001 A 
ATOM      2  C   UNL     1       0.910   2.078   0.226  0.00  0.00    +0.004 A 
ATOM      3  C   UNL     1       2.080   1.505   0.684  0.00  0.00    +0.047 A 
ATOM      4  C   UNL     1       2.429   0.227   0.273  0.00  0.00    +0.137 A 
ATOM      5  C   UNL     1       1.581  -0.473  -0.606  0.00  0.00    +0.018 A 
ATOM      6  C   UNL     1       0.401   0.128  -1.062  0.00  0.00    +0.011 A 
ATOM      7  C   UNL     1       1.946  -1.827  -1.029  0.00  0.00    +0.030 A 
ATOM      8  C   UNL     1       2.970  -2.458  -0.334  0.00  0.00    +0.098 A 
ATOM      9  C   UNL     1       3.599  -1.705   0.768  0.00  0.00    +0.212 A 
ATOM     10  N   UNL     1       4.166  -2.329   1.780  0.00  0.00    -0.325 N 
ATOM     11  O   UNL     1       3.575  -0.350   0.707  0.00  0.00    -0.439 OA
ATOM     12  H   UNL     1       4.023  -3.281   1.904  0.00  0.00    +0.169 HD
ENDROOT
BRANCH  10  13
ATOM     13  C   UNL     1       4.953  -1.639   2.652  0.00  0.00    +0.042 A 
ATOM     14  C   UNL     1       5.899  -0.726   2.169  0.00  0.00    +0.026 A 
ATOM     15  C   UNL     1       6.687  -0.035   3.043  0.00  0.00    +0.015 A 
ATOM     16  C   UNL     1       6.549  -0.238   4.421  0.00  0.00    +0.037 A 
ATOM     17  C   UNL     1       5.604  -1.150   4.903  0.00  0.00    +0.015 A 
ATOM     18  C   UNL     1       4.812  -1.838   4.031  0.00  0.00    +0.026 A 
BRANCH  16  19
ATOM     19  C   UNL     1       7.400   0.509   5.364  0.00  0.00    +0.242 C 
ATOM     20  O   UNL     1       8.222   1.302   4.944  0.00  0.00    -0.270 OA
ATOM     21  N   UNL     1       7.268   0.314   6.691  0.00  0.00    -0.325 N 
ATOM     22  H   UNL     1       6.613  -0.318   7.025  0.00  0.00    +0.145 HD
ATOM     23  H   UNL     1       7.829   0.806   7.311  0.00  0.00    +0.145 HD
ENDBRANCH  16  19
ENDBRANCH  10  13
BRANCH   8  24
ATOM     24  C   UNL     1       3.410  -3.819  -0.683  0.00  0.00    +0.253 C 
ATOM     25  O   UNL     1       2.800  -4.461  -1.518  0.00  0.00    -0.270 OA
ATOM     26  N   UNL     1       4.489  -4.355  -0.078  0.00  0.00    -0.281 N 
ATOM     27  H   UNL     1       4.956  -3.857   0.611  0.00  0.00    +0.155 HD
BRANCH  26  28
ATOM     28  C   UNL     1       4.936  -5.629  -0.444  0.00  0.00    +0.034 A 
ATOM     29  C   UNL     1       4.030  -6.581  -0.894  0.00  0.00    +0.025 A 
ATOM     30  C   UNL     1       4.474  -7.838  -1.255  0.00  0.00    +0.022 A 
ATOM     31  C   UNL     1       5.819  -8.150  -1.168  0.00  0.00    +0.041 A 
ATOM     32  C   UNL     1       6.724  -7.203  -0.719  0.00  0.00    +0.022 A 
ATOM     33  C   UNL     1       6.286  -5.943  -0.363  0.00  0.00    +0.025 A 
ATOM     34 CL   UNL     1       6.373  -9.731  -1.622  0.00  0.00    -0.084 Cl
ENDBRANCH  26  28
ENDBRANCH   8  24
TORSDOF 4
