REMARK  Name = ZINC36936812
REMARK  4 active torsions:
REMARK  status: ('A' for Active; 'I' for Inactive)
REMARK    1  A    between atoms: C_1  and  C_2
REMARK    2  A    between atoms: C_3  and  C_7
REMARK    3  A    between atoms: C_8  and  C_13
REMARK    4  A    between atoms: C_9  and  N_12
REMARK                            x       y       z     vdW  Elec       q    Type
REMARK                         _______ _______ _______ _____ _____    ______ ____
ROOT
ATOM      1  C   UNL     1      -2.513  -0.396   0.012  0.00  0.00    +0.126 A 
ATOM      2  C   UNL     1      -3.679  -1.283   0.019  0.00  0.00    +0.071 A 
ATOM      3  C   UNL     1      -4.794  -0.470   0.027  0.00  0.00    +0.224 A 
ATOM      4  O   UNL     1      -4.377   0.805   0.027  0.00  0.00    -0.339 OA
ATOM      5  N   UNL     1      -2.964   0.836   0.022  0.00  0.00    -0.075 NA
ENDROOT
BRANCH   2   6
ATOM      6  C   UNL     1      -3.664  -2.765   0.016  0.00  0.00    -0.011 A 
ATOM      7  C   UNL     1      -3.149  -3.457  -1.080  0.00  0.00    +0.011 A 
ATOM      8  C   UNL     1      -3.137  -4.837  -1.078  0.00  0.00    +0.039 A 
ATOM      9  C   UNL     1      -3.635  -5.534   0.010  0.00  0.00    +0.123 A 
ATOM     10  C   UNL     1      -4.147  -4.851   1.101  0.00  0.00    +0.039 A 
ATOM     11  C   UNL     1      -4.159  -3.472   1.111  0.00  0.00    +0.011 A 
ATOM     12  F   UNL     1      -3.621  -6.885   0.007  0.00  0.00    -0.205 F 
ENDBRANCH   2   6
BRANCH   1  15
ATOM     13  C   UNL     1      -0.018   1.503   0.010  0.00  0.00    +0.087 C 
ATOM     14  C   UNL     1       0.002  -0.004   0.002  0.00  0.00    +0.111 A 
ATOM     15  C   UNL     1      -1.090  -0.813   0.003  0.00  0.00    +0.045 A 
ATOM     16  C   UNL     1      -0.569  -2.185  -0.008  0.00  0.00    +0.051 A 
ATOM     17  C   UNL     1       0.770  -2.073  -0.014  0.00  0.00    +0.196 A 
ATOM     18  O   UNL     1       1.100  -0.772  -0.013  0.00  0.00    -0.467 OA
ENDBRANCH   1  15
BRANCH   3  19
ATOM     19  N   UNL     1      -6.107  -0.894   0.035  0.00  0.00    -0.327 N 
ATOM     20  H   UNL     1      -6.310  -1.843   0.035  0.00  0.00    +0.145 HD
ATOM     21  H   UNL     1      -6.827  -0.244   0.041  0.00  0.00    +0.145 HD
ENDBRANCH   3  19
TORSDOF 3
