REMARK  Name = ZINC12276227
REMARK  11 active torsions:
REMARK  status: ('A' for Active; 'I' for Inactive)
REMARK    1  A    between atoms: C_1  and  O_2
REMARK    2  A    between atoms: O_2  and  C_3
REMARK    3  A    between atoms: C_6  and  C_11
REMARK    4  A    between atoms: C_8  and  O_9
REMARK    5  A    between atoms: O_9  and  C_10
REMARK    6  A    between atoms: C_11  and  C_13
REMARK    7  A    between atoms: C_14  and  N_33
REMARK    8  A    between atoms: C_22  and  C_24
REMARK    9  A    between atoms: C_27  and  O_32
REMARK   10  A    between atoms: C_28  and  O_30
REMARK   11  A    between atoms: O_30  and  C_31
REMARK                            x       y       z     vdW  Elec       q    Type
REMARK                         _______ _______ _______ _____ _____    ______ ____
ROOT
ATOM      1  C   UNL     1       4.216   3.587  -3.551  0.00  0.00    +0.082 A 
ATOM      2  C   UNL     1       4.200   2.665  -2.500  0.00  0.00    +0.048 A 
ATOM      3  C   UNL     1       3.639   3.035  -1.293  0.00  0.00    +0.010 A 
ATOM      4  C   UNL     1       3.128   4.315  -1.209  0.00  0.00    +0.078 A 
ATOM      5  S   UNL     1       3.420   5.006  -2.811  0.00  0.00    -0.068 S 
ATOM      6  N   UNL     1       2.547   4.864  -0.092  0.00  0.00    -0.280 N 
ATOM      7  C   UNL     1       2.671   4.188   1.075  0.00  0.00    +0.218 C 
ATOM      8  O   UNL     1       2.031   4.541   2.042  0.00  0.00    -0.275 OA
ATOM      9  C   UNL     1       3.592   3.006   1.186  0.00  0.00    +0.109 C 
ATOM     10  C   UNL     1       3.547   2.132  -0.067  0.00  0.00    +0.062 C 
ATOM     11  H   UNL     1       2.066   5.705  -0.138  0.00  0.00    +0.155 HD
ENDROOT
BRANCH  10  12
ATOM     12  C   UNL     1       2.251   1.363  -0.101  0.00  0.00    -0.036 A 
ATOM     13  C   UNL     1       1.046   2.041  -0.105  0.00  0.00    +0.008 A 
ATOM     14  C   UNL     1      -0.145   1.340  -0.137  0.00  0.00    +0.049 A 
ATOM     15  C   UNL     1      -0.133  -0.045  -0.163  0.00  0.00    +0.158 A 
ATOM     16  C   UNL     1       1.079  -0.728  -0.159  0.00  0.00    +0.162 A 
ATOM     17  C   UNL     1       2.270  -0.019  -0.127  0.00  0.00    +0.053 A 
BRANCH  16  18
ATOM     18  O   UNL     1       1.096  -2.087  -0.184  0.00  0.00    -0.491 OA
ATOM     19  C   UNL     1       2.377  -2.721  -0.177  0.00  0.00    +0.277 C 
ENDBRANCH  16  18
BRANCH  15  20
ATOM     20  O   UNL     1      -1.304  -0.736  -0.195  0.00  0.00    -0.503 OA
ATOM     21  H   UNL     1      -1.629  -0.918  -1.087  0.00  0.00    +0.292 HD
ENDBRANCH  15  20
ENDBRANCH  10  12
BRANCH   2  22
ATOM     22  N   UNL     1       4.741   1.395  -2.667  0.00  0.00    -0.357 N 
ATOM     23  H   UNL     1       4.726   0.761  -1.933  0.00  0.00    +0.142 HD
ATOM     24  H   UNL     1       5.133   1.143  -3.517  0.00  0.00    +0.142 HD
ENDBRANCH   2  22
BRANCH   1  25
ATOM     25  C   UNL     1       4.726   3.437  -4.855  0.00  0.00    +0.202 C 
ATOM     26  O   UNL     1       5.348   2.431  -5.155  0.00  0.00    -0.286 OA
BRANCH  25  30
ATOM     27  C   UNL     1       4.096   6.492  -7.745  0.00  0.00    +0.162 A 
ATOM     28  C   UNL     1       3.238   6.375  -6.660  0.00  0.00    +0.050 A 
ATOM     29  C   UNL     1       3.437   5.383  -5.725  0.00  0.00    +0.015 A 
ATOM     30  C   UNL     1       4.509   4.498  -5.861  0.00  0.00    +0.027 A 
ATOM     31  C   UNL     1       5.372   4.615  -6.953  0.00  0.00    +0.061 A 
ATOM     32  C   UNL     1       5.164   5.609  -7.891  0.00  0.00    +0.162 A 
BRANCH  27  34
ATOM     33  C   UNL     1       2.779   8.338  -8.457  0.00  0.00    +0.277 C 
ATOM     34  O   UNL     1       3.893   7.468  -8.668  0.00  0.00    -0.491 OA
ENDBRANCH  27  34
BRANCH  32  35
ATOM     35  O   UNL     1       6.003   5.726  -8.955  0.00  0.00    -0.491 OA
ATOM     36  C   UNL     1       7.077   4.787  -9.040  0.00  0.00    +0.277 C 
ENDBRANCH  32  35
ENDBRANCH  25  30
ENDBRANCH   1  25
TORSDOF 8
