REMARK  Name = ZINC23281215
REMARK  9 active torsions:
REMARK  status: ('A' for Active; 'I' for Inactive)
REMARK    1  A    between atoms: C_1  and  C_2
REMARK    2  A    between atoms: C_5  and  S_8
REMARK    3  A    between atoms: N_6  and  N_7
REMARK    4  A    between atoms: S_8  and  C_9
REMARK    5  A    between atoms: C_9  and  C_11
REMARK    6  A    between atoms: C_9  and  C_12
REMARK    7  A    between atoms: N_14  and  C_15
REMARK    8  A    between atoms: C_15  and  C_17
REMARK    9  A    between atoms: C_15  and  C_18
REMARK                            x       y       z     vdW  Elec       q    Type
REMARK                         _______ _______ _______ _____ _____    ______ ____
ROOT
ATOM      1  C   UNL     1      -3.722   4.638   6.645  0.00  0.00    +0.227 C 
ATOM      2  O   UNL     1      -4.204   5.733   6.843  0.00  0.00    -0.275 OA
ATOM      3  N   UNL     1      -4.245   3.552   7.248  0.00  0.00    -0.308 N 
ATOM      4  H   UNL     1      -3.807   2.559   7.069  0.00  0.00    +0.149 HD
ENDROOT
BRANCH   1   5
ATOM      5  C   UNL     1      -2.538   4.491   5.724  0.00  0.00    +0.137 C 
ATOM      6  C   UNL     1      -1.257   4.383   6.554  0.00  0.00    +0.029 C 
BRANCH   5   7
ATOM      7  S   UNL     1      -2.433   5.937   4.640  0.00  0.00    -0.072 S 
BRANCH   7  12
ATOM      8  C   UNL     1       1.338   5.738   0.901  0.00  0.00    +0.090 C 
ATOM      9  C   UNL     1       0.440   5.387   2.059  0.00  0.00    +0.148 A 
ATOM     10  N   UNL     1       0.479   4.291   2.762  0.00  0.00    -0.132 NA
ATOM     11  N   UNL     1      -0.427   4.318   3.673  0.00  0.00    -0.121 NA
ATOM     12  C   UNL     1      -1.098   5.444   3.601  0.00  0.00    +0.209 A 
ATOM     13  N   UNL     1      -0.562   6.164   2.572  0.00  0.00    -0.228 N 
BRANCH  13  14
ATOM     14  N   UNL     1      -0.949   7.401   2.141  0.00  0.00    -0.295 N 
ATOM     15  H   UNL     1      -1.776   7.925   2.643  0.00  0.00    +0.163 HD
ATOM     16  H   UNL     1      -0.433   7.875   1.293  0.00  0.00    +0.163 HD
ENDBRANCH  13  14
ENDBRANCH   7  12
ENDBRANCH   5   7
ENDBRANCH   1   5
BRANCH   3  17
ATOM     17  C   UNL     1      -5.396   3.695   8.143  0.00  0.00    +0.101 C 
ATOM     18  C   UNL     1      -6.177   2.380   8.183  0.00  0.00    +0.033 C 
BRANCH  17  19
ATOM     19  C   UNL     1      -4.914   4.036   9.530  0.00  0.00    -0.020 A 
ATOM     20  C   UNL     1      -3.643   3.730   9.907  0.00  0.00    +0.006 A 
ATOM     21  C   UNL     1      -3.179   4.041  11.184  0.00  0.00    +0.001 A 
ATOM     22  C   UNL     1      -3.986   4.652  12.094  0.00  0.00    +0.008 A 
ATOM     23  C   UNL     1      -5.307   4.978  11.742  0.00  0.00    -0.018 A 
ATOM     24  C   UNL     1      -5.778   4.666  10.442  0.00  0.00    -0.013 A 
ATOM     25  C   UNL     1      -7.099   4.993  10.091  0.00  0.00    +0.009 A 
ATOM     26  C   UNL     1      -7.906   5.604  11.001  0.00  0.00    +0.001 A 
ATOM     27  C   UNL     1      -7.443   5.911  12.279  0.00  0.00    +0.001 A 
ATOM     28  C   UNL     1      -6.170   5.609  12.655  0.00  0.00    +0.008 A 
ENDBRANCH  17  19
ENDBRANCH   3  17
TORSDOF 6
