REMARK  Name = ZINC08856557
REMARK  8 active torsions:
REMARK  status: ('A' for Active; 'I' for Inactive)
REMARK    1  A    between atoms: C_1  and  C_2
REMARK    2  A    between atoms: C_2  and  C_4
REMARK    3  A    between atoms: C_2  and  N_12
REMARK    4  A    between atoms: C_4  and  C_5
REMARK    5  A    between atoms: C_5  and  C_6
REMARK    6  A    between atoms: C_13  and  C_15
REMARK    7  A    between atoms: C_15  and  N_16
REMARK    8  A    between atoms: C_21  and  O_29
REMARK                            x       y       z     vdW  Elec       q    Type
REMARK                         _______ _______ _______ _____ _____    ______ ____
ROOT
ATOM      1  N   UNL     1       4.223  -1.127   2.126  0.00  0.00    -0.290 N 
ATOM      2  C   UNL     1       5.078  -1.542   3.081  0.00  0.00    +0.307 C 
ATOM      3  O   UNL     1       4.655  -1.893   4.166  0.00  0.00    -0.252 OA
ATOM      4  N   UNL     1       6.403  -1.569   2.834  0.00  0.00    -0.245 N 
ATOM      5  C   UNL     1       6.950  -1.145   1.535  0.00  0.00    +0.210 C 
ATOM      6  C   UNL     1       8.062  -2.083   1.143  0.00  0.00    +0.206 C 
ATOM      7  N   UNL     1       8.761  -2.716   2.029  0.00  0.00    -0.214 NA
ATOM      8  C   UNL     1       8.522  -2.580   3.370  0.00  0.00    +0.089 A 
ATOM      9  C   UNL     1       7.321  -1.995   3.806  0.00  0.00    +0.064 A 
ATOM     10  C   UNL     1       7.061  -1.851   5.155  0.00  0.00    +0.026 A 
ATOM     11  C   UNL     1       7.995  -2.280   6.083  0.00  0.00    +0.002 A 
ATOM     12  C   UNL     1       9.184  -2.849   5.665  0.00  0.00    +0.002 A 
ATOM     13  C   UNL     1       9.453  -3.009   4.312  0.00  0.00    +0.030 A 
ATOM     14  H   UNL     1       4.560  -0.847   1.261  0.00  0.00    +0.151 HD
ENDROOT
BRANCH   6  15
ATOM     15  O   UNL     1       8.336  -2.267  -0.165  0.00  0.00    -0.494 OA
ATOM     16  H   UNL     1       9.062  -2.883  -0.332  0.00  0.00    +0.293 HD
ENDBRANCH   6  15
BRANCH   1  17
ATOM     17  C   UNL     1       2.783  -1.099   2.395  0.00  0.00    +0.201 C 
BRANCH  17  19
ATOM     18  N   UNL     1       0.711  -0.489   1.189  0.00  0.00    -0.311 N 
ATOM     19  C   UNL     1       2.054  -0.600   1.174  0.00  0.00    +0.230 C 
ATOM     20  O   UNL     1       2.676  -0.297   0.177  0.00  0.00    -0.274 OA
ATOM     21  H   UNL     1       0.213  -0.731   1.986  0.00  0.00    +0.149 HD
BRANCH  18  23
ATOM     22  C   UNL     1      -0.019   1.526   0.010  0.00  0.00    +0.028 C 
ATOM     23  C   UNL     1       0.002  -0.004   0.002  0.00  0.00    +0.070 C 
BRANCH  23  24
ATOM     24  C   UNL     1      -1.433  -0.534   0.013  0.00  0.00    +0.026 C 
BRANCH  24  25
ATOM     25  C   UNL     1      -1.416  -2.058  -0.121  0.00  0.00    +0.037 C 
BRANCH  25  26
ATOM     26  C   UNL     1      -2.829  -2.579  -0.111  0.00  0.00    -0.047 A 
ATOM     27  C   UNL     1      -3.432  -2.917   1.087  0.00  0.00    +0.003 A 
ATOM     28  C   UNL     1      -4.729  -3.396   1.096  0.00  0.00    +0.000 A 
ATOM     29  C   UNL     1      -5.423  -3.536  -0.091  0.00  0.00    +0.000 A 
ATOM     30  C   UNL     1      -4.821  -3.197  -1.288  0.00  0.00    +0.000 A 
ATOM     31  C   UNL     1      -3.525  -2.714  -1.297  0.00  0.00    +0.003 A 
ENDBRANCH  25  26
ENDBRANCH  24  25
ENDBRANCH  23  24
ENDBRANCH  18  23
ENDBRANCH  17  19
ENDBRANCH   1  17
TORSDOF 7
