REMARK  Name = ZINC04854723
REMARK  4 active torsions:
REMARK  status: ('A' for Active; 'I' for Inactive)
REMARK    1  A    between atoms: C_1  and  C_2
REMARK    2  A    between atoms: C_5  and  C_8
REMARK    3  A    between atoms: N_13  and  C_16
REMARK    4  A    between atoms: C_16  and  C_17
REMARK                            x       y       z     vdW  Elec       q    Type
REMARK                         _______ _______ _______ _____ _____    ______ ____
ROOT
ATOM      1  C   UNL     1       2.490   1.048  -0.016  0.00  0.00    +0.142 C 
ATOM      2  C   UNL     1       3.007   1.046  -1.441  0.00  0.00    +0.058 C 
ATOM      3  C   UNL     1       4.218   1.592  -1.669  0.00  0.00    +0.039 C 
ATOM      4  C   UNL     1       4.474   1.454  -3.153  0.00  0.00    +0.159 C 
ATOM      5  N   UNL     1       3.278   0.781  -3.682  0.00  0.00    -0.287 N 
ATOM      6  C   UNL     1       2.451   0.564  -2.644  0.00  0.00    +0.247 C 
ATOM      7  O   UNL     1       1.364   0.022  -2.731  0.00  0.00    -0.270 OA
ATOM      8  N   UNL     1       4.956   2.128  -0.653  0.00  0.00    -0.271 N 
ATOM      9  C   UNL     1       4.549   2.157   0.623  0.00  0.00    +0.304 C 
ATOM     10  O   UNL     1       5.274   2.657   1.461  0.00  0.00    -0.252 OA
ATOM     11  N   UNL     1       3.361   1.650   1.008  0.00  0.00    -0.288 N 
ATOM     12  H   UNL     1       5.822   2.510  -0.867  0.00  0.00    +0.156 HD
ATOM     13  H   UNL     1       3.085   1.682   1.937  0.00  0.00    +0.151 HD
ENDROOT
BRANCH   1  18
ATOM     14  C   UNL     1      -2.553   3.869   0.045  0.00  0.00    +0.044 C 
ATOM     15  C   UNL     1      -1.238   3.133   0.030  0.00  0.00    -0.050 A 
ATOM     16  C   UNL     1      -1.219   1.751   0.017  0.00  0.00    +0.004 A 
ATOM     17  C   UNL     1      -0.013   1.076   0.008  0.00  0.00    +0.006 A 
ATOM     18  C   UNL     1       1.175   1.783   0.000  0.00  0.00    -0.023 A 
ATOM     19  C   UNL     1       1.156   3.165   0.008  0.00  0.00    +0.006 A 
ATOM     20  C   UNL     1      -0.050   3.840   0.022  0.00  0.00    +0.004 A 
ENDBRANCH   1  18
BRANCH   5  21
ATOM     21  C   UNL     1       3.033   0.416  -5.080  0.00  0.00    +0.150 C 
BRANCH  21  22
ATOM     22  C   UNL     1       3.561  -0.972  -5.337  0.00  0.00    +0.007 A 
ATOM     23  C   UNL     1       2.928  -2.163  -5.207  0.00  0.00    +0.013 A 
ATOM     24  C   UNL     1       3.616  -3.324  -5.505  0.00  0.00    +0.008 A 
ATOM     25  C   UNL     1       4.907  -3.237  -5.908  0.00  0.00    +0.045 A 
ATOM     26  S   UNL     1       5.185  -1.474  -5.882  0.00  0.00    -0.100 S 
ENDBRANCH  21  22
ENDBRANCH   5  21
TORSDOF 3
