REMARK  Name = ZINC40334409
REMARK  5 active torsions:
REMARK  status: ('A' for Active; 'I' for Inactive)
REMARK    1  A    between atoms: C_1  and  C_2
REMARK    2  A    between atoms: C_6  and  C_21
REMARK    3  A    between atoms: N_9  and  S_10
REMARK    4  A    between atoms: S_10  and  C_13
REMARK    5  A    between atoms: C_15  and  N_20
REMARK                            x       y       z     vdW  Elec       q    Type
REMARK                         _______ _______ _______ _____ _____    ______ ____
ROOT
ATOM      1  S   UNL     1       2.147  -1.298   1.054  0.00  0.00    +0.063 S 
ATOM      2  O   UNL     1       2.281  -2.098   2.220  0.00  0.00    -0.153 OA
ATOM      3  O   UNL     1       2.177  -1.850  -0.256  0.00  0.00    -0.153 OA
ENDROOT
BRANCH   1  10
ATOM      4  C   UNL     1      -0.019   1.526   0.010  0.00  0.00    +0.026 C 
ATOM      5  C   UNL     1       0.002  -0.004   0.002  0.00  0.00    +0.077 C 
ATOM      6  C   UNL     1      -1.434  -0.537   0.020  0.00  0.00    +0.021 C 
ATOM      7  C   UNL     1      -2.101  -0.151   1.343  0.00  0.00    +0.015 C 
ATOM      8  C   UNL     1      -1.335  -0.786   2.506  0.00  0.00    +0.090 C 
ATOM      9  C   UNL     1       0.102  -0.256   2.516  0.00  0.00    +0.122 C 
ATOM     10  N   UNL     1       0.706  -0.494   1.195  0.00  0.00    -0.173 NA
BRANCH   8  11
ATOM     11  C   UNL     1      -2.011  -0.433   3.805  0.00  0.00    +0.215 C 
ATOM     12  O   UNL     1      -1.405   0.180   4.658  0.00  0.00    -0.276 OA
ATOM     13  N   UNL     1      -3.291  -0.798   4.020  0.00  0.00    -0.329 N 
ATOM     14  H   UNL     1      -3.776  -1.288   3.338  0.00  0.00    +0.145 HD
ATOM     15  H   UNL     1      -3.726  -0.571   4.856  0.00  0.00    +0.145 HD
ENDBRANCH   8  11
ENDBRANCH   1  10
BRANCH   1  16
ATOM     16  C   UNL     1       3.427  -0.090   1.120  0.00  0.00    +0.125 A 
ATOM     17  C   UNL     1       4.325  -0.093   2.170  0.00  0.00    +0.052 A 
ATOM     18  C   UNL     1       5.334   0.859   2.222  0.00  0.00    +0.026 A 
ATOM     19  C   UNL     1       5.438   1.812   1.217  0.00  0.00    +0.024 A 
ATOM     20  C   UNL     1       4.539   1.810   0.169  0.00  0.00    +0.024 A 
ATOM     21  C   UNL     1       3.537   0.857   0.118  0.00  0.00    +0.067 A 
ATOM     22 CL   UNL     1       2.411   0.854  -1.204  0.00  0.00    -0.082 Cl
BRANCH  18  23
ATOM     23  N   UNL     1       6.243   0.859   3.284  0.00  0.00    -0.358 N 
ATOM     24  H   UNL     1       6.169   0.193   3.985  0.00  0.00    +0.142 HD
ATOM     25  H   UNL     1       6.948   1.525   3.319  0.00  0.00    +0.142 HD
ENDBRANCH  18  23
ENDBRANCH   1  16
TORSDOF 4
