REMARK  Name = ZINC65226159
REMARK  4 active torsions:
REMARK  status: ('A' for Active; 'I' for Inactive)
REMARK    1  A    between atoms: C_4  and  C_7
REMARK    2  A    between atoms: N_15  and  C_19
REMARK    3  A    between atoms: C_19  and  N_20
REMARK    4  A    between atoms: C_24  and  C_26
REMARK                            x       y       z     vdW  Elec       q    Type
REMARK                         _______ _______ _______ _____ _____    ______ ____
ROOT
ATOM      1  C   UNL     1       3.711  -0.707  -0.038  0.00  0.00    +0.019 C 
ATOM      2  C   UNL     1       3.818  -1.590   1.208  0.00  0.00    +0.011 C 
ATOM      3  C   UNL     1       5.159  -2.329   1.194  0.00  0.00    +0.036 C 
ATOM      4  C   UNL     1       5.258  -3.183  -0.065  0.00  0.00    +0.113 C 
ATOM      5  C   UNL     1       5.131  -2.318  -1.315  0.00  0.00    +0.036 C 
ATOM      6  C   UNL     1       3.791  -1.579  -1.292  0.00  0.00    +0.011 C 
ATOM      7  C   UNL     1       6.560  -3.949  -0.082  0.00  0.00    +0.248 C 
ATOM      8  O   UNL     1       7.682  -3.489  -0.092  0.00  0.00    -0.273 OA
ATOM      9  N   UNL     1       6.212  -5.252  -0.084  0.00  0.00    -0.211 N 
ATOM     10  C   UNL     1       4.882  -5.407  -0.070  0.00  0.00    +0.310 C 
ATOM     11  O   UNL     1       4.328  -6.488  -0.069  0.00  0.00    -0.252 OA
ATOM     12  N   UNL     1       4.228  -4.230  -0.058  0.00  0.00    -0.285 N 
ATOM     13  H   UNL     1       3.267  -4.099  -0.047  0.00  0.00    +0.151 HD
ENDROOT
BRANCH   1  17
ATOM     14  C   UNL     1      -0.017   1.378   0.010  0.00  0.00    +0.000 A 
ATOM     15  C   UNL     1       1.171   2.086   0.002  0.00  0.00    +0.000 A 
ATOM     16  C   UNL     1       2.377   1.411  -0.013  0.00  0.00    +0.004 A 
ATOM     17  C   UNL     1       2.396   0.029  -0.020  0.00  0.00    -0.044 A 
ATOM     18  C   UNL     1       1.208  -0.679  -0.012  0.00  0.00    +0.004 A 
ATOM     19  C   UNL     1       0.002  -0.004   0.002  0.00  0.00    +0.000 A 
ENDBRANCH   1  17
BRANCH   9  20
ATOM     20  C   UNL     1       7.170  -6.360  -0.100  0.00  0.00    +0.205 C 
BRANCH  20  21
ATOM     21  N   UNL     1       7.506  -6.737   1.279  0.00  0.00    -0.281 NA
ATOM     22  C   UNL     1       8.527  -5.838   1.837  0.00  0.00    +0.114 C 
ATOM     23  C   UNL     1       8.803  -6.228   3.292  0.00  0.00    +0.176 C 
ATOM     24  O   UNL     1       9.203  -7.600   3.344  0.00  0.00    -0.365 OA
ATOM     25  C   UNL     1       8.231  -8.504   2.809  0.00  0.00    +0.217 C 
ATOM     26  C   UNL     1       7.949  -8.137   1.350  0.00  0.00    +0.127 C 
BRANCH  25  27
ATOM     27  C   UNL     1       8.762  -9.913   2.881  0.00  0.00    +0.241 C 
ATOM     28  O   UNL     1       9.897 -10.115   3.258  0.00  0.00    -0.273 OA
ATOM     29  N   UNL     1       7.976 -10.947   2.524  0.00  0.00    -0.327 N 
ATOM     30  H   UNL     1       7.068 -10.786   2.222  0.00  0.00    +0.145 HD
ATOM     31  H   UNL     1       8.317 -11.854   2.570  0.00  0.00    +0.145 HD
ENDBRANCH  25  27
ENDBRANCH  20  21
ENDBRANCH   9  20
TORSDOF 4
