REMARK  Name = ZINC41392915
REMARK  5 active torsions:
REMARK  status: ('A' for Active; 'I' for Inactive)
REMARK    1  A    between atoms: C_1  and  C_2
REMARK    2  A    between atoms: C_2  and  C_3
REMARK    3  A    between atoms: C_3  and  C_4
REMARK    4  A    between atoms: C_5  and  C_10
REMARK    5  A    between atoms: C_6  and  N_9
REMARK                            x       y       z     vdW  Elec       q    Type
REMARK                         _______ _______ _______ _____ _____    ______ ____
ROOT
ATOM      1  C   UNL     1       0.739  -2.004  -1.265  0.00  0.00    +0.093 A 
ATOM      2  C   UNL     1       1.743  -2.821  -0.702  0.00  0.00    +0.066 A 
ATOM      3  C   UNL     1       1.381  -4.136  -0.926  0.00  0.00    +0.223 A 
ATOM      4  O   UNL     1       0.215  -4.125  -1.592  0.00  0.00    -0.339 OA
ATOM      5  N   UNL     1      -0.170  -2.778  -1.788  0.00  0.00    -0.080 NA
ENDROOT
BRANCH   2   6
ATOM      6  C   UNL     1       2.962  -2.355   0.000  0.00  0.00    -0.010 A 
ATOM      7  C   UNL     1       3.934  -1.633  -0.691  0.00  0.00    +0.010 A 
ATOM      8  C   UNL     1       5.068  -1.201  -0.033  0.00  0.00    +0.022 A 
ATOM      9  C   UNL     1       5.240  -1.482   1.312  0.00  0.00    +0.059 A 
ATOM     10  C   UNL     1       4.278  -2.199   2.003  0.00  0.00    +0.060 A 
ATOM     11  C   UNL     1       3.137  -2.631   1.355  0.00  0.00    +0.030 A 
ATOM     12 CL   UNL     1       4.502  -2.548   3.689  0.00  0.00    -0.082 Cl
ATOM     13 CL   UNL     1       6.668  -0.935   2.133  0.00  0.00    -0.082 Cl
ENDBRANCH   2   6
BRANCH   3  14
ATOM     14  N   UNL     1       2.088  -5.254  -0.538  0.00  0.00    -0.327 N 
ATOM     15  H   UNL     1       2.926  -5.156  -0.058  0.00  0.00    +0.145 HD
ATOM     16  H   UNL     1       1.748  -6.139  -0.744  0.00  0.00    +0.145 HD
ENDBRANCH   3  14
BRANCH   1  17
ATOM     17  C   UNL     1       0.718  -0.497  -1.257  0.00  0.00    +0.059 C 
BRANCH  17  19
ATOM     18  C   UNL     1      -0.019   1.526   0.010  0.00  0.00    +0.004 C 
ATOM     19  C   UNL     1       0.002  -0.004   0.002  0.00  0.00    +0.003 C 
ENDBRANCH  17  19
ENDBRANCH   1  17
TORSDOF 4
