REMARK  Name = ZINC40708274
REMARK  8 active torsions:
REMARK  status: ('A' for Active; 'I' for Inactive)
REMARK    1  A    between atoms: C_1  and  C_2
REMARK    2  A    between atoms: C_5  and  O_8
REMARK    3  A    between atoms: O_8  and  C_9
REMARK    4  A    between atoms: C_10  and  N_19
REMARK    5  A    between atoms: C_11  and  N_15
REMARK    6  A    between atoms: N_15  and  C_16
REMARK    7  A    between atoms: C_16  and  C_17
REMARK    8  A    between atoms: C_16  and  C_18
REMARK                            x       y       z     vdW  Elec       q    Type
REMARK                         _______ _______ _______ _____ _____    ______ ____
ROOT
ATOM      1  C   UNL     1       0.178  -4.771   1.169  0.00  0.00    +0.246 A 
ATOM      2  C   UNL     1       0.313  -6.158   1.214  0.00  0.00    +0.128 A 
ATOM      3  C   UNL     1       0.432  -6.769   2.464  0.00  0.00    +0.147 A 
ATOM      4  N   UNL     1       0.413  -6.009   3.557  0.00  0.00    -0.219 NA
ATOM      5  C   UNL     1       0.284  -4.701   3.469  0.00  0.00    +0.227 A 
ATOM      6  N   UNL     1       0.174  -4.086   2.308  0.00  0.00    -0.199 NA
ENDROOT
BRANCH   2   7
ATOM      7  N   UNL     1       0.327  -6.919   0.035  0.00  0.00    -0.351 N 
ATOM      8  H   UNL     1       0.243  -6.481  -0.827  0.00  0.00    +0.143 HD
ATOM      9  H   UNL     1       0.422  -7.884   0.081  0.00  0.00    +0.143 HD
ENDBRANCH   2   7
BRANCH   3  10
ATOM     10  N   UNL     1       0.569  -8.148   2.566  0.00  0.00    -0.325 N 
ATOM     11  H   UNL     1       0.581  -8.694   1.765  0.00  0.00    +0.148 HD
BRANCH  10  12
ATOM     12  C   UNL     1       0.693  -8.777   3.883  0.00  0.00    +0.066 C 
ATOM     13  C   UNL     1      -0.700  -9.018   4.467  0.00  0.00    +0.027 C 
ATOM     14  C   UNL     1       1.427 -10.112   3.744  0.00  0.00    +0.027 C 
ENDBRANCH  10  12
ENDBRANCH   3  10
BRANCH   1  15
ATOM     15  O   UNL     1       0.059  -4.129  -0.021  0.00  0.00    -0.436 OA
BRANCH  15  20
ATOM     16  C   UNL     1      -0.026   1.503   0.010  0.00  0.00    +0.044 C 
ATOM     17  C   UNL     1      -0.004  -0.004   0.002  0.00  0.00    -0.050 A 
ATOM     18  C   UNL     1       1.193  -0.677   0.167  0.00  0.00    +0.007 A 
ATOM     19  C   UNL     1       1.217  -2.058   0.161  0.00  0.00    +0.046 A 
ATOM     20  C   UNL     1       0.038  -2.770  -0.013  0.00  0.00    +0.130 A 
ATOM     21  C   UNL     1      -1.161  -2.092  -0.179  0.00  0.00    +0.046 A 
ATOM     22  C   UNL     1      -1.180  -0.711  -0.166  0.00  0.00    +0.007 A 
ENDBRANCH  15  20
ENDBRANCH   1  15
TORSDOF 5
