REMARK  Name = ZINC39694482
REMARK  5 active torsions:
REMARK  status: ('A' for Active; 'I' for Inactive)
REMARK    1  A    between atoms: N_4  and  C_6
REMARK    2  A    between atoms: C_6  and  C_7
REMARK    3  A    between atoms: C_7  and  N_8
REMARK    4  A    between atoms: C_9  and  C_11
REMARK    5  A    between atoms: C_22  and  C_24
REMARK                            x       y       z     vdW  Elec       q    Type
REMARK                         _______ _______ _______ _____ _____    ______ ____
ROOT
ATOM      1  C   UNL     1       4.947  -4.696  -1.982  0.00  0.00    +0.100 C 
ATOM      2  C   UNL     1       5.713  -5.280  -0.774  0.00  0.00    +0.121 C 
ATOM      3  N   UNL     1       6.702  -6.207  -1.371  0.00  0.00    -0.296 N 
ATOM      4  C   UNL     1       7.176  -5.507  -2.589  0.00  0.00    +0.115 C 
ATOM      5  C   UNL     1       5.910  -4.846  -3.171  0.00  0.00    -0.004 C 
ATOM      6  C   UNL     1       6.251  -3.477  -3.752  0.00  0.00    -0.010 C 
ATOM      7  C   UNL     1       7.163  -3.656  -4.969  0.00  0.00    -0.082 C 
ATOM      8  N   UNL     1       6.484  -4.482  -5.975  0.00  0.00    +0.379 N 
ATOM      9  C   UNL     1       6.244  -5.827  -5.439  0.00  0.00    -0.082 C 
ATOM     10  C   UNL     1       5.293  -5.740  -4.242  0.00  0.00    -0.010 C 
ATOM     11  C   UNL     1       7.085  -7.415  -0.911  0.00  0.00    +0.247 C 
ATOM     12  O   UNL     1       6.511  -7.914   0.037  0.00  0.00    -0.270 OA
ATOM     13  H   UNL     1       5.603  -4.056  -6.218  0.00  0.00    -0.086 HD
ATOM     14  H   UNL     1       7.062  -4.548  -6.799  0.00  0.00    -0.086 HD
ENDROOT
BRANCH  11  15
ATOM     15  C   UNL     1       8.204  -8.132  -1.559  0.00  0.00    +0.040 A 
ATOM     16  C   UNL     1       9.132  -7.431  -2.331  0.00  0.00    +0.033 A 
ATOM     17  C   UNL     1      10.175  -8.107  -2.933  0.00  0.00    +0.043 A 
ATOM     18  C   UNL     1      10.302  -9.476  -2.773  0.00  0.00    +0.040 A 
ATOM     19  C   UNL     1       9.384 -10.177  -2.008  0.00  0.00    +0.043 A 
ATOM     20  C   UNL     1       8.340  -9.511  -1.396  0.00  0.00    +0.033 A 
ATOM     21 CL   UNL     1       9.550 -11.894  -1.814  0.00  0.00    -0.083 Cl
ATOM     22 CL   UNL     1      11.330  -7.237  -3.894  0.00  0.00    -0.083 Cl
ENDBRANCH  11  15
BRANCH   1  24
ATOM     23  N   UNL     1       3.521  -2.699  -2.296  0.00  0.00    -0.313 N 
ATOM     24  C   UNL     1       4.626  -3.243  -1.747  0.00  0.00    +0.218 C 
ATOM     25  O   UNL     1       5.362  -2.562  -1.065  0.00  0.00    -0.275 OA
ATOM     26  H   UNL     1       2.933  -3.244  -2.842  0.00  0.00    +0.149 HD
BRANCH  23  27
ATOM     27  C   UNL     1       3.209  -1.286  -2.068  0.00  0.00    +0.127 C 
BRANCH  27  28
ATOM     28  C   UNL     1       1.913  -0.926  -2.796  0.00  0.00    +0.162 C 
BRANCH  28  32
ATOM     29  C   UNL     1       1.131   2.593  -2.902  0.00  0.00    +0.041 A 
ATOM     30  C   UNL     1       1.192   2.374  -1.522  0.00  0.00    +0.134 A 
ATOM     31  N   UNL     1       1.473   1.112  -1.321  0.00  0.00    -0.180 NA
ATOM     32  N   UNL     1       1.601   0.487  -2.568  0.00  0.00    -0.270 N 
ATOM     33  C   UNL     1       1.387   1.417  -3.522  0.00  0.00    +0.108 A 
ENDBRANCH  28  32
ENDBRANCH  27  28
ENDBRANCH  23  27
ENDBRANCH   1  24
TORSDOF 5
