REMARK  Name = ZINC05517868
REMARK  6 active torsions:
REMARK  status: ('A' for Active; 'I' for Inactive)
REMARK    1  A    between atoms: C_1  and  C_2
REMARK    2  A    between atoms: C_3  and  C_22
REMARK    3  A    between atoms: C_4  and  C_10
REMARK    4  A    between atoms: C_13  and  C_16
REMARK    5  A    between atoms: N_24  and  C_25
REMARK    6  A    between atoms: N_24  and  C_26
REMARK                            x       y       z     vdW  Elec       q    Type
REMARK                         _______ _______ _______ _____ _____    ______ ____
ROOT
ATOM      1  C   UNL     1       1.206  11.431   3.180  0.00  0.00    +0.061 C 
ATOM      2  C   UNL     1       1.034  10.904   1.778  0.00  0.00    +0.019 C 
ATOM      3  C   UNL     1       0.013  10.065   1.505  0.00  0.00    +0.056 C 
ATOM      4  C   UNL     1      -0.123   9.560   0.084  0.00  0.00    +0.142 C 
ATOM      5  N   UNL     1       0.876  10.029  -0.891  0.00  0.00    -0.288 N 
ATOM      6  C   UNL     1       1.840  10.870  -0.466  0.00  0.00    +0.304 C 
ATOM      7  O   UNL     1       2.670  11.263  -1.263  0.00  0.00    -0.252 OA
ATOM      8  N   UNL     1       1.914  11.285   0.805  0.00  0.00    -0.273 N 
ATOM      9  H   UNL     1       0.841   9.741  -1.816  0.00  0.00    +0.151 HD
ATOM     10  H   UNL     1       2.632  11.890   1.048  0.00  0.00    +0.156 HD
ENDROOT
BRANCH   4  11
ATOM     11  C   UNL     1      -0.066   8.054   0.118  0.00  0.00    -0.023 A 
ATOM     12  C   UNL     1      -1.238   7.319   0.107  0.00  0.00    +0.006 A 
ATOM     13  C   UNL     1      -1.192   5.941   0.139  0.00  0.00    +0.009 A 
ATOM     14  C   UNL     1       0.039   5.288   0.182  0.00  0.00    -0.018 A 
ATOM     15  C   UNL     1       1.216   6.033   0.199  0.00  0.00    +0.009 A 
ATOM     16  C   UNL     1       1.158   7.412   0.161  0.00  0.00    +0.006 A 
BRANCH  14  17
ATOM     17  C   UNL     1       0.095   3.806   0.217  0.00  0.00    -0.018 A 
ATOM     18  C   UNL     1       1.326   3.154   0.260  0.00  0.00    +0.008 A 
ATOM     19  C   UNL     1       1.372   1.775   0.292  0.00  0.00    +0.001 A 
ATOM     20  C   UNL     1       0.200   1.040   0.282  0.00  0.00    +0.000 A 
ATOM     21  C   UNL     1      -1.024   1.682   0.234  0.00  0.00    +0.001 A 
ATOM     22  C   UNL     1      -1.082   3.061   0.207  0.00  0.00    +0.008 A 
ENDBRANCH  14  17
ENDBRANCH   4  11
BRANCH   3  23
ATOM     23  C   UNL     1      -0.899   9.669   2.515  0.00  0.00    +0.246 C 
ATOM     24  O   UNL     1      -0.746   8.608   3.091  0.00  0.00    -0.270 OA
ATOM     25  N   UNL     1      -1.937  10.467   2.836  0.00  0.00    -0.304 N 
ATOM     26  C   UNL     1      -2.810  10.117   3.958  0.00  0.00    +0.132 C 
ATOM     27  C   UNL     1      -2.191  11.685   2.062  0.00  0.00    +0.132 C 
ENDBRANCH   3  23
TORSDOF 3
