REMARK  Name = ZINC59459459
REMARK  5 active torsions:
REMARK  status: ('A' for Active; 'I' for Inactive)
REMARK    1  A    between atoms: C_1  and  O_2
REMARK    2  A    between atoms: O_2  and  C_3
REMARK    3  A    between atoms: C_5  and  C_10
REMARK    4  A    between atoms: C_8  and  O_9
REMARK    5  A    between atoms: N_18  and  C_19
REMARK                            x       y       z     vdW  Elec       q    Type
REMARK                         _______ _______ _______ _____ _____    ______ ____
ROOT
ATOM      1  C   UNL     1       2.433  -0.788  -2.564  0.00  0.00    +0.191 C 
ATOM      2  N   UNL     1       3.319  -1.145  -3.679  0.00  0.00    -0.307 N 
ATOM      3  C   UNL     1       4.643  -0.709  -3.600  0.00  0.00    +0.125 A 
ATOM      4  C   UNL     1       4.894   0.412  -2.831  0.00  0.00    +0.115 A 
ATOM      5  S   UNL     1       6.637   0.628  -2.999  0.00  0.00    -0.055 S 
ATOM      6  C   UNL     1       6.948  -0.687  -4.006  0.00  0.00    +0.132 A 
ATOM      7  S   UNL     1       8.453  -1.193  -4.648  0.00  0.00    -0.024 S 
ATOM      8  N   UNL     1       5.733  -1.249  -4.188  0.00  0.00    -0.285 N 
ATOM      9  C   UNL     1       3.919   1.118  -2.128  0.00  0.00    +0.256 C 
ATOM     10  O   UNL     1       4.171   2.173  -1.572  0.00  0.00    -0.269 OA
ATOM     11  N   UNL     1       2.677   0.574  -2.093  0.00  0.00    -0.289 N 
ATOM     12  H   UNL     1       3.000  -1.659  -4.437  0.00  0.00    +0.150 HD
ATOM     13  H   UNL     1       1.938   1.099  -1.748  0.00  0.00    +0.151 HD
ENDROOT
BRANCH   1  16
ATOM     14  C   UNL     1       2.662  -2.223   0.923  0.00  0.00    +0.162 A 
ATOM     15  C   UNL     1       2.451  -1.340  -0.124  0.00  0.00    +0.056 A 
ATOM     16  C   UNL     1       2.662  -1.750  -1.427  0.00  0.00    -0.006 A 
ATOM     17  C   UNL     1       3.083  -3.040  -1.690  0.00  0.00    +0.011 A 
ATOM     18  C   UNL     1       3.294  -3.927  -0.650  0.00  0.00    +0.049 A 
ATOM     19  C   UNL     1       3.091  -3.520   0.659  0.00  0.00    +0.158 A 
BRANCH  14  21
ATOM     20  C   UNL     1       2.015  -0.476   2.401  0.00  0.00    +0.277 C 
ATOM     21  O   UNL     1       2.455  -1.821   2.206  0.00  0.00    -0.491 OA
ENDBRANCH  14  21
BRANCH  19  22
ATOM     22  O   UNL     1       3.304  -4.389   1.683  0.00  0.00    -0.503 OA
ATOM     23  H   UNL     1       2.526  -4.908   1.928  0.00  0.00    +0.292 HD
ENDBRANCH  19  22
ENDBRANCH   1  16
BRANCH   8  24
ATOM     24  C   UNL     1       5.604  -2.393  -4.987  0.00  0.00    +0.049 A 
ATOM     25  C   UNL     1       5.750  -3.654  -4.425  0.00  0.00    +0.026 A 
ATOM     26  C   UNL     1       5.621  -4.779  -5.215  0.00  0.00    +0.002 A 
ATOM     27  C   UNL     1       5.348  -4.651  -6.564  0.00  0.00    +0.000 A 
ATOM     28  C   UNL     1       5.202  -3.396  -7.127  0.00  0.00    +0.002 A 
ATOM     29  C   UNL     1       5.323  -2.267  -6.341  0.00  0.00    +0.026 A 
ENDBRANCH   8  24
TORSDOF 4
