REMARK  Name = ZINC01268783
REMARK  9 active torsions:
REMARK  status: ('A' for Active; 'I' for Inactive)
REMARK    1  A    between atoms: C_1  and  C_2
REMARK    2  A    between atoms: C_2  and  C_3
REMARK    3  A    between atoms: C_2  and  C_4
REMARK    4  A    between atoms: C_2  and  C_5
REMARK    5  A    between atoms: C_8  and  C_11
REMARK    6  A    between atoms: C_16  and  C_33
REMARK    7  A    between atoms: C_26  and  C_28
REMARK    8  A    between atoms: C_28  and  C_29
REMARK    9  A    between atoms: C_29  and  C_30
REMARK                            x       y       z     vdW  Elec       q    Type
REMARK                         _______ _______ _______ _____ _____    ______ ____
ROOT
ATOM      1  C   UNL     1       4.490   1.260   3.744  0.00  0.00    +0.032 C 
ATOM      2  C   UNL     1       3.878   2.598   3.335  0.00  0.00    +0.059 C 
ATOM      3  C   UNL     1       2.948   2.401   2.147  0.00  0.00    +0.017 C 
ATOM      4  C   UNL     1       3.215   1.462   1.228  0.00  0.00    +0.037 C 
ATOM      5  C   UNL     1       2.400   1.181  -0.015  0.00  0.00    +0.147 C 
ATOM      6  N   UNL     1       1.112   1.839  -0.041  0.00  0.00    -0.258 N 
ATOM      7  C   UNL     1       1.016   3.229  -0.083  0.00  0.00    +0.058 A 
ATOM      8  C   UNL     1       0.508   3.883  -1.195  0.00  0.00    +0.025 A 
ATOM      9  C   UNL     1       0.485   5.266  -1.221  0.00  0.00    +0.002 A 
ATOM     10  C   UNL     1       0.968   5.996  -0.149  0.00  0.00    +0.002 A 
ATOM     11  C   UNL     1       1.455   5.343   0.986  0.00  0.00    +0.025 A 
ATOM     12  C   UNL     1       1.457   3.959   1.016  0.00  0.00    +0.053 A 
ATOM     13  N   UNL     1       1.879   3.239   2.128  0.00  0.00    -0.316 N 
ATOM     14  C   UNL     1      -0.013   1.097  -0.032  0.00  0.00    +0.221 C 
ATOM     15  O   UNL     1       0.059  -0.113  -0.001  0.00  0.00    -0.275 OA
ATOM     16  C   UNL     1       4.343   0.620   1.371  0.00  0.00    +0.163 C 
ATOM     17  O   UNL     1       4.566  -0.212   0.514  0.00  0.00    -0.292 OA
ATOM     18  C   UNL     1       5.274   0.718   2.542  0.00  0.00    +0.088 C 
ATOM     19  H   UNL     1       1.277   3.384   3.037  0.00  0.00    +0.152 HD
ENDROOT
BRANCH   1  23
ATOM     20  C   UNL     1       7.124   1.824   7.059  0.00  0.00    -0.042 A 
ATOM     21  C   UNL     1       6.031   0.986   7.179  0.00  0.00    +0.004 A 
ATOM     22  C   UNL     1       5.179   0.803   6.106  0.00  0.00    +0.004 A 
ATOM     23  C   UNL     1       5.419   1.459   4.913  0.00  0.00    -0.043 A 
ATOM     24  C   UNL     1       6.515   2.293   4.791  0.00  0.00    +0.004 A 
ATOM     25  C   UNL     1       7.365   2.479   5.865  0.00  0.00    +0.004 A 
BRANCH  20  27
ATOM     26  C   UNL     1       8.661   0.678   8.632  0.00  0.00    +0.015 C 
ATOM     27  C   UNL     1       8.053   2.023   8.228  0.00  0.00    -0.013 C 
ATOM     28  C   UNL     1       9.171   2.990   7.833  0.00  0.00    +0.015 C 
ATOM     29  C   UNL     1       7.271   2.604   9.408  0.00  0.00    +0.015 C 
ENDBRANCH  20  27
ENDBRANCH   1  23
BRANCH   5  30
ATOM     30  C   UNL     1       3.192   1.626  -1.217  0.00  0.00    -0.019 A 
ATOM     31  C   UNL     1       3.664   0.703  -2.138  0.00  0.00    +0.025 A 
ATOM     32  C   UNL     1       4.382   1.149  -3.231  0.00  0.00    +0.111 A 
ATOM     33  N   UNL     1       4.628   2.434  -3.398  0.00  0.00    -0.263 NA
ATOM     34  C   UNL     1       4.198   3.340  -2.540  0.00  0.00    +0.111 A 
ATOM     35  C   UNL     1       3.470   2.968  -1.426  0.00  0.00    +0.025 A 
ENDBRANCH   5  30
BRANCH  14  36
ATOM     36  C   UNL     1      -1.361   1.771  -0.066  0.00  0.00    +0.107 C 
BRANCH  36  37
ATOM     37  C   UNL     1      -2.462   0.709  -0.054  0.00  0.00    +0.134 C 
BRANCH  37  38
ATOM     38  C   UNL     1      -3.810   1.383  -0.088  0.00  0.00    +0.356 C 
ATOM     39  O   UNL     1      -3.882   2.588  -0.119  0.00  0.00    -0.246 OA
ATOM     40  O   UNL     1      -4.930   0.643  -0.084  0.00  0.00    -0.246 OA
ENDBRANCH  37  38
ENDBRANCH  36  37
ENDBRANCH  14  36
TORSDOF 6
