REMARK  Name = ZINC38756781
REMARK  4 active torsions:
REMARK  status: ('A' for Active; 'I' for Inactive)
REMARK    1  A    between atoms: N_11  and  S_12
REMARK    2  A    between atoms: S_12  and  C_15
REMARK    3  A    between atoms: C_15  and  C_16
REMARK    4  A    between atoms: C_20  and  N_22
REMARK                            x       y       z     vdW  Elec       q    Type
REMARK                         _______ _______ _______ _____ _____    ______ ____
ROOT
ATOM      1  S   UNL     1       4.976  -0.009  -0.722  0.00  0.00    +0.050 S 
ATOM      2  O   UNL     1       5.762  -1.133  -1.095  0.00  0.00    -0.155 OA
ATOM      3  O   UNL     1       4.484   0.889  -1.707  0.00  0.00    -0.155 OA
ENDROOT
BRANCH   1  14
ATOM      4  C   UNL     1      -0.017   1.379   0.010  0.00  0.00    +0.002 A 
ATOM      5  C   UNL     1       1.167   2.094   0.002  0.00  0.00    +0.002 A 
ATOM      6  C   UNL     1       2.381   1.430  -0.011  0.00  0.00    +0.026 A 
ATOM      7  C   UNL     1       2.406   0.047  -0.017  0.00  0.00    +0.073 A 
ATOM      8  C   UNL     1       1.213  -0.677  -0.014  0.00  0.00    +0.056 A 
ATOM      9  C   UNL     1       0.002  -0.004   0.002  0.00  0.00    +0.025 A 
ATOM     10  N   UNL     1       1.254  -2.077  -0.032  0.00  0.00    -0.283 N 
ATOM     11  C   UNL     1       2.399  -2.734   0.233  0.00  0.00    +0.236 C 
ATOM     12  O   UNL     1       2.423  -3.945   0.170  0.00  0.00    -0.274 OA
ATOM     13  C   UNL     1       3.651  -1.982   0.608  0.00  0.00    +0.227 C 
ATOM     14  N   UNL     1       3.620  -0.655  -0.024  0.00  0.00    -0.196 N 
ATOM     15  H   UNL     1       0.449  -2.578  -0.238  0.00  0.00    +0.155 HD
ENDBRANCH   1  14
BRANCH   1  16
ATOM     16  C   UNL     1       5.793   0.911   0.611  0.00  0.00    +0.224 C 
BRANCH  16  17
ATOM     17  C   UNL     1       7.053   1.547   0.083  0.00  0.00    -0.023 A 
ATOM     18  C   UNL     1       8.249   0.856   0.132  0.00  0.00    +0.005 A 
ATOM     19  C   UNL     1       9.405   1.440  -0.352  0.00  0.00    +0.003 A 
ATOM     20  C   UNL     1       9.364   2.714  -0.887  0.00  0.00    +0.033 A 
ATOM     21  C   UNL     1       8.168   3.405  -0.937  0.00  0.00    +0.127 A 
ATOM     22  C   UNL     1       7.011   2.819  -0.457  0.00  0.00    +0.038 A 
BRANCH  21  23
ATOM     23  N   UNL     1       8.124   4.769  -1.509  0.00  0.00    +0.056 N 
ATOM     24  O   UNL     1       9.135   5.280  -1.932  0.00  0.00    -0.126 OA
ATOM     25  O   UNL     1       7.078   5.373  -1.553  0.00  0.00    -0.126 OA
ENDBRANCH  21  23
ENDBRANCH  16  17
ENDBRANCH   1  16
TORSDOF 4
