REMARK  Name = ZINC04039703
REMARK  7 active torsions:
REMARK  status: ('A' for Active; 'I' for Inactive)
REMARK    1  A    between atoms: C_1  and  C_2
REMARK    2  A    between atoms: C_2  and  C_3
REMARK    3  A    between atoms: C_3  and  C_4
REMARK    4  A    between atoms: C_11  and  N_27
REMARK    5  A    between atoms: C_12  and  C_25
REMARK    6  A    between atoms: N_20  and  C_23
REMARK    7  A    between atoms: C_23  and  C_24
REMARK                            x       y       z     vdW  Elec       q    Type
REMARK                         _______ _______ _______ _____ _____    ______ ____
ROOT
ATOM      1  C   UNL     1      -1.413  -2.041   0.005  0.00  0.00    +0.071 A 
ATOM      2  C   UNL     1      -1.407  -2.849  -1.124  0.00  0.00    +0.061 A 
ATOM      3  C   UNL     1      -1.388  -4.154  -0.710  0.00  0.00    +0.223 A 
ATOM      4  N   UNL     1      -1.381  -4.152   0.633  0.00  0.00    -0.246 N 
ATOM      5  H   UNL     1      -1.367  -4.936   1.204  0.00  0.00    +0.192 HD
ATOM      6  N   UNL     1      -1.392  -2.816   1.062  0.00  0.00    -0.176 NA
ATOM      7  O   UNL     1      -1.379  -5.195  -1.578  0.00  0.00    -0.423 OA
ATOM      8  C   UNL     1      -1.657  -4.941  -2.873  0.00  0.00    +0.201 C 
ATOM      9  C   UNL     1      -1.693  -3.696  -3.403  0.00  0.00    +0.110 C 
ATOM     10  C   UNL     1      -1.418  -2.469  -2.577  0.00  0.00    +0.145 C 
ATOM     11  C   UNL     1      -0.132  -1.820  -2.979  0.00  0.00    -0.001 A 
ATOM     12  C   UNL     1       1.167  -2.281  -2.974  0.00  0.00    +0.007 A 
ATOM     13  C   UNL     1       2.149  -1.404  -3.420  0.00  0.00    +0.000 A 
ATOM     14  C   UNL     1       1.835  -0.131  -3.849  0.00  0.00    +0.002 A 
ATOM     15  C   UNL     1       0.532   0.340  -3.858  0.00  0.00    +0.024 A 
ATOM     16  C   UNL     1      -0.465  -0.530  -3.413  0.00  0.00    +0.041 A 
ATOM     17  N   UNL     1      -1.830  -0.328  -3.317  0.00  0.00    -0.270 N 
ATOM     18  C   UNL     1      -2.471  -1.415  -2.837  0.00  0.00    +0.240 C 
ATOM     19  O   UNL     1      -3.664  -1.525  -2.650  0.00  0.00    -0.274 OA
ENDROOT
BRANCH   8  20
ATOM     20  N   UNL     1      -1.919  -6.005  -3.700  0.00  0.00    -0.328 N 
ATOM     21  H   UNL     1      -1.900  -6.908  -3.348  0.00  0.00    +0.145 HD
ATOM     22  H   UNL     1      -2.122  -5.852  -4.636  0.00  0.00    +0.145 HD
ENDBRANCH   8  20
BRANCH  17  23
ATOM     23  C   UNL     1      -2.501   0.919  -3.693  0.00  0.00    +0.110 C 
ATOM     24  C   UNL     1      -2.902   0.859  -5.168  0.00  0.00    +0.025 C 
ENDBRANCH  17  23
BRANCH   9  25
ATOM     25  C   UNL     1      -2.002  -3.542  -4.792  0.00  0.00    +0.102 C 
ATOM     26  N   UNL     1      -2.247  -3.420  -5.895  0.00  0.00    -0.191 NA
ENDBRANCH   9  25
BRANCH   1  27
ATOM     27  C   UNL     1      -1.433  -0.534   0.013  0.00  0.00    +0.057 C 
BRANCH  27  29
ATOM     28  C   UNL     1      -0.019   1.526   0.010  0.00  0.00    +0.004 C 
ATOM     29  C   UNL     1       0.002  -0.004   0.002  0.00  0.00    +0.003 C 
ENDBRANCH  27  29
ENDBRANCH   1  27
TORSDOF 5
