REMARK  Name = ZINC31818585
REMARK  6 active torsions:
REMARK  status: ('A' for Active; 'I' for Inactive)
REMARK    1  A    between atoms: C_3  and  N_22
REMARK    2  A    between atoms: C_6  and  C_7
REMARK    3  A    between atoms: C_10  and  C_12
REMARK    4  A    between atoms: C_12  and  S_13
REMARK    5  A    between atoms: S_13  and  C_14
REMARK    6  A    between atoms: C_18  and  N_20
REMARK                            x       y       z     vdW  Elec       q    Type
REMARK                         _______ _______ _______ _____ _____    ______ ____
ROOT
ATOM      1  C   UNL     1      -1.266  -0.764   0.011  0.00  0.00    +0.248 A 
ATOM      2  N   UNL     1      -2.477  -0.257   0.020  0.00  0.00    -0.107 NA
ATOM      3  N   UNL     1      -3.337  -1.214   0.025  0.00  0.00    -0.111 NA
ATOM      4  C   UNL     1      -2.714  -2.360   0.020  0.00  0.00    +0.228 A 
ATOM      5  O   UNL     1      -1.395  -2.106   0.005  0.00  0.00    -0.419 OA
ENDROOT
BRANCH   1  11
ATOM      6  C   UNL     1      -0.017   1.391   0.010  0.00  0.00    +0.015 A 
ATOM      7  C   UNL     1       1.170   2.094   0.002  0.00  0.00    +0.033 A 
ATOM      8  C   UNL     1       2.378   1.419  -0.013  0.00  0.00    +0.126 A 
ATOM      9  C   UNL     1       2.403   0.036  -0.021  0.00  0.00    +0.033 A 
ATOM     10  C   UNL     1       1.223  -0.679  -0.013  0.00  0.00    +0.015 A 
ATOM     11  C   UNL     1       0.002  -0.004   0.002  0.00  0.00    +0.039 A 
BRANCH   8  12
ATOM     12  N   UNL     1       3.647   2.180  -0.022  0.00  0.00    +0.056 N 
ATOM     13  O   UNL     1       3.628   3.388  -0.016  0.00  0.00    -0.126 OA
ATOM     14  O   UNL     1       4.704   1.592  -0.036  0.00  0.00    -0.126 OA
ENDBRANCH   8  12
ENDBRANCH   1  11
BRANCH   4  15
ATOM     15  C   UNL     1      -3.358  -3.723   0.024  0.00  0.00    +0.175 C 
BRANCH  15  16
ATOM     16  S   UNL     1      -3.629  -4.269  -1.684  0.00  0.00    -0.076 S 
BRANCH  16  17
ATOM     17  C   UNL     1      -4.377  -5.855  -1.511  0.00  0.00    +0.192 A 
ATOM     18  N   UNL     1      -4.600  -6.334  -0.296  0.00  0.00    -0.207 NA
ATOM     19  C   UNL     1      -5.163  -7.528  -0.127  0.00  0.00    +0.122 A 
ATOM     20  C   UNL     1      -5.519  -8.274  -1.247  0.00  0.00    +0.086 A 
ATOM     21  C   UNL     1      -5.269  -7.738  -2.507  0.00  0.00    +0.122 A 
ATOM     22  N   UNL     1      -4.706  -6.535  -2.599  0.00  0.00    -0.207 NA
ATOM     23  N   UNL     1      -5.393  -8.022   1.148  0.00  0.00    -0.343 N 
ATOM     24  H   UNL     1      -5.143  -7.496   1.924  0.00  0.00    +0.144 HD
ATOM     25  H   UNL     1      -5.804  -8.893   1.264  0.00  0.00    +0.144 HD
BRANCH  21  26
ATOM     26  N   UNL     1      -5.605  -8.446  -3.650  0.00  0.00    -0.343 N 
ATOM     27  H   UNL     1      -6.018  -9.320  -3.576  0.00  0.00    +0.144 HD
ATOM     28  H   UNL     1      -5.428  -8.066  -4.525  0.00  0.00    +0.144 HD
ENDBRANCH  21  26
ENDBRANCH  16  17
ENDBRANCH  15  16
ENDBRANCH   4  15
TORSDOF 6
