REMARK  Name = ZINC61820941
REMARK  6 active torsions:
REMARK  status: ('A' for Active; 'I' for Inactive)
REMARK    1  A    between atoms: C_1  and  C_2
REMARK    2  A    between atoms: C_4  and  C_16
REMARK    3  A    between atoms: C_7  and  N_8
REMARK    4  A    between atoms: C_11  and  C_14
REMARK    5  A    between atoms: C_11  and  C_15
REMARK    6  A    between atoms: C_17  and  C_18
REMARK                            x       y       z     vdW  Elec       q    Type
REMARK                         _______ _______ _______ _____ _____    ______ ____
ROOT
ATOM      1  C   UNL     1      -0.477   1.459   0.077  0.00  0.00    +0.045 C 
ATOM      2  C   UNL     1      -0.218  -0.025   0.034  0.00  0.00    -0.030 A 
ATOM      3  C   UNL     1      -0.320  -0.707  -1.160  0.00  0.00    +0.013 A 
ATOM      4  C   UNL     1      -0.079  -2.084  -1.198  0.00  0.00    -0.024 A 
ATOM      5  C   UNL     1       0.264  -2.759  -0.021  0.00  0.00    +0.010 A 
ATOM      6  C   UNL     1       0.362  -2.063   1.165  0.00  0.00    +0.022 A 
ATOM      7  C   UNL     1       0.127  -0.699   1.192  0.00  0.00    +0.016 A 
ENDROOT
BRANCH   7   8
ATOM      8  N   UNL     1       0.234   0.000   2.398  0.00  0.00    -0.393 NA
ATOM      9  C   UNL     1      -0.814  -0.453   3.319  0.00  0.00    +0.085 C 
ATOM     10  C   UNL     1      -0.752   0.366   4.611  0.00  0.00    +0.023 C 
ATOM     11  C   UNL     1       0.620   0.177   5.264  0.00  0.00    -0.032 C 
ATOM     12  C   UNL     1       1.709   0.583   4.266  0.00  0.00    +0.023 C 
ATOM     13  C   UNL     1       1.556  -0.244   2.988  0.00  0.00    +0.085 C 
ATOM     14  C   UNL     1       0.717   1.055   6.513  0.00  0.00    +0.011 C 
ATOM     15  C   UNL     1       0.803  -1.291   5.652  0.00  0.00    +0.011 C 
ATOM     16  H   UNL     1       0.123   0.988   2.224  0.00  0.00    +0.126 HD
ENDBRANCH   7   8
BRANCH   4  17
ATOM     17  C   UNL     1      -0.187  -2.819  -2.468  0.00  0.00    +0.015 C 
ATOM     18  C   UNL     1       0.047  -4.150  -2.500  0.00  0.00    +0.096 C 
BRANCH  18  19
ATOM     19  C   UNL     1      -0.057  -4.857  -3.722  0.00  0.00    +0.380 C 
ATOM     20  O   UNL     1      -0.358  -4.263  -4.750  0.00  0.00    -0.241 OA
ATOM     21  O   UNL     1       0.155  -6.064  -3.751  0.00  0.00    -0.241 OA
ENDBRANCH  18  19
ENDBRANCH   4  17
TORSDOF 3
