REMARK  Name = ZINC34936949
REMARK  4 active torsions:
REMARK  status: ('A' for Active; 'I' for Inactive)
REMARK    1  A    between atoms: C_4  and  O_18
REMARK    2  A    between atoms: C_5  and  N_7
REMARK    3  A    between atoms: N_7  and  S_8
REMARK    4  A    between atoms: S_8  and  C_11
REMARK                            x       y       z     vdW  Elec       q    Type
REMARK                         _______ _______ _______ _____ _____    ______ ____
ROOT
ATOM      1  N   UNL     1       1.290  -2.161  -0.030  0.00  0.00    -0.213 N 
ATOM      2  H   UNL     1       1.099  -1.425   0.572  0.00  0.00    +0.174 HD
ENDROOT
BRANCH   1   7
ATOM      3  C   UNL     1       4.354  -3.597  -1.471  0.00  0.00    +0.002 A 
ATOM      4  C   UNL     1       5.177  -3.633  -0.360  0.00  0.00    +0.004 A 
ATOM      5  C   UNL     1       4.715  -3.183   0.863  0.00  0.00    +0.047 A 
ATOM      6  C   UNL     1       3.424  -2.692   0.978  0.00  0.00    +0.139 A 
ATOM      7  C   UNL     1       2.595  -2.655  -0.141  0.00  0.00    +0.089 A 
ATOM      8  C   UNL     1       3.065  -3.109  -1.364  0.00  0.00    +0.028 A 
BRANCH   6   9
ATOM      9  O   UNL     1       2.968  -2.249   2.180  0.00  0.00    -0.505 OA
ATOM     10  H   UNL     1       3.128  -1.309   2.339  0.00  0.00    +0.292 HD
ENDBRANCH   6   9
ENDBRANCH   1   7
BRANCH   1  11
ATOM     11  S   UNL     1       0.071  -2.834  -0.927  0.00  0.00    +0.074 S 
ATOM     12  O   UNL     1       0.207  -4.243  -0.805  0.00  0.00    -0.150 OA
ATOM     13  O   UNL     1      -1.122  -2.151  -0.568  0.00  0.00    -0.150 OA
BRANCH  11  14
ATOM     14  C   UNL     1       0.389  -2.442  -2.615  0.00  0.00    +0.122 A 
ATOM     15  C   UNL     1       0.639  -3.453  -3.524  0.00  0.00    +0.030 A 
ATOM     16  C   UNL     1       0.888  -3.145  -4.848  0.00  0.00    +0.002 A 
ATOM     17  C   UNL     1       0.886  -1.826  -5.264  0.00  0.00    +0.001 A 
ATOM     18  C   UNL     1       0.636  -0.815  -4.356  0.00  0.00    +0.017 A 
ATOM     19  C   UNL     1       0.381  -1.123  -3.032  0.00  0.00    +0.044 A 
ATOM     20 BR   UNL     1       0.031   0.259  -1.790  0.00  0.00    -0.048 Br
ENDBRANCH  11  14
ENDBRANCH   1  11
TORSDOF 4
