REMARK  Name = ZINC09292719
REMARK  4 active torsions:
REMARK  status: ('A' for Active; 'I' for Inactive)
REMARK    1  A    between atoms: C_1  and  O_2
REMARK    2  A    between atoms: O_2  and  C_3
REMARK    3  A    between atoms: C_6  and  C_9
REMARK    4  A    between atoms: C_12  and  C_24
REMARK                            x       y       z     vdW  Elec       q    Type
REMARK                         _______ _______ _______ _____ _____    ______ ____
ROOT
ATOM      1  C   UNL     1       2.587  -2.550   4.310  0.00  0.00    +0.122 C 
ATOM      2  C   UNL     1       1.590  -3.454   5.045  0.00  0.00    +0.057 C 
ATOM      3  C   UNL     1       2.338  -4.343   6.045  0.00  0.00    +0.106 C 
ATOM      4  N   UNL     1       3.256  -5.222   5.296  0.00  0.00    -0.309 N 
ATOM      5  C   UNL     1       3.988  -4.628   4.280  0.00  0.00    +0.175 A 
ATOM      6  N   UNL     1       3.692  -3.369   3.805  0.00  0.00    -0.306 N 
ATOM      7  C   UNL     1       4.599  -3.083   2.823  0.00  0.00    +0.069 A 
ATOM      8  C   UNL     1       4.787  -1.975   2.006  0.00  0.00    +0.028 A 
ATOM      9  C   UNL     1       5.834  -2.031   1.099  0.00  0.00    +0.002 A 
ATOM     10  C   UNL     1       6.662  -3.135   1.001  0.00  0.00    +0.002 A 
ATOM     11  C   UNL     1       6.496  -4.250   1.803  0.00  0.00    +0.028 A 
ATOM     12  C   UNL     1       5.446  -4.216   2.727  0.00  0.00    +0.065 A 
ATOM     13  N   UNL     1       5.015  -5.118   3.638  0.00  0.00    -0.327 N 
ATOM     14  H   UNL     1       3.342  -6.166   5.505  0.00  0.00    +0.149 HD
ATOM     15  H   UNL     1       5.410  -5.990   3.794  0.00  0.00    +0.169 HD
ENDROOT
BRANCH   3  16
ATOM     16  C   UNL     1       3.124  -3.481   7.000  0.00  0.00    -0.026 A 
ATOM     17  C   UNL     1       4.339  -2.949   6.610  0.00  0.00    +0.007 A 
ATOM     18  C   UNL     1       5.061  -2.159   7.485  0.00  0.00    +0.022 A 
ATOM     19  C   UNL     1       4.566  -1.900   8.751  0.00  0.00    +0.059 A 
ATOM     20  C   UNL     1       3.349  -2.432   9.141  0.00  0.00    +0.060 A 
ATOM     21  C   UNL     1       2.626  -3.218   8.262  0.00  0.00    +0.027 A 
ATOM     22 CL   UNL     1       2.728  -2.107  10.729  0.00  0.00    -0.082 Cl
ATOM     23 CL   UNL     1       5.473  -0.908   9.851  0.00  0.00    -0.082 Cl
ENDBRANCH   3  16
BRANCH   1  27
ATOM     24  C   UNL     1       0.626  -0.618   1.042  0.00  0.00    +0.120 A 
ATOM     25  C   UNL     1       1.202   0.138   2.051  0.00  0.00    +0.046 A 
ATOM     26  C   UNL     1       1.835  -0.488   3.107  0.00  0.00    +0.009 A 
ATOM     27  C   UNL     1       1.895  -1.869   3.158  0.00  0.00    -0.024 A 
ATOM     28  C   UNL     1       1.322  -2.625   2.152  0.00  0.00    +0.009 A 
ATOM     29  C   UNL     1       0.682  -2.003   1.098  0.00  0.00    +0.046 A 
BRANCH  24  31
ATOM     30  C   UNL     1      -0.017   1.425   0.010  0.00  0.00    +0.277 C 
ATOM     31  O   UNL     1       0.002  -0.004   0.002  0.00  0.00    -0.495 OA
ENDBRANCH  24  31
ENDBRANCH   1  27
TORSDOF 3
