REMARK  Name = ZINC50864803
REMARK  9 active torsions:
REMARK  status: ('A' for Active; 'I' for Inactive)
REMARK    1  A    between atoms: C_1  and  C_2
REMARK    2  A    between atoms: C_2  and  C_3
REMARK    3  A    between atoms: C_4  and  C_19
REMARK    4  A    between atoms: C_6  and  C_11
REMARK    5  A    between atoms: C_8  and  N_9
REMARK    6  A    between atoms: N_9  and  C_10
REMARK    7  A    between atoms: C_12  and  C_18
REMARK    8  A    between atoms: N_14  and  C_17
REMARK    9  A    between atoms: C_15  and  C_16
REMARK                            x       y       z     vdW  Elec       q    Type
REMARK                         _______ _______ _______ _____ _____    ______ ____
ROOT
ATOM      1  C   UNL     1       0.707  -0.490  -1.238  0.00  0.00    +0.013 A 
ATOM      2  C   UNL     1       0.005  -0.723  -2.405  0.00  0.00    +0.047 A 
ATOM      3  N   UNL     1       0.653  -1.150  -3.478  0.00  0.00    -0.232 NA
ATOM      4  C   UNL     1       1.963  -1.355  -3.445  0.00  0.00    +0.165 A 
ATOM      5  N   UNL     1       2.673  -1.144  -2.345  0.00  0.00    -0.212 NA
ATOM      6  C   UNL     1       2.087  -0.709  -1.235  0.00  0.00    +0.126 A 
ATOM      7  C   UNL     1      -1.484  -0.495  -2.456  0.00  0.00    +0.066 C 
ENDROOT
BRANCH   4   8
ATOM      8  C   UNL     1       2.650  -1.833  -4.668  0.00  0.00    +0.062 A 
ATOM      9  C   UNL     1       2.046  -2.100  -5.914  0.00  0.00    +0.071 A 
ATOM     10  N   UNL     1       2.977  -2.500  -6.738  0.00  0.00    -0.176 NA
ATOM     11  N   UNL     1       4.201  -2.506  -6.059  0.00  0.00    -0.271 N 
ATOM     12  C   UNL     1       3.986  -2.091  -4.796  0.00  0.00    +0.047 A 
ATOM     13  C   UNL     1       5.029  -1.940  -3.719  0.00  0.00    +0.066 C 
ATOM     14  C   UNL     1       5.496  -2.892  -6.626  0.00  0.00    +0.172 C 
ATOM     15  C   UNL     1       0.582  -1.949  -6.238  0.00  0.00    +0.068 C 
ENDBRANCH   4   8
BRANCH   6  16
ATOM     16  N   UNL     1       2.832  -0.483  -0.089  0.00  0.00    -0.332 N 
ATOM     17  C   UNL     1       4.278  -0.717  -0.098  0.00  0.00    +0.127 C 
ATOM     18  H   UNL     1       2.396  -0.170   0.719  0.00  0.00    +0.147 HD
ENDBRANCH   6  16
BRANCH   1  20
ATOM     19  C   UNL     1      -0.019   1.526   0.010  0.00  0.00    +0.009 C 
ATOM     20  C   UNL     1       0.002  -0.004   0.002  0.00  0.00    +0.037 C 
ENDBRANCH   1  20
TORSDOF 3
