REMARK  Name = ZINC41624621
REMARK  7 active torsions:
REMARK  status: ('A' for Active; 'I' for Inactive)
REMARK    1  A    between atoms: C_1  and  O_2
REMARK    2  A    between atoms: O_2  and  C_3
REMARK    3  A    between atoms: C_3  and  C_5
REMARK    4  A    between atoms: N_16  and  C_17
REMARK    5  A    between atoms: C_17  and  C_18
REMARK    6  A    between atoms: N_23  and  C_24
REMARK    7  A    between atoms: C_24  and  C_25
REMARK                            x       y       z     vdW  Elec       q    Type
REMARK                         _______ _______ _______ _____ _____    ______ ____
ROOT
ATOM      1  C   UNL     1       0.657  -2.104  -1.120  0.00  0.00    +0.167 C 
ATOM      2  C   UNL     1      -0.775  -2.684  -1.178  0.00  0.00    +0.035 C 
ATOM      3  C   UNL     1      -0.971  -2.918  -2.690  0.00  0.00    +0.008 C 
ATOM      4  C   UNL     1      -2.058  -3.921  -2.986  0.00  0.00    +0.005 C 
ATOM      5  C   UNL     1      -1.706  -5.308  -2.451  0.00  0.00    +0.000 C 
ATOM      6  C   UNL     1      -0.393  -5.754  -3.106  0.00  0.00    +0.002 C 
ATOM      7  C   UNL     1       0.714  -4.801  -2.663  0.00  0.00    +0.019 C 
ATOM      8  C   UNL     1       0.425  -3.393  -3.132  0.00  0.00    +0.061 C 
ATOM      9  N   UNL     1       1.351  -2.516  -2.356  0.00  0.00    -0.278 NA
ENDROOT
BRANCH   1  10
ATOM     10  C   UNL     1       0.598  -0.600  -1.043  0.00  0.00    +0.324 C 
ATOM     11  O   UNL     1       1.088   0.070  -1.921  0.00  0.00    -0.249 OA
BRANCH  10  13
ATOM     12  C   UNL     1      -0.017   1.425   0.010  0.00  0.00    +0.280 C 
ATOM     13  O   UNL     1       0.002  -0.004   0.002  0.00  0.00    -0.467 OA
ENDBRANCH  10  13
ENDBRANCH   1  10
BRANCH   9  14
ATOM     14  C   UNL     1       2.607  -3.213  -2.048  0.00  0.00    +0.181 C 
BRANCH  14  15
ATOM     15  C   UNL     1       3.602  -2.230  -1.488  0.00  0.00    +0.234 C 
ATOM     16  O   UNL     1       3.296  -1.064  -1.358  0.00  0.00    -0.274 OA
ATOM     17  N   UNL     1       4.833  -2.647  -1.131  0.00  0.00    -0.239 N 
ATOM     18  C   UNL     1       5.723  -1.768  -0.630  0.00  0.00    +0.306 C 
ATOM     19  O   UNL     1       5.416  -0.599  -0.501  0.00  0.00    -0.252 OA
ATOM     20  N   UNL     1       6.955  -2.184  -0.274  0.00  0.00    -0.296 N 
ATOM     21  H   UNL     1       5.078  -3.579  -1.235  0.00  0.00    +0.159 HD
ATOM     22  H   UNL     1       7.200  -3.117  -0.377  0.00  0.00    +0.151 HD
BRANCH  20  23
ATOM     23  C   UNL     1       7.922  -1.228   0.271  0.00  0.00    +0.132 C 
BRANCH  23  24
ATOM     24  C   UNL     1       9.211  -1.943   0.587  0.00  0.00    -0.016 C 
ATOM     25  C   UNL     1      10.339  -1.518   0.074  0.00  0.00    +0.005 C 
ENDBRANCH  23  24
ENDBRANCH  20  23
ENDBRANCH  14  15
ENDBRANCH   9  14
TORSDOF 6
