REMARK  Name = ZINC14983180
REMARK  2 active torsions:
REMARK  status: ('A' for Active; 'I' for Inactive)
REMARK    1  A    between atoms: C_2  and  N_15
REMARK    2  A    between atoms: C_4  and  N_12
REMARK                            x       y       z     vdW  Elec       q    Type
REMARK                         _______ _______ _______ _____ _____    ______ ____
ROOT
ATOM      1  C   UNL     1      -1.316   3.304   0.036  0.00  0.00    +0.060 A 
ATOM      2  C   UNL     1      -1.315   1.952   0.234  0.00  0.00    +0.130 A 
ATOM      3  C   UNL     1      -2.504   1.232   0.234  0.00  0.00    +0.066 A 
ATOM      4  C   UNL     1      -3.698   1.862   0.031  0.00  0.00    +0.140 A 
ATOM      5  C   UNL     1      -3.724   3.244  -0.180  0.00  0.00    +0.063 A 
ATOM      6  C   UNL     1      -2.518   3.972  -0.180  0.00  0.00    +0.071 A 
ATOM      7  N   UNL     1      -2.848   5.283  -0.408  0.00  0.00    -0.276 N 
ATOM      8  H   UNL     1      -2.200   6.043  -0.463  0.00  0.00    +0.189 HD
ATOM      9  N   UNL     1      -4.235   5.387  -0.550  0.00  0.00    -0.167 NA
ATOM     10  C   UNL     1      -4.788   4.214  -0.423  0.00  0.00    +0.133 A 
ATOM     11  I   UNL     1      -6.836   3.794  -0.547  0.00  0.00    -0.019 I 
ENDROOT
BRANCH   4  12
ATOM     12  N   UNL     1      -4.958   1.085   0.032  0.00  0.00    +0.057 N 
ATOM     13  O   UNL     1      -5.155   0.246   0.892  0.00  0.00    -0.126 OA
ATOM     14  O   UNL     1      -5.798   1.287  -0.826  0.00  0.00    -0.126 OA
ENDBRANCH   4  12
BRANCH   2  15
ATOM     15  N   UNL     1      -0.034   1.246   0.459  0.00  0.00    +0.057 N 
ATOM     16  O   UNL     1      -0.025   0.042   0.641  0.00  0.00    -0.126 OA
ATOM     17  O   UNL     1       1.013   1.869   0.455  0.00  0.00    -0.126 OA
ENDBRANCH   2  15
TORSDOF 2
