REMARK  Name = ZINC35843258
REMARK  3 active torsions:
REMARK  status: ('A' for Active; 'I' for Inactive)
REMARK    1  A    between atoms: C_1  and  C_2
REMARK    2  A    between atoms: N_24  and  C_27
REMARK    3  A    between atoms: C_31  and  N_33
REMARK                            x       y       z     vdW  Elec       q    Type
REMARK                         _______ _______ _______ _____ _____    ______ ____
ROOT
ATOM      1  C   UNL     1      -0.987   0.862  -0.587  0.00  0.00    +0.047 C 
ATOM      2  C   UNL     1      -0.721  -0.611  -0.418  0.00  0.00    -0.011 A 
ATOM      3  C   UNL     1      -0.634  -1.427  -1.528  0.00  0.00    +0.046 A 
ATOM      4  C   UNL     1      -0.390  -2.782  -1.383  0.00  0.00    +0.021 A 
ATOM      5  C   UNL     1      -0.232  -3.320  -0.118  0.00  0.00    +0.009 A 
ATOM      6  C   UNL     1      -0.319  -2.510   0.992  0.00  0.00    +0.004 A 
ATOM      7  C   UNL     1      -0.559  -1.145   0.858  0.00  0.00    +0.043 A 
ATOM      8  N   UNL     1      -0.597  -0.536   2.114  0.00  0.00    -0.283 N 
ATOM      9  C   UNL     1      -0.389  -1.417   3.112  0.00  0.00    +0.243 C 
ATOM     10  O   UNL     1      -0.368  -1.172   4.300  0.00  0.00    -0.273 OA
ATOM     11  C   UNL     1      -0.201  -2.764   2.469  0.00  0.00    +0.138 C 
ATOM     12  C   UNL     1       1.167  -3.353   2.829  0.00  0.00    +0.123 C 
ATOM     13  C   UNL     1       0.917  -4.881   2.952  0.00  0.00    +0.107 C 
ATOM     14  C   UNL     1      -0.585  -5.068   2.669  0.00  0.00    +0.071 C 
ATOM     15  N   UNL     1      -1.205  -3.739   2.929  0.00  0.00    -0.281 NA
ATOM     16  C   UNL     1      -1.324  -3.680   4.405  0.00  0.00    +0.086 C 
ATOM     17  C   UNL     1      -1.695  -5.113   4.839  0.00  0.00    +0.017 C 
ATOM     18  C   UNL     1      -1.181  -6.040   3.703  0.00  0.00    +0.021 C 
ATOM     19  C   UNL     1       1.732  -5.462   1.818  0.00  0.00    +0.232 C 
ATOM     20  O   UNL     1       1.816  -6.641   1.548  0.00  0.00    -0.274 OA
ATOM     21  N   UNL     1       2.344  -4.471   1.159  0.00  0.00    -0.210 N 
ATOM     22  C   UNL     1       2.102  -3.233   1.646  0.00  0.00    +0.233 C 
ATOM     23  O   UNL     1       2.553  -2.194   1.212  0.00  0.00    -0.274 OA
ATOM     24 CL   UNL     1      -0.833  -0.751  -3.115  0.00  0.00    -0.083 Cl
ATOM     25  H   UNL     1      -0.754   0.411   2.252  0.00  0.00    +0.155 HD
ENDROOT
BRANCH  21  26
ATOM     26  C   UNL     1       3.175  -4.697   0.052  0.00  0.00    +0.046 A 
ATOM     27  C   UNL     1       4.537  -4.439   0.142  0.00  0.00    +0.025 A 
ATOM     28  C   UNL     1       5.354  -4.663  -0.949  0.00  0.00    +0.024 A 
ATOM     29  C   UNL     1       4.817  -5.144  -2.130  0.00  0.00    +0.071 A 
ATOM     30  C   UNL     1       3.460  -5.402  -2.221  0.00  0.00    +0.146 A 
ATOM     31  C   UNL     1       2.640  -5.186  -1.131  0.00  0.00    +0.058 A 
ATOM     32 CL   UNL     1       5.846  -5.424  -3.499  0.00  0.00    -0.081 Cl
BRANCH  30  33
ATOM     33  N   UNL     1       2.889  -5.916  -3.487  0.00  0.00    +0.058 N 
ATOM     34  O   UNL     1       1.704  -6.141  -3.567  0.00  0.00    -0.126 OA
ATOM     35  O   UNL     1       3.607  -6.110  -4.439  0.00  0.00    -0.126 OA
ENDBRANCH  30  33
ENDBRANCH  21  26
TORSDOF 2
