REMARK  Name = ZINC64788340
REMARK  3 active torsions:
REMARK  status: ('A' for Active; 'I' for Inactive)
REMARK    1  A    between atoms: C_2  and  C_3
REMARK    2  A    between atoms: C_3  and  N_4
REMARK    3  A    between atoms: C_16  and  C_19
REMARK                            x       y       z     vdW  Elec       q    Type
REMARK                         _______ _______ _______ _____ _____    ______ ____
ROOT
ATOM      1  N   UNL     1      -1.318  -1.700  -1.126  0.00  0.00    -0.216 N 
ATOM      2  C   UNL     1      -1.823  -1.285  -2.307  0.00  0.00    +0.261 C 
ATOM      3  O   UNL     1      -2.258  -0.156  -2.443  0.00  0.00    -0.269 OA
ATOM      4  C   UNL     1      -1.832  -2.242  -3.426  0.00  0.00    +0.119 C 
ATOM      5  C   UNL     1      -1.281  -3.587  -3.160  0.00  0.00    +0.278 C 
ATOM      6  N   UNL     1      -0.813  -3.852  -1.929  0.00  0.00    -0.123 NA
ATOM      7  C   UNL     1      -0.827  -2.957  -0.974  0.00  0.00    +0.336 C 
ATOM      8  O   UNL     1      -0.332  -3.304   0.230  0.00  0.00    -0.250 OA
ATOM      9  O   UNL     1      -1.254  -4.435  -4.035  0.00  0.00    -0.268 OA
ATOM     10  C   UNL     1      -2.332  -1.898  -4.668  0.00  0.00    +0.038 C 
ATOM     11  N   UNL     1      -2.848  -0.703  -5.011  0.00  0.00    -0.283 N 
ATOM     12  N   UNL     1      -3.295  -0.666  -6.299  0.00  0.00    -0.235 NA
ATOM     13  C   UNL     1      -2.668  -1.793  -7.029  0.00  0.00    +0.108 C 
ATOM     14  C   UNL     1      -2.390  -2.799  -5.888  0.00  0.00    +0.077 C 
ATOM     15  H   UNL     1      -4.301  -0.728  -6.334  0.00  0.00    +0.145 HD
ATOM     16  H   UNL     1      -2.896   0.053  -4.405  0.00  0.00    +0.166 HD
ENDROOT
BRANCH  13  17
ATOM     17  C   UNL     1      -3.619  -2.371  -8.045  0.00  0.00    -0.029 A 
ATOM     18  C   UNL     1      -4.964  -2.483  -7.748  0.00  0.00    +0.006 A 
ATOM     19  C   UNL     1      -5.836  -3.013  -8.680  0.00  0.00    +0.015 A 
ATOM     20  C   UNL     1      -5.363  -3.432  -9.910  0.00  0.00    +0.018 A 
ATOM     21  C   UNL     1      -4.016  -3.321 -10.207  0.00  0.00    +0.015 A 
ATOM     22  C   UNL     1      -3.146  -2.785  -9.276  0.00  0.00    +0.006 A 
ATOM     23 BR   UNL     1      -6.556  -4.158 -11.185  0.00  0.00    -0.050 Br
ENDBRANCH  13  17
BRANCH   1  24
ATOM     24  C   UNL     1      -1.293  -0.775   0.010  0.00  0.00    +0.145 C 
BRANCH  24  26
ATOM     25  C   UNL     1      -0.016   1.306   0.009  0.00  0.00    +0.005 C 
ATOM     26  C   UNL     1       0.002  -0.004   0.002  0.00  0.00    -0.015 C 
ENDBRANCH  24  26
ENDBRANCH   1  24
TORSDOF 3
