REMARK  Name = ZINC02975474
REMARK  6 active torsions:
REMARK  status: ('A' for Active; 'I' for Inactive)
REMARK    1  A    between atoms: C_4  and  N_28
REMARK    2  A    between atoms: C_5  and  C_7
REMARK    3  A    between atoms: N_8  and  N_9
REMARK    4  A    between atoms: C_10  and  S_12
REMARK    5  A    between atoms: S_12  and  C_13
REMARK    6  A    between atoms: N_18  and  C_21
REMARK                            x       y       z     vdW  Elec       q    Type
REMARK                         _______ _______ _______ _____ _____    ______ ____
ROOT
ATOM      1  N   UNL     1      -3.868   2.378   0.028  0.00  0.00    -0.217 N 
ATOM      2  C   UNL     1      -5.101   1.799  -0.176  0.00  0.00    +0.146 C 
ATOM      3  N   UNL     1      -5.184   0.536  -0.490  0.00  0.00    -0.380 N 
ATOM      4  H   UNL     1      -3.798   3.444   0.292  0.00  0.00    +0.176 HD
ATOM      5  H   UNL     1      -6.168   0.073  -0.653  0.00  0.00    +0.158 HD
ATOM      6  H   UNL     1      -4.269  -0.067  -0.591  0.00  0.00    +0.158 HD
ENDROOT
BRANCH   1   8
ATOM      7  C   UNL     1      -1.542   2.156   0.091  0.00  0.00    +0.140 C 
ATOM      8  N   UNL     1      -2.703   1.610  -0.101  0.00  0.00    -0.188 NA
BRANCH   7  13
ATOM      9  C   UNL     1       2.081   1.193  -0.085  0.00  0.00    +0.001 A 
ATOM     10  C   UNL     1       1.987  -0.169  -0.312  0.00  0.00    +0.002 A 
ATOM     11  C   UNL     1       0.747  -0.777  -0.405  0.00  0.00    +0.033 A 
ATOM     12  C   UNL     1      -0.404  -0.028  -0.274  0.00  0.00    +0.135 A 
ATOM     13  C   UNL     1      -0.316   1.347  -0.045  0.00  0.00    +0.025 A 
ATOM     14  C   UNL     1       0.939   1.954   0.049  0.00  0.00    +0.012 A 
BRANCH  12  15
ATOM     15  N   UNL     1      -1.729  -0.680  -0.374  0.00  0.00    +0.057 N 
ATOM     16  O   UNL     1      -2.545  -0.543   0.519  0.00  0.00    -0.126 OA
ATOM     17  O   UNL     1      -2.003  -1.353  -1.351  0.00  0.00    -0.126 OA
ENDBRANCH  12  15
ENDBRANCH   7  13
ENDBRANCH   1   8
BRANCH   2  18
ATOM     18  S   UNL     1      -6.565   2.765  -0.014  0.00  0.00    -0.078 S 
BRANCH  18  19
ATOM     19  C   UNL     1      -7.810   1.521  -0.437  0.00  0.00    +0.149 C 
ATOM     20  C   UNL     1      -9.198   2.175  -0.599  0.00  0.00    +0.120 C 
ATOM     21  C   UNL     1     -10.032   1.508   0.472  0.00  0.00    +0.228 C 
ATOM     22  O   UNL     1     -11.202   1.734   0.694  0.00  0.00    -0.275 OA
ATOM     23  N   UNL     1      -9.273   0.627   1.137  0.00  0.00    -0.209 N 
ATOM     24  C   UNL     1      -8.007   0.553   0.709  0.00  0.00    +0.240 C 
ATOM     25  O   UNL     1      -7.152  -0.175   1.167  0.00  0.00    -0.274 OA
BRANCH  23  26
ATOM     26  C   UNL     1      -9.764  -0.152   2.194  0.00  0.00    +0.044 A 
ATOM     27  C   UNL     1      -9.665  -1.536   2.141  0.00  0.00    +0.025 A 
ATOM     28  C   UNL     1     -10.146  -2.302   3.185  0.00  0.00    +0.017 A 
ATOM     29  C   UNL     1     -10.734  -1.691   4.279  0.00  0.00    +0.018 A 
ATOM     30  C   UNL     1     -10.838  -0.313   4.331  0.00  0.00    +0.017 A 
ATOM     31  C   UNL     1     -10.355   0.458   3.292  0.00  0.00    +0.025 A 
ATOM     32 BR   UNL     1     -11.396  -2.743   5.704  0.00  0.00    -0.050 Br
ENDBRANCH  23  26
ENDBRANCH  18  19
ENDBRANCH   2  18
TORSDOF 6
