REMARK  Name = ZINC61594783
REMARK  9 active torsions:
REMARK  status: ('A' for Active; 'I' for Inactive)
REMARK    1  A    between atoms: C_1  and  C_2
REMARK    2  A    between atoms: C_2  and  C_3
REMARK    3  A    between atoms: C_3  and  N_4
REMARK    4  A    between atoms: C_10  and  S_11
REMARK    5  A    between atoms: S_11  and  C_12
REMARK    6  A    between atoms: C_12  and  C_14
REMARK    7  A    between atoms: C_12  and  C_21
REMARK    8  A    between atoms: C_21  and  C_23
REMARK    9  A    between atoms: C_21  and  N_24
REMARK                            x       y       z     vdW  Elec       q    Type
REMARK                         _______ _______ _______ _____ _____    ______ ____
ROOT
ATOM      1  C   UNL     1       3.761  -3.602  -0.532  0.00  0.00    +0.069 C 
ENDROOT
BRANCH   1   2
ATOM      2  C   UNL     1       4.726  -2.893  -1.448  0.00  0.00    -0.036 A 
ATOM      3  C   UNL     1       5.571  -1.923  -0.944  0.00  0.00    +0.006 A 
ATOM      4  C   UNL     1       6.456  -1.273  -1.783  0.00  0.00    +0.020 A 
ATOM      5  C   UNL     1       6.495  -1.594  -3.129  0.00  0.00    +0.041 A 
ATOM      6  C   UNL     1       5.649  -2.565  -3.633  0.00  0.00    +0.020 A 
ATOM      7  C   UNL     1       4.768  -3.218  -2.791  0.00  0.00    +0.006 A 
ATOM      8 CL   UNL     1       7.606  -0.777  -4.184  0.00  0.00    -0.084 Cl
ENDBRANCH   1   2
BRANCH   1   9
ATOM      9  C   UNL     1       4.527  -4.592   0.348  0.00  0.00    -0.060 C 
ATOM     10  C   UNL     1       5.127  -5.694  -0.528  0.00  0.00    -0.013 C 
BRANCH   9  11
ATOM     11  N   UNL     1       5.605  -3.887   1.055  0.00  0.00    +0.381 N 
ATOM     12  H   UNL     1       5.224  -3.087   1.537  0.00  0.00    -0.090 HD
ATOM     13  H   UNL     1       6.033  -4.510   1.723  0.00  0.00    -0.090 HD
ATOM     14  H   UNL     1       6.298  -3.579   0.389  0.00  0.00    -0.090 HD
ENDBRANCH   9  11
ENDBRANCH   1   9
BRANCH   1  15
ATOM     15  S   UNL     1       2.920  -2.385   0.518  0.00  0.00    -0.080 S 
BRANCH  15  22
ATOM     16  N   UNL     1       0.852  -2.848   2.345  0.00  0.00    -0.271 N 
ATOM     17  C   UNL     1       0.110  -3.875   2.805  0.00  0.00    +0.345 A 
ATOM     18  O   UNL     1      -0.777  -3.806   3.637  0.00  0.00    -0.245 OA
ATOM     19  N   UNL     1       0.526  -4.993   2.175  0.00  0.00    -0.226 N 
ATOM     20  H   UNL     1       0.175  -5.888   2.301  0.00  0.00    +0.194 HD
ATOM     21  N   UNL     1       1.560  -4.623   1.303  0.00  0.00    -0.145 NA
ATOM     22  C   UNL     1       1.738  -3.338   1.412  0.00  0.00    +0.193 A 
BRANCH  16  23
ATOM     23  C   UNL     1       0.733  -1.449   2.763  0.00  0.00    +0.129 C 
BRANCH  23  25
ATOM     24  C   UNL     1      -0.405   0.727   2.303  0.00  0.00    +0.005 C 
ATOM     25  C   UNL     1      -0.280  -0.734   1.867  0.00  0.00    +0.018 C 
ENDBRANCH  23  25
ENDBRANCH  16  23
ENDBRANCH  15  22
ENDBRANCH   1  15
TORSDOF 7
