REMARK  Name = ZINC37626772
REMARK  9 active torsions:
REMARK  status: ('A' for Active; 'I' for Inactive)
REMARK    1  A    between atoms: C_1  and  C_2
REMARK    2  A    between atoms: C_5  and  N_11
REMARK    3  A    between atoms: C_6  and  C_10
REMARK    4  A    between atoms: C_7  and  O_8
REMARK    5  A    between atoms: O_8  and  C_9
REMARK    6  A    between atoms: C_12  and  C_14
REMARK    7  A    between atoms: C_14  and  C_16
REMARK    8  A    between atoms: C_14  and  N_20
REMARK    9  A    between atoms: C_16  and  C_17
REMARK                            x       y       z     vdW  Elec       q    Type
REMARK                         _______ _______ _______ _____ _____    ______ ____
ROOT
ATOM      1  N   UNL     1       0.057  -4.173  -0.026  0.00  0.00    -0.287 N 
ATOM      2  C   UNL     1      -0.608  -4.848  -0.984  0.00  0.00    +0.203 C 
ATOM      3  O   UNL     1      -1.147  -4.244  -1.888  0.00  0.00    -0.277 OA
ATOM      4  H   UNL     1       0.543  -4.658   0.660  0.00  0.00    +0.155 HD
ENDROOT
BRANCH   1   9
ATOM      5  C   UNL     1       0.017   1.503  -0.014  0.00  0.00    +0.047 C 
ATOM      6  C   UNL     1       0.028  -0.004  -0.016  0.00  0.00    -0.008 A 
ATOM      7  C   UNL     1       0.026  -0.693  -1.214  0.00  0.00    +0.009 A 
ATOM      8  C   UNL     1       0.037  -2.074  -1.220  0.00  0.00    +0.024 A 
ATOM      9  C   UNL     1       0.048  -2.774  -0.020  0.00  0.00    +0.040 A 
ATOM     10  C   UNL     1       0.049  -2.084   1.184  0.00  0.00    +0.013 A 
ATOM     11  C   UNL     1       0.045  -0.698   1.185  0.00  0.00    +0.128 A 
ATOM     12  C   UNL     1       0.061  -2.841   2.487  0.00  0.00    +0.049 C 
BRANCH  11  13
ATOM     13  O   UNL     1       0.052  -0.019   2.363  0.00  0.00    -0.495 OA
ATOM     14  C   UNL     1      -1.218   0.296   2.938  0.00  0.00    +0.277 C 
ENDBRANCH  11  13
ENDBRANCH   1   9
BRANCH   2  15
ATOM     15  C   UNL     1      -0.683  -6.352  -0.933  0.00  0.00    +0.022 C 
BRANCH  15  16
ATOM     16  N   UNL     1      -1.014  -6.871  -2.267  0.00  0.00    +0.386 N 
ATOM     17  H   UNL     1      -0.301  -6.592  -2.923  0.00  0.00    -0.089 HD
ATOM     18  H   UNL     1      -1.065  -7.878  -2.233  0.00  0.00    -0.089 HD
ATOM     19  H   UNL     1      -1.905  -6.500  -2.561  0.00  0.00    -0.089 HD
ENDBRANCH  15  16
BRANCH  15  20
ATOM     20  C   UNL     1      -1.765  -6.775   0.062  0.00  0.00    +0.088 C 
BRANCH  20  21
ATOM     21  C   UNL     1      -1.757  -8.275   0.205  0.00  0.00    +0.209 C 
ATOM     22  O   UNL     1      -0.964  -8.941  -0.427  0.00  0.00    -0.276 OA
ATOM     23  N   UNL     1      -2.631  -8.878   1.035  0.00  0.00    -0.329 N 
ATOM     24  H   UNL     1      -3.266  -8.346   1.541  0.00  0.00    +0.145 HD
ATOM     25  H   UNL     1      -2.626  -9.844   1.127  0.00  0.00    +0.145 HD
ENDBRANCH  20  21
ENDBRANCH  15  20
ENDBRANCH   2  15
TORSDOF 6
