REMARK  Name = ZINC08393042
REMARK  9 active torsions:
REMARK  status: ('A' for Active; 'I' for Inactive)
REMARK    1  A    between atoms: C_1  and  C_2
REMARK    2  A    between atoms: C_2  and  C_3
REMARK    3  A    between atoms: C_3  and  C_4
REMARK    4  A    between atoms: C_4  and  N_5
REMARK    5  A    between atoms: N_5  and  C_6
REMARK    6  A    between atoms: C_7  and  N_22
REMARK    7  A    between atoms: N_8  and  C_15
REMARK    8  A    between atoms: C_15  and  C_16
REMARK    9  A    between atoms: C_23  and  C_25
REMARK                            x       y       z     vdW  Elec       q    Type
REMARK                         _______ _______ _______ _____ _____    ______ ____
ROOT
ATOM      1  C   UNL     1       0.928   3.099   0.098  0.00  0.00    +0.140 A 
ATOM      2  C   UNL     1      -0.289   3.697  -0.156  0.00  0.00    +0.128 A 
ATOM      3  N   UNL     1      -1.431   2.929  -0.142  0.00  0.00    -0.276 N 
ATOM      4  C   UNL     1      -1.360   1.610   0.111  0.00  0.00    +0.331 A 
ATOM      5  O   UNL     1      -2.380   0.947   0.114  0.00  0.00    -0.246 OA
ATOM      6  N   UNL     1      -0.183   1.011   0.365  0.00  0.00    -0.273 N 
ATOM      7  H   UNL     1      -0.160   0.030   0.558  0.00  0.00    +0.173 HD
ATOM      8  C   UNL     1       0.964   1.717   0.364  0.00  0.00    +0.277 A 
ATOM      9  O   UNL     1       2.026   1.163   0.592  0.00  0.00    -0.266 OA
ENDROOT
BRANCH   1  10
ATOM     10  N   UNL     1       2.116   3.859   0.090  0.00  0.00    -0.264 N 
ATOM     11  C   UNL     1       3.057   3.632  -0.850  0.00  0.00    +0.217 C 
ATOM     12  O   UNL     1       4.109   4.235  -0.814  0.00  0.00    -0.276 OA
ATOM     13  C   UNL     1       2.800   2.629  -1.946  0.00  0.00    +0.109 C 
BRANCH  10  14
ATOM     14  C   UNL     1       2.329   4.896   1.103  0.00  0.00    +0.114 C 
BRANCH  14  15
ATOM     15  C   UNL     1       3.138   4.315   2.265  0.00  0.00    +0.019 C 
BRANCH  15  17
ATOM     16  C   UNL     1       4.169   4.817   4.485  0.00  0.00    +0.004 C 
ATOM     17  C   UNL     1       3.360   5.398   3.323  0.00  0.00    -0.002 C 
ENDBRANCH  15  17
ENDBRANCH  14  15
ENDBRANCH  10  14
ENDBRANCH   1  10
BRANCH   2  18
ATOM     18  N   UNL     1      -0.361   5.044  -0.419  0.00  0.00    -0.343 N 
ATOM     19  H   UNL     1       0.453   5.564  -0.511  0.00  0.00    +0.144 HD
ATOM     20  H   UNL     1      -1.225   5.474  -0.513  0.00  0.00    +0.144 HD
ENDBRANCH   2  18
BRANCH   3  21
ATOM     21  C   UNL     1      -2.730   3.551  -0.410  0.00  0.00    +0.163 C 
BRANCH  21  22
ATOM     22  C   UNL     1      -3.015   3.501  -1.889  0.00  0.00    -0.028 A 
ATOM     23  C   UNL     1      -2.615   4.542  -2.706  0.00  0.00    +0.005 A 
ATOM     24  C   UNL     1      -2.872   4.494  -4.063  0.00  0.00    +0.000 A 
ATOM     25  C   UNL     1      -3.539   3.410  -4.602  0.00  0.00    +0.000 A 
ATOM     26  C   UNL     1      -3.945   2.372  -3.785  0.00  0.00    +0.000 A 
ATOM     27  C   UNL     1      -3.683   2.417  -2.428  0.00  0.00    +0.005 A 
ENDBRANCH  21  22
ENDBRANCH   3  21
TORSDOF 7
