REMARK  Name = ZINC22018845
REMARK  9 active torsions:
REMARK  status: ('A' for Active; 'I' for Inactive)
REMARK    1  A    between atoms: C_4  and  O_23
REMARK    2  A    between atoms: C_5  and  C_7
REMARK    3  A    between atoms: C_12  and  O_13
REMARK    4  A    between atoms: O_13  and  C_14
REMARK    5  A    between atoms: C_14  and  C_16
REMARK    6  A    between atoms: C_19  and  N_22
REMARK    7  A    between atoms: O_23  and  C_24
REMARK    8  A    between atoms: C_24  and  C_26
REMARK    9  A    between atoms: C_29  and  N_32
REMARK                            x       y       z     vdW  Elec       q    Type
REMARK                         _______ _______ _______ _____ _____    ______ ____
ROOT
ATOM      1  C   UNL     1      -0.764   7.732   1.212  0.00  0.00    +0.001 A 
ATOM      2  C   UNL     1       0.176   7.870   0.207  0.00  0.00    +0.004 A 
ATOM      3  C   UNL     1       0.090   7.101  -0.939  0.00  0.00    +0.047 A 
ATOM      4  C   UNL     1      -0.940   6.186  -1.085  0.00  0.00    +0.140 A 
ATOM      5  C   UNL     1      -1.892   6.045  -0.070  0.00  0.00    +0.028 A 
ATOM      6  C   UNL     1      -1.799   6.829   1.077  0.00  0.00    +0.012 A 
ENDROOT
BRANCH   5   7
ATOM      7  C   UNL     1      -2.998   5.069  -0.218  0.00  0.00    +0.028 A 
ATOM      8  C   UNL     1      -4.316   5.513  -0.306  0.00  0.00    +0.012 A 
ATOM      9  C   UNL     1      -5.343   4.601  -0.439  0.00  0.00    +0.001 A 
ATOM     10  C   UNL     1      -5.069   3.245  -0.489  0.00  0.00    +0.004 A 
ATOM     11  C   UNL     1      -3.765   2.794  -0.407  0.00  0.00    +0.047 A 
ATOM     12  C   UNL     1      -2.724   3.699  -0.275  0.00  0.00    +0.140 A 
BRANCH  12  13
ATOM     13  O   UNL     1      -1.442   3.256  -0.195  0.00  0.00    -0.422 OA
BRANCH  13  14
ATOM     14  C   UNL     1      -0.940   3.056   1.040  0.00  0.00    +0.344 C 
ATOM     15  O   UNL     1      -1.656   3.180   2.014  0.00  0.00    -0.245 OA
BRANCH  14  16
ATOM     16  C   UNL     1       0.477   2.687   1.208  0.00  0.00    +0.060 A 
ATOM     17  C   UNL     1       1.300   2.538   0.088  0.00  0.00    +0.017 A 
ATOM     18  C   UNL     1       2.616   2.189   0.248  0.00  0.00    +0.023 A 
ATOM     19  C   UNL     1       3.133   1.982   1.524  0.00  0.00    +0.025 A 
ATOM     20  C   UNL     1       2.316   2.130   2.642  0.00  0.00    +0.023 A 
ATOM     21  C   UNL     1       0.999   2.479   2.489  0.00  0.00    +0.017 A 
BRANCH  19  22
ATOM     22  N   UNL     1       4.468   1.629   1.683  0.00  0.00    -0.358 N 
ATOM     23  H   UNL     1       4.878   1.465   2.690  0.00  0.00    +0.142 HD
ATOM     24  H   UNL     1       5.115   1.513   0.800  0.00  0.00    +0.142 HD
ENDBRANCH  19  22
ENDBRANCH  14  16
ENDBRANCH  13  14
ENDBRANCH  12  13
ENDBRANCH   5   7
BRANCH   4  25
ATOM     25  O   UNL     1      -1.025   5.429  -2.210  0.00  0.00    -0.422 OA
BRANCH  25  26
ATOM     26  C   UNL     1      -1.825   5.885  -3.195  0.00  0.00    +0.344 C 
ATOM     27  O   UNL     1      -2.364   6.968  -3.087  0.00  0.00    -0.245 OA
BRANCH  26  28
ATOM     28  C   UNL     1      -2.045   5.069  -4.402  0.00  0.00    +0.060 A 
ATOM     29  C   UNL     1      -1.421   3.824  -4.530  0.00  0.00    +0.017 A 
ATOM     30  C   UNL     1      -1.631   3.065  -5.652  0.00  0.00    +0.023 A 
ATOM     31  C   UNL     1      -2.458   3.537  -6.669  0.00  0.00    +0.025 A 
ATOM     32  C   UNL     1      -3.077   4.778  -6.547  0.00  0.00    +0.023 A 
ATOM     33  C   UNL     1      -2.874   5.540  -5.425  0.00  0.00    +0.017 A 
BRANCH  31  34
ATOM     34  N   UNL     1      -2.666   2.767  -7.807  0.00  0.00    -0.358 N 
ATOM     35  H   UNL     1      -3.318   3.139  -8.611  0.00  0.00    +0.142 HD
ATOM     36  H   UNL     1      -2.177   1.786  -7.905  0.00  0.00    +0.142 HD
ENDBRANCH  31  34
ENDBRANCH  26  28
ENDBRANCH  25  26
ENDBRANCH   4  25
TORSDOF 9
