REMARK  Name = ZINC35734543
REMARK  5 active torsions:
REMARK  status: ('A' for Active; 'I' for Inactive)
REMARK    1  A    between atoms: C_1  and  C_2
REMARK    2  A    between atoms: C_2  and  C_4
REMARK    3  A    between atoms: C_2  and  N_10
REMARK    4  A    between atoms: N_10  and  C_11
REMARK    5  A    between atoms: C_16  and  N_17
REMARK                            x       y       z     vdW  Elec       q    Type
REMARK                         _______ _______ _______ _____ _____    ______ ____
ROOT
ATOM      1  C   UNL     1       2.106  -0.604   1.173  0.00  0.00    +0.050 A 
ATOM      2  C   UNL     1       2.818  -0.253   0.037  0.00  0.00    +0.048 A 
ATOM      3  C   UNL     1       4.202  -0.367   0.024  0.00  0.00    +0.038 A 
ATOM      4  C   UNL     1       4.871  -0.832   1.149  0.00  0.00    -0.024 A 
ATOM      5  C   UNL     1       4.163  -1.183   2.282  0.00  0.00    +0.030 A 
ATOM      6  C   UNL     1       2.782  -1.066   2.302  0.00  0.00    +0.046 A 
ATOM      7  C   UNL     1       6.373  -0.953   1.130  0.00  0.00    +0.046 C 
ATOM      8  C   UNL     1       6.837  -1.343  -0.274  0.00  0.00    +0.101 C 
ATOM      9  C   UNL     1       6.185  -0.452  -1.296  0.00  0.00    +0.218 C 
ATOM     10  O   UNL     1       6.802  -0.125  -2.287  0.00  0.00    -0.275 OA
ATOM     11  N   UNL     1       4.925  -0.013  -1.122  0.00  0.00    -0.285 N 
ATOM     12  H   UNL     1       4.514   0.551  -1.795  0.00  0.00    +0.155 HD
ENDROOT
BRANCH   6  13
ATOM     13  N   UNL     1       2.064  -1.416   3.455  0.00  0.00    -0.357 N 
ATOM     14  H   UNL     1       1.097  -1.337   3.467  0.00  0.00    +0.142 HD
ATOM     15  H   UNL     1       2.534  -1.738   4.240  0.00  0.00    +0.142 HD
ENDBRANCH   6  13
BRANCH   1  16
ATOM     16  N   UNL     1       0.711  -0.489   1.189  0.00  0.00    -0.337 N 
ATOM     17  H   UNL     1       0.213  -0.731   1.986  0.00  0.00    +0.146 HD
BRANCH  16  19
ATOM     18  C   UNL     1      -0.019   1.526   0.010  0.00  0.00    +0.030 C 
ATOM     19  C   UNL     1       0.002  -0.004   0.002  0.00  0.00    +0.096 C 
BRANCH  19  20
ATOM     20  C   UNL     1      -1.433  -0.534   0.013  0.00  0.00    +0.138 C 
ATOM     21  C   UNL     1      -1.437  -2.075   0.166  0.00  0.00    +0.035 C 
ATOM     22  C   UNL     1      -2.841  -2.307   0.788  0.00  0.00    +0.031 C 
ATOM     23  C   UNL     1      -3.022  -1.050   1.665  0.00  0.00    +0.160 C 
ATOM     24  O   UNL     1      -2.139  -0.039   1.162  0.00  0.00    -0.375 OA
ENDBRANCH  19  20
ENDBRANCH  16  19
ENDBRANCH   1  16
TORSDOF 4
