REMARK  Name = ZINC40373138
REMARK  14 active torsions:
REMARK  status: ('A' for Active; 'I' for Inactive)
REMARK    1  A    between atoms: C_1  and  C_2
REMARK    2  A    between atoms: C_2  and  C_31
REMARK    3  A    between atoms: C_4  and  O_30
REMARK    4  A    between atoms: C_6  and  C_28
REMARK    5  A    between atoms: C_6  and  C_29
REMARK    6  A    between atoms: N_7  and  C_8
REMARK    7  A    between atoms: C_8  and  C_9
REMARK    8  A    between atoms: C_9  and  C_11
REMARK    9  A    between atoms: C_9  and  O_27
REMARK   10  A    between atoms: C_11  and  O_12
REMARK   11  A    between atoms: O_12  and  C_13
REMARK   12  A    between atoms: C_13  and  C_14
REMARK   13  A    between atoms: C_14  and  C_15
REMARK   14  A    between atoms: C_14  and  C_21
REMARK                            x       y       z     vdW  Elec       q    Type
REMARK                         _______ _______ _______ _____ _____    ______ ____
ROOT
ATOM      1  C   UNL     1       2.421  -0.285   3.085  0.00  0.00    +0.124 C 
ENDROOT
BRANCH   1   2
ATOM      2  O   UNL     1       1.106  -0.614   3.537  0.00  0.00    -0.391 OA
ATOM      3  H   UNL     1       0.488   0.130   3.523  0.00  0.00    +0.210 HD
ENDBRANCH   1   2
BRANCH   1   4
ATOM      4  C   UNL     1       2.342   0.321   1.682  0.00  0.00    -0.043 C 
BRANCH   4  11
ATOM      5  C   UNL     1       3.750  -1.220  -0.022  0.00  0.00    -0.010 C 
ATOM      6  C   UNL     1       2.344  -1.676   0.381  0.00  0.00    -0.068 C 
ATOM      7  C   UNL     1       1.716  -2.480  -0.752  0.00  0.00    +0.019 C 
ATOM      8  C   UNL     1       1.291  -1.553  -1.891  0.00  0.00    +0.112 C 
ATOM      9  C   UNL     1       0.274  -0.555  -1.339  0.00  0.00    +0.019 C 
ATOM     10  C   UNL     1       0.891   0.262  -0.209  0.00  0.00    -0.068 C 
ATOM     11  N   UNL     1       1.526  -0.554   0.813  0.00  0.00    +0.388 N 
ATOM     12  C   UNL     1      -0.253   1.052   0.468  0.00  0.00    -0.010 C 
ATOM     13  C   UNL     1       1.867   1.293  -0.785  0.00  0.00    -0.010 C 
ATOM     14  C   UNL     1       2.505  -2.630   1.588  0.00  0.00    -0.010 C 
ATOM     15  H   UNL     1       0.779  -0.932   1.412  0.00  0.00    -0.080 HD
BRANCH   8  16
ATOM     16  O   UNL     1       0.677  -2.329  -2.927  0.00  0.00    -0.392 OA
ATOM     17  H   UNL     1       0.380  -1.807  -3.686  0.00  0.00    +0.210 HD
ENDBRANCH   8  16
ENDBRANCH   4  11
ENDBRANCH   1   4
BRANCH   1  18
ATOM     18  C   UNL     1       3.051   0.729   4.043  0.00  0.00    +0.189 C 
BRANCH  18  19
ATOM     19  O   UNL     1       3.232   0.123   5.324  0.00  0.00    -0.376 OA
BRANCH  19  20
ATOM     20  C   UNL     1       3.817   0.990   6.299  0.00  0.00    +0.172 C 
BRANCH  20  21
ATOM     21  C   UNL     1       3.963   0.241   7.625  0.00  0.00    +0.075 C 
BRANCH  21  22
ATOM     22  C   UNL     1       4.691   1.112   8.616  0.00  0.00    -0.038 A 
ATOM     23  C   UNL     1       5.807   0.628   9.274  0.00  0.00    +0.004 A 
ATOM     24  C   UNL     1       6.474   1.427  10.183  0.00  0.00    +0.000 A 
ATOM     25  C   UNL     1       6.027   2.710  10.434  0.00  0.00    +0.000 A 
ATOM     26  C   UNL     1       4.912   3.195   9.776  0.00  0.00    +0.000 A 
ATOM     27  C   UNL     1       4.247   2.397   8.864  0.00  0.00    +0.004 A 
ENDBRANCH  21  22
BRANCH  21  28
ATOM     28  C   UNL     1       2.598  -0.099   8.163  0.00  0.00    -0.038 A 
ATOM     29  C   UNL     1       1.639   0.889   8.290  0.00  0.00    +0.004 A 
ATOM     30  C   UNL     1       0.386   0.577   8.783  0.00  0.00    +0.000 A 
ATOM     31  C   UNL     1       0.091  -0.723   9.150  0.00  0.00    +0.000 A 
ATOM     32  C   UNL     1       1.049  -1.711   9.022  0.00  0.00    +0.000 A 
ATOM     33  C   UNL     1       2.301  -1.400   8.524  0.00  0.00    +0.004 A 
ENDBRANCH  21  28
ENDBRANCH  20  21
ENDBRANCH  19  20
ENDBRANCH  18  19
ENDBRANCH   1  18
TORSDOF 10
