REMARK  Name = ZINC12984223
REMARK  7 active torsions:
REMARK  status: ('A' for Active; 'I' for Inactive)
REMARK    1  A    between atoms: C_1  and  C_2
REMARK    2  A    between atoms: C_5  and  O_8
REMARK    3  A    between atoms: O_8  and  C_9
REMARK    4  A    between atoms: C_9  and  C_11
REMARK    5  A    between atoms: C_9  and  C_12
REMARK    6  A    between atoms: N_14  and  C_15
REMARK    7  A    between atoms: C_18  and  C_22
REMARK                            x       y       z     vdW  Elec       q    Type
REMARK                         _______ _______ _______ _____ _____    ______ ____
ROOT
ATOM      1  C   UNL     1      -2.412  -0.304  -0.095  0.00  0.00    +0.258 C 
ATOM      2  O   UNL     1      -1.357  -0.903  -0.112  0.00  0.00    -0.271 OA
ATOM      3  N   UNL     1      -2.423   1.039   0.016  0.00  0.00    -0.282 N 
ATOM      4  H   UNL     1      -3.265   1.511   0.112  0.00  0.00    +0.155 HD
ENDROOT
BRANCH   3   5
ATOM      5  C   UNL     1      -1.219   1.753  -0.006  0.00  0.00    +0.048 A 
ATOM      6  C   UNL     1      -0.103   1.215  -0.633  0.00  0.00    +0.025 A 
ATOM      7  C   UNL     1       1.082   1.924  -0.659  0.00  0.00    +0.005 A 
ATOM      8  C   UNL     1       1.159   3.167  -0.058  0.00  0.00    -0.049 A 
ATOM      9  C   UNL     1       0.051   3.704   0.572  0.00  0.00    +0.020 A 
ATOM     10  C   UNL     1      -1.137   3.000   0.601  0.00  0.00    +0.039 A 
ATOM     11 BR   UNL     1      -2.653   3.735   1.460  0.00  0.00    -0.048 Br
ATOM     12  C   UNL     1       2.454   3.938  -0.088  0.00  0.00    +0.044 C 
ENDBRANCH   3   5
BRANCH   1  13
ATOM     13  C   UNL     1      -3.710  -1.062  -0.198  0.00  0.00    +0.256 C 
ATOM     14  C   UNL     1      -4.418  -0.686  -1.501  0.00  0.00    +0.062 C 
BRANCH  13  15
ATOM     15  O   UNL     1      -3.444  -2.466  -0.188  0.00  0.00    -0.480 OA
BRANCH  15  20
ATOM     16  C   UNL     1      -7.592  -5.843   1.578  0.00  0.00    +0.044 C 
ATOM     17  C   UNL     1      -6.482  -4.939   1.105  0.00  0.00    -0.050 A 
ATOM     18  C   UNL     1      -5.311  -5.484   0.613  0.00  0.00    +0.007 A 
ATOM     19  C   UNL     1      -4.292  -4.659   0.180  0.00  0.00    +0.046 A 
ATOM     20  C   UNL     1      -4.445  -3.281   0.238  0.00  0.00    +0.122 A 
ATOM     21  C   UNL     1      -5.619  -2.736   0.738  0.00  0.00    +0.046 A 
ATOM     22  C   UNL     1      -6.637  -3.567   1.165  0.00  0.00    +0.007 A 
ENDBRANCH  15  20
ENDBRANCH  13  15
ENDBRANCH   1  13
TORSDOF 4
