REMARK  Name = ZINC21711119
REMARK  10 active torsions:
REMARK  status: ('A' for Active; 'I' for Inactive)
REMARK    1  A    between atoms: C_1  and  O_2
REMARK    2  A    between atoms: O_2  and  C_3
REMARK    3  A    between atoms: C_3  and  C_4
REMARK    4  A    between atoms: C_4  and  C_5
REMARK    5  A    between atoms: C_5  and  N_6
REMARK    6  A    between atoms: N_6  and  C_7
REMARK    7  A    between atoms: C_8  and  N_23
REMARK    8  A    between atoms: N_9  and  C_16
REMARK    9  A    between atoms: C_16  and  C_17
REMARK   10  A    between atoms: C_24  and  C_26
REMARK                            x       y       z     vdW  Elec       q    Type
REMARK                         _______ _______ _______ _____ _____    ______ ____
ROOT
ATOM      1  C   UNL     1      -2.285   4.015  -0.271  0.00  0.00    +0.140 A 
ATOM      2  C   UNL     1      -3.038   4.056   0.885  0.00  0.00    +0.128 A 
ATOM      3  N   UNL     1      -4.165   4.844   0.925  0.00  0.00    -0.276 N 
ATOM      4  C   UNL     1      -4.535   5.559  -0.153  0.00  0.00    +0.331 A 
ATOM      5  O   UNL     1      -5.537   6.245  -0.099  0.00  0.00    -0.246 OA
ATOM      6  N   UNL     1      -3.816   5.527  -1.290  0.00  0.00    -0.273 N 
ATOM      7  H   UNL     1      -4.137   6.120  -2.159  0.00  0.00    +0.173 HD
ATOM      8  C   UNL     1      -2.702   4.776  -1.380  0.00  0.00    +0.277 A 
ATOM      9  O   UNL     1      -2.058   4.755  -2.416  0.00  0.00    -0.266 OA
ENDROOT
BRANCH   1  10
ATOM     10  N   UNL     1      -1.122   3.222  -0.342  0.00  0.00    -0.260 N 
ATOM     11  C   UNL     1      -1.209   1.885  -0.191  0.00  0.00    +0.251 C 
ATOM     12  O   UNL     1      -0.198   1.211  -0.154  0.00  0.00    -0.270 OA
BRANCH  11  13
ATOM     13  C   UNL     1      -2.535   1.237  -0.072  0.00  0.00    +0.042 A 
ATOM     14  C   UNL     1      -2.666  -0.033   0.499  0.00  0.00    +0.033 A 
ATOM     15  C   UNL     1      -3.922  -0.598   0.597  0.00  0.00    +0.113 A 
ATOM     16  N   UNL     1      -4.989   0.043   0.160  0.00  0.00    -0.244 NA
ATOM     17  C   UNL     1      -4.911   1.242  -0.385  0.00  0.00    +0.130 A 
ATOM     18  C   UNL     1      -3.692   1.881  -0.521  0.00  0.00    +0.053 A 
ATOM     19 CL   UNL     1      -6.357   2.027  -0.937  0.00  0.00    -0.062 Cl
ENDBRANCH  11  13
BRANCH  10  20
ATOM     20  C   UNL     1       0.180   3.849  -0.580  0.00  0.00    +0.116 C 
BRANCH  20  21
ATOM     21  C   UNL     1       0.524   3.763  -2.068  0.00  0.00    +0.047 C 
BRANCH  21  22
ATOM     22  C   UNL     1       1.943   4.287  -2.295  0.00  0.00    +0.161 C 
BRANCH  22  24
ATOM     23  C   UNL     1       3.576   4.673  -4.006  0.00  0.00    +0.193 C 
ATOM     24  O   UNL     1       2.265   4.206  -3.685  0.00  0.00    -0.383 OA
ENDBRANCH  22  24
ENDBRANCH  21  22
ENDBRANCH  20  21
ENDBRANCH  10  20
ENDBRANCH   1  10
BRANCH   2  25
ATOM     25  N   UNL     1      -2.664   3.321   1.984  0.00  0.00    -0.343 N 
ATOM     26  H   UNL     1      -3.269   3.358   2.902  0.00  0.00    +0.144 HD
ATOM     27  H   UNL     1      -1.760   2.696   1.946  0.00  0.00    +0.144 HD
ENDBRANCH   2  25
BRANCH   3  28
ATOM     28  C   UNL     1      -4.971   4.900   2.147  0.00  0.00    +0.163 C 
BRANCH  28  29
ATOM     29  C   UNL     1      -5.972   3.774   2.141  0.00  0.00    -0.028 A 
ATOM     30  C   UNL     1      -7.172   3.919   1.472  0.00  0.00    +0.005 A 
ATOM     31  C   UNL     1      -8.089   2.884   1.462  0.00  0.00    +0.000 A 
ATOM     32  C   UNL     1      -7.809   1.707   2.131  0.00  0.00    +0.000 A 
ATOM     33  C   UNL     1      -6.610   1.564   2.805  0.00  0.00    +0.000 A 
ATOM     34  C   UNL     1      -5.692   2.597   2.810  0.00  0.00    +0.005 A 
ENDBRANCH  28  29
ENDBRANCH   3  28
TORSDOF 9
