REMARK  Name = ZINC36007292
REMARK  13 active torsions:
REMARK  status: ('A' for Active; 'I' for Inactive)
REMARK    1  A    between atoms: C_1  and  C_2
REMARK    2  A    between atoms: C_2  and  C_4
REMARK    3  A    between atoms: C_2  and  O_13
REMARK    4  A    between atoms: N_9  and  C_10
REMARK    5  A    between atoms: C_10  and  C_11
REMARK    6  A    between atoms: C_10  and  C_12
REMARK    7  A    between atoms: O_13  and  C_14
REMARK    8  A    between atoms: C_14  and  C_16
REMARK    9  A    between atoms: C_16  and  C_18
REMARK   10  A    between atoms: C_16  and  N_22
REMARK   11  A    between atoms: C_18  and  C_19
REMARK   12  A    between atoms: C_19  and  C_20
REMARK   13  A    between atoms: C_19  and  C_21
REMARK                            x       y       z     vdW  Elec       q    Type
REMARK                         _______ _______ _______ _____ _____    ______ ____
ROOT
ATOM      1  C   UNL     1      -0.250  -0.714  -2.552  0.00  0.00    +0.329 C 
ATOM      2  O   UNL     1      -1.445  -0.538  -2.571  0.00  0.00    -0.249 OA
ENDROOT
BRANCH   1   3
ATOM      3  O   UNL     1       0.484  -0.223  -1.540  0.00  0.00    -0.451 OA
BRANCH   3   5
ATOM      4  C   UNL     1      -0.271   1.980  -0.893  0.00  0.00    +0.062 C 
ATOM      5  C   UNL     1      -0.214   0.496  -0.522  0.00  0.00    +0.259 C 
BRANCH   5   6
ATOM      6  C   UNL     1       0.507   0.335   0.791  0.00  0.00    +0.261 C 
ATOM      7  O   UNL     1       1.566  -0.254   0.833  0.00  0.00    -0.271 OA
ATOM      8  N   UNL     1      -0.025   0.845   1.920  0.00  0.00    -0.237 N 
ATOM      9  C   UNL     1       0.620   0.700   3.094  0.00  0.00    +0.306 C 
ATOM     10  O   UNL     1       1.681   0.110   3.136  0.00  0.00    -0.252 OA
ATOM     11  N   UNL     1       0.087   1.210   4.223  0.00  0.00    -0.297 N 
ATOM     12  H   UNL     1      -0.873   1.316   1.887  0.00  0.00    +0.159 HD
ATOM     13  H   UNL     1      -0.760   1.681   4.189  0.00  0.00    +0.151 HD
BRANCH  11  14
ATOM     14  C   UNL     1       0.788   1.052   5.499  0.00  0.00    +0.068 C 
ATOM     15  C   UNL     1       0.370   2.174   6.452  0.00  0.00    +0.027 C 
ATOM     16  C   UNL     1       0.428  -0.301   6.116  0.00  0.00    +0.027 C 
ENDBRANCH  11  14
ENDBRANCH   5   6
ENDBRANCH   3   5
ENDBRANCH   1   3
BRANCH   1  17
ATOM     17  C   UNL     1       0.418  -1.483  -3.662  0.00  0.00    +0.193 C 
BRANCH  17  18
ATOM     18  N   UNL     1      -0.591  -1.909  -4.636  0.00  0.00    -0.228 N 
ATOM     19  C   UNL     1      -0.623  -1.459  -5.905  0.00  0.00    +0.227 C 
ATOM     20  O   UNL     1       0.249  -0.832  -6.468  0.00  0.00    -0.275 OA
ATOM     21  C   UNL     1      -1.971  -1.889  -6.507  0.00  0.00    +0.091 C 
ATOM     22  C   UNL     1      -2.936  -0.754  -6.157  0.00  0.00    +0.040 C 
ATOM     23  C   UNL     1      -4.323  -1.222  -5.879  0.00  0.00    -0.030 C 
ATOM     24  C   UNL     1      -4.649  -2.441  -5.603  0.00  0.00    -0.030 C 
ATOM     25  C   UNL     1      -3.666  -3.568  -5.574  0.00  0.00    +0.040 C 
ATOM     26  C   UNL     1      -2.230  -3.138  -5.648  0.00  0.00    +0.091 C 
ATOM     27  C   UNL     1      -1.571  -2.793  -4.345  0.00  0.00    +0.227 C 
ATOM     28  O   UNL     1      -1.862  -3.221  -3.248  0.00  0.00    -0.275 OA
ENDBRANCH  17  18
BRANCH  17  29
ATOM     29  C   UNL     1       1.117  -2.714  -3.082  0.00  0.00    +0.037 C 
BRANCH  29  30
ATOM     30  C   UNL     1       2.284  -2.268  -2.198  0.00  0.00    -0.015 C 
ATOM     31  C   UNL     1       2.919  -3.492  -1.536  0.00  0.00    +0.007 C 
ATOM     32  C   UNL     1       3.329  -1.553  -3.056  0.00  0.00    +0.007 C 
ENDBRANCH  29  30
ENDBRANCH  17  29
ENDBRANCH   1  17
TORSDOF 8
