REMARK  Name = ZINC49469058
REMARK  8 active torsions:
REMARK  status: ('A' for Active; 'I' for Inactive)
REMARK    1  A    between atoms: C_1  and  C_2
REMARK    2  A    between atoms: C_2  and  C_3
REMARK    3  A    between atoms: C_5  and  C_9
REMARK    4  A    between atoms: C_7  and  C_8
REMARK    5  A    between atoms: N_11  and  N_12
REMARK    6  A    between atoms: N_15  and  C_16
REMARK    7  A    between atoms: C_16  and  C_17
REMARK    8  A    between atoms: C_16  and  C_18
REMARK                            x       y       z     vdW  Elec       q    Type
REMARK                         _______ _______ _______ _____ _____    ______ ____
ROOT
ATOM      1  C   UNL     1       0.281  -1.673  -4.776  0.00  0.00    +0.267 C 
ATOM      2  O   UNL     1      -0.906  -1.665  -5.042  0.00  0.00    -0.268 OA
ATOM      3  N   UNL     1       1.177  -2.067  -5.703  0.00  0.00    -0.229 N 
ATOM      4  H   UNL     1       2.123  -2.073  -5.491  0.00  0.00    +0.173 HD
ENDROOT
BRANCH   1   7
ATOM      5  C   UNL     1       0.707  -0.490  -1.238  0.00  0.00    -0.037 A 
ATOM      6  C   UNL     1      -0.009  -0.818  -2.364  0.00  0.00    +0.024 A 
ATOM      7  C   UNL     1       0.738  -1.254  -3.448  0.00  0.00    +0.076 A 
ATOM      8  S   UNL     1       2.398  -1.171  -2.804  0.00  0.00    -0.089 S 
ATOM      9  C   UNL     1       2.058  -0.605  -1.260  0.00  0.00    -0.009 A 
ATOM     10  C   UNL     1       3.032  -0.297  -0.151  0.00  0.00    +0.052 C 
BRANCH   5  12
ATOM     11  C   UNL     1      -0.019   1.526   0.010  0.00  0.00    +0.009 C 
ATOM     12  C   UNL     1       0.002  -0.004   0.002  0.00  0.00    +0.032 C 
ENDBRANCH   5  12
ENDBRANCH   1   7
BRANCH   3  13
ATOM     13  N   UNL     1       0.740  -2.468  -6.972  0.00  0.00    -0.218 N 
ATOM     14  C   UNL     1       1.636  -2.862  -7.899  0.00  0.00    +0.316 C 
ATOM     15  O   UNL     1       1.257  -3.210  -9.001  0.00  0.00    -0.251 OA
ATOM     16  N   UNL     1       2.951  -2.871  -7.605  0.00  0.00    -0.296 N 
ATOM     17  H   UNL     1      -0.206  -2.461  -7.184  0.00  0.00    +0.174 HD
ATOM     18  H   UNL     1       3.253  -2.593  -6.726  0.00  0.00    +0.151 HD
BRANCH  16  19
ATOM     19  C   UNL     1       3.924  -3.299  -8.613  0.00  0.00    +0.068 C 
ATOM     20  C   UNL     1       4.283  -2.114  -9.512  0.00  0.00    +0.027 C 
ATOM     21  C   UNL     1       5.186  -3.812  -7.917  0.00  0.00    +0.027 C 
ENDBRANCH  16  19
ENDBRANCH   3  13
TORSDOF 4
