REMARK  Name = ZINC36012777
REMARK  9 active torsions:
REMARK  status: ('A' for Active; 'I' for Inactive)
REMARK    1  A    between atoms: C_1  and  C_2
REMARK    2  A    between atoms: C_5  and  C_9
REMARK    3  A    between atoms: C_6  and  C_8
REMARK    4  A    between atoms: C_11  and  C_14
REMARK    5  A    between atoms: C_14  and  N_15
REMARK    6  A    between atoms: N_15  and  C_16
REMARK    7  A    between atoms: N_19  and  C_20
REMARK    8  A    between atoms: C_20  and  C_21
REMARK    9  A    between atoms: C_20  and  C_22
REMARK                            x       y       z     vdW  Elec       q    Type
REMARK                         _______ _______ _______ _____ _____    ______ ____
ROOT
ATOM      1  C   UNL     1       0.060  -4.251  -0.021  0.00  0.00    +0.168 A 
ATOM      2  C   UNL     1      -0.772  -5.061  -0.732  0.00  0.00    +0.077 A 
ATOM      3  C   UNL     1      -0.419  -6.391  -0.459  0.00  0.00    +0.101 A 
ATOM      4  N   UNL     1       0.581  -6.385   0.378  0.00  0.00    -0.081 NA
ATOM      5  O   UNL     1       0.907  -5.038   0.668  0.00  0.00    -0.354 OA
ENDROOT
BRANCH   1  10
ATOM      6  C   UNL     1      -0.018   1.503   0.010  0.00  0.00    +0.044 C 
ATOM      7  C   UNL     1       0.002  -0.004   0.002  0.00  0.00    -0.050 A 
ATOM      8  C   UNL     1       0.006  -0.686  -1.202  0.00  0.00    +0.004 A 
ATOM      9  C   UNL     1       0.024  -2.066  -1.216  0.00  0.00    +0.012 A 
ATOM     10  C   UNL     1       0.040  -2.773  -0.013  0.00  0.00    +0.023 A 
ATOM     11  C   UNL     1       0.037  -2.079   1.197  0.00  0.00    -0.039 A 
ATOM     12  C   UNL     1       0.023  -0.699   1.198  0.00  0.00    +0.007 A 
ATOM     13  C   UNL     1       0.053  -2.834   2.501  0.00  0.00    +0.044 C 
ENDBRANCH   1  10
BRANCH   3  14
ATOM     14  C   UNL     1      -1.081  -7.616  -1.034  0.00  0.00    +0.167 C 
BRANCH  14  15
ATOM     15  N   UNL     1      -0.337  -8.065  -2.214  0.00  0.00    -0.283 N 
ATOM     16  C   UNL     1       0.758  -9.027  -2.067  0.00  0.00    +0.134 C 
ATOM     17  C   UNL     1      -0.660  -7.593  -3.434  0.00  0.00    +0.302 C 
ATOM     18  O   UNL     1      -1.569  -6.795  -3.557  0.00  0.00    -0.253 OA
ATOM     19  N   UNL     1       0.024  -8.007  -4.519  0.00  0.00    -0.297 N 
ATOM     20  H   UNL     1       0.749  -8.643  -4.422  0.00  0.00    +0.150 HD
BRANCH  19  21
ATOM     21  C   UNL     1      -0.327  -7.494  -5.846  0.00  0.00    +0.068 C 
ATOM     22  C   UNL     1       0.892  -7.583  -6.766  0.00  0.00    +0.027 C 
ATOM     23  C   UNL     1      -1.469  -8.329  -6.430  0.00  0.00    +0.027 C 
ENDBRANCH  19  21
ENDBRANCH  14  15
ENDBRANCH   3  14
TORSDOF 4
