REMARK  Name = ZINC03849671
REMARK  7 active torsions:
REMARK  status: ('A' for Active; 'I' for Inactive)
REMARK    1  A    between atoms: C_4  and  O_7
REMARK    2  A    between atoms: O_7  and  C_8
REMARK    3  A    between atoms: C_8  and  C_9
REMARK    4  A    between atoms: C_9  and  O_10
REMARK    5  A    between atoms: O_10  and  C_11
REMARK    6  A    between atoms: C_14  and  C_17
REMARK    7  A    between atoms: C_29  and  C_30
REMARK                            x       y       z     vdW  Elec       q    Type
REMARK                         _______ _______ _______ _____ _____    ______ ____
ROOT
ATOM      1  C   UNL     1      10.876  -4.056   1.755  0.00  0.00    +0.025 C 
ATOM      2  C   UNL     1      11.606  -3.673   2.858  0.00  0.00    +0.085 A 
ATOM      3  C   UNL     1      13.050  -4.016   3.004  0.00  0.00    +0.160 A 
ATOM      4  N   UNL     1      13.874  -4.101   1.994  0.00  0.00    -0.281 NA
ATOM      5  N   UNL     1      13.437  -4.239   4.341  0.00  0.00    -0.212 N 
ATOM      6  C   UNL     1      12.685  -3.640   5.333  0.00  0.00    +0.199 A 
ATOM      7  N   UNL     1      11.566  -2.983   5.190  0.00  0.00    -0.182 NA
ATOM      8  C   UNL     1      11.001  -2.891   3.964  0.00  0.00    +0.283 A 
ATOM      9  O   UNL     1      10.021  -2.191   3.773  0.00  0.00    -0.265 OA
ATOM     10  S   UNL     1      13.605  -3.995   6.807  0.00  0.00    -0.031 S 
ATOM     11  C   UNL     1      14.872  -5.016   6.070  0.00  0.00    +0.101 A 
ATOM     12  N   UNL     1      14.515  -5.003   4.739  0.00  0.00    -0.283 N 
ATOM     13  C   UNL     1      15.922  -5.647   6.670  0.00  0.00    +0.102 C 
ATOM     14  H   UNL     1      14.805  -4.329   2.145  0.00  0.00    +0.188 HD
ATOM     15  H   UNL     1      15.015  -5.523   4.091  0.00  0.00    +0.188 HD
ENDROOT
BRANCH  13  16
ATOM     16  C   UNL     1      16.815  -6.411   5.901  0.00  0.00    +0.242 C 
ATOM     17  O   UNL     1      16.709  -6.433   4.686  0.00  0.00    -0.271 OA
ATOM     18  N   UNL     1      17.790  -7.119   6.505  0.00  0.00    -0.298 N 
ATOM     19  C   UNL     1      18.662  -8.008   5.725  0.00  0.00    +0.108 C 
ATOM     20  C   UNL     1      20.122  -7.642   6.013  0.00  0.00    +0.019 C 
ATOM     21  C   UNL     1      20.367  -7.686   7.523  0.00  0.00    +0.003 C 
ATOM     22  C   UNL     1      19.466  -6.663   8.218  0.00  0.00    +0.019 C 
ATOM     23  C   UNL     1      18.003  -7.013   7.955  0.00  0.00    +0.108 C 
ENDBRANCH  13  16
BRANCH   1  27
ATOM     24  C   UNL     1       6.687  -3.492   1.693  0.00  0.00    +0.121 A 
ATOM     25  C   UNL     1       7.306  -3.960   2.848  0.00  0.00    +0.046 A 
ATOM     26  C   UNL     1       8.660  -4.144   2.874  0.00  0.00    +0.011 A 
ATOM     27  C   UNL     1       9.425  -3.861   1.733  0.00  0.00    -0.024 A 
ATOM     28  C   UNL     1       8.795  -3.390   0.572  0.00  0.00    +0.011 A 
ATOM     29  C   UNL     1       7.441  -3.215   0.557  0.00  0.00    +0.046 A 
BRANCH  24  30
ATOM     30  O   UNL     1       5.343  -3.311   1.673  0.00  0.00    -0.489 OA
BRANCH  30  31
ATOM     31  C   UNL     1       4.630  -3.614   2.874  0.00  0.00    +0.270 C 
BRANCH  31  32
ATOM     32  C   UNL     1       3.138  -3.350   2.661  0.00  0.00    +0.270 C 
BRANCH  32  33
ATOM     33  O   UNL     1       2.628  -4.255   1.680  0.00  0.00    -0.489 OA
BRANCH  33  37
ATOM     34  C   UNL     1      -1.378  -3.946   0.745  0.00  0.00    +0.000 A 
ATOM     35  C   UNL     1      -0.594  -4.895   0.116  0.00  0.00    +0.004 A 
ATOM     36  C   UNL     1       0.748  -5.001   0.427  0.00  0.00    +0.045 A 
ATOM     37  C   UNL     1       1.309  -4.153   1.372  0.00  0.00    +0.121 A 
ATOM     38  C   UNL     1       0.520  -3.201   2.001  0.00  0.00    +0.045 A 
ATOM     39  C   UNL     1      -0.821  -3.100   1.687  0.00  0.00    +0.004 A 
ENDBRANCH  33  37
ENDBRANCH  32  33
ENDBRANCH  31  32
ENDBRANCH  30  31
ENDBRANCH  24  30
ENDBRANCH   1  27
TORSDOF 7
