REMARK  Name = ZINC51756900
REMARK  5 active torsions:
REMARK  status: ('A' for Active; 'I' for Inactive)
REMARK    1  A    between atoms: C_4  and  C_6
REMARK    2  A    between atoms: C_6  and  C_7
REMARK    3  A    between atoms: C_7  and  N_8
REMARK    4  A    between atoms: N_11  and  N_12
REMARK    5  A    between atoms: C_13  and  C_15
REMARK                            x       y       z     vdW  Elec       q    Type
REMARK                         _______ _______ _______ _____ _____    ______ ____
ROOT
ATOM      1  N   UNL     1       1.590  -4.112  -1.478  0.00  0.00    -0.298 N 
ATOM      2  C   UNL     1       1.671  -4.773  -2.649  0.00  0.00    +0.316 C 
ATOM      3  O   UNL     1       1.578  -4.165  -3.698  0.00  0.00    -0.251 OA
ATOM      4  N   UNL     1       1.854  -6.109  -2.658  0.00  0.00    -0.218 N 
ATOM      5  H   UNL     1       1.664  -4.597  -0.641  0.00  0.00    +0.150 HD
ATOM      6  H   UNL     1       1.912  -6.585  -3.502  0.00  0.00    +0.174 HD
ENDROOT
BRANCH   4   7
ATOM      7  N   UNL     1       1.961  -6.809  -1.450  0.00  0.00    -0.228 N 
ATOM      8  C   UNL     1       2.145  -8.144  -1.459  0.00  0.00    +0.276 C 
ATOM      9  O   UNL     1       2.217  -8.741  -2.517  0.00  0.00    -0.267 OA
ATOM     10  H   UNL     1       1.903  -6.333  -0.607  0.00  0.00    +0.173 HD
BRANCH   8  11
ATOM     11  C   UNL     1       2.257  -8.877  -0.193  0.00  0.00    +0.104 A 
ATOM     12  C   UNL     1       2.451 -10.235  -0.053  0.00  0.00    +0.047 A 
ATOM     13  C   UNL     1       2.498 -10.504   1.319  0.00  0.00    +0.036 A 
ATOM     14  C   UNL     1       2.336  -9.332   1.978  0.00  0.00    +0.098 A 
ATOM     15  N   UNL     1       2.193  -8.335   1.070  0.00  0.00    -0.356 N 
ATOM     16  H   UNL     1       2.066  -7.395   1.276  0.00  0.00    +0.166 HD
ATOM     17 BR   UNL     1       2.744 -12.203   2.113  0.00  0.00    -0.049 Br
ENDBRANCH   8  11
ENDBRANCH   4   7
BRANCH   1  18
ATOM     18  C   UNL     1       1.390  -2.661  -1.468  0.00  0.00    +0.112 C 
BRANCH  18  19
ATOM     19  C   UNL     1       1.335  -2.163  -0.022  0.00  0.00    +0.081 C 
BRANCH  19  23
ATOM     20  C   UNL     1      -0.016   1.314   0.009  0.00  0.00    +0.119 A 
ATOM     21  C   UNL     1       1.186   1.946   0.001  0.00  0.00    +0.066 A 
ATOM     22  S   UNL     1       2.294   0.545  -0.017  0.00  0.00    -0.081 S 
ATOM     23  C   UNL     1       1.129  -0.670  -0.012  0.00  0.00    +0.080 A 
ATOM     24  N   UNL     1       0.002  -0.004   0.002  0.00  0.00    -0.252 NA
ENDBRANCH  19  23
ENDBRANCH  18  19
ENDBRANCH   1  18
TORSDOF 5
