REMARK  Name = ZINC44768212
REMARK  7 active torsions:
REMARK  status: ('A' for Active; 'I' for Inactive)
REMARK    1  A    between atoms: C_1  and  C_2
REMARK    2  A    between atoms: C_2  and  C_3
REMARK    3  A    between atoms: C_2  and  N_4
REMARK    4  A    between atoms: N_4  and  C_5
REMARK    5  A    between atoms: C_6  and  C_8
REMARK    6  A    between atoms: C_8  and  C_14
REMARK    7  A    between atoms: C_14  and  N_16
REMARK                            x       y       z     vdW  Elec       q    Type
REMARK                         _______ _______ _______ _____ _____    ______ ____
ROOT
ATOM      1  C   UNL     1       0.415  -1.805   3.306  0.00  0.00    +0.091 C 
ATOM      2  C   UNL     1       1.606  -2.763   3.243  0.00  0.00    +0.023 C 
ATOM      3  C   UNL     1       1.325  -3.860   2.214  0.00  0.00    +0.001 C 
ATOM      4  C   UNL     1       0.070  -4.633   2.623  0.00  0.00    +0.000 C 
ATOM      5  C   UNL     1      -1.122  -3.675   2.686  0.00  0.00    +0.001 C 
ATOM      6  C   UNL     1      -0.840  -2.579   3.715  0.00  0.00    +0.023 C 
ENDROOT
BRANCH   1   9
ATOM      7  N   UNL     1      -0.866  -0.385   1.737  0.00  0.00    -0.301 N 
ATOM      8  C   UNL     1      -1.752  -0.033   2.849  0.00  0.00    +0.132 C 
ATOM      9  C   UNL     1       0.201  -1.180   1.951  0.00  0.00    +0.228 C 
ATOM     10  O   UNL     1       0.989  -1.393   1.054  0.00  0.00    -0.275 OA
BRANCH   7  12
ATOM     11  C   UNL     1      -2.517  -0.353  -0.067  0.00  0.00    +0.028 C 
ATOM     12  C   UNL     1      -1.139   0.128   0.392  0.00  0.00    +0.070 C 
ATOM     13  C   UNL     1      -1.114   1.658   0.415  0.00  0.00    +0.028 C 
ENDBRANCH   7  12
ENDBRANCH   1   9
BRANCH   1  14
ATOM     14  C   UNL     1       0.692  -0.725   4.319  0.00  0.00    +0.061 C 
ATOM     15  S   UNL     1      -0.162  -0.657   5.669  0.00  0.00    -0.040 S 
BRANCH  14  16
ATOM     16  N   UNL     1       1.660   0.184   4.088  0.00  0.00    -0.355 N 
ATOM     17  H   UNL     1       2.129   0.188   3.239  0.00  0.00    +0.143 HD
ATOM     18  H   UNL     1       1.887   0.835   4.771  0.00  0.00    +0.143 HD
ENDBRANCH  14  16
ENDBRANCH   1  14
TORSDOF 4
