REMARK  Name = ZINC36970264
REMARK  7 active torsions:
REMARK  status: ('A' for Active; 'I' for Inactive)
REMARK    1  A    between atoms: C_1  and  C_2
REMARK    2  A    between atoms: C_5  and  C_9
REMARK    3  A    between atoms: C_6  and  O_8
REMARK    4  A    between atoms: C_9  and  C_11
REMARK    5  A    between atoms: C_9  and  N_12
REMARK    6  A    between atoms: N_12  and  C_13
REMARK    7  A    between atoms: C_18  and  N_19
REMARK                            x       y       z     vdW  Elec       q    Type
REMARK                         _______ _______ _______ _____ _____    ______ ____
ROOT
ATOM      1  N   UNL     1      -0.439  -4.812  -1.301  0.00  0.00    -0.335 N 
ATOM      2  H   UNL     1      -0.319  -4.304  -2.118  0.00  0.00    +0.147 HD
ENDROOT
BRANCH   1   3
ATOM      3  C   UNL     1      -1.145  -6.017  -1.325  0.00  0.00    +0.060 A 
ATOM      4  C   UNL     1      -1.349  -6.728  -0.150  0.00  0.00    +0.045 A 
ATOM      5  C   UNL     1      -2.048  -7.920  -0.177  0.00  0.00    +0.043 A 
ATOM      6  C   UNL     1      -2.544  -8.405  -1.375  0.00  0.00    +0.022 A 
ATOM      7  C   UNL     1      -2.343  -7.698  -2.546  0.00  0.00    +0.036 A 
ATOM      8  C   UNL     1      -1.651  -6.503  -2.524  0.00  0.00    +0.147 A 
ATOM      9 CL   UNL     1      -2.303  -8.811   1.291  0.00  0.00    -0.083 Cl
BRANCH   8  10
ATOM     10  N   UNL     1      -1.442  -5.745  -3.778  0.00  0.00    +0.058 N 
ATOM     11  O   UNL     1      -1.486  -4.537  -3.768  0.00  0.00    -0.126 OA
ATOM     12  O   UNL     1      -1.226  -6.333  -4.812  0.00  0.00    -0.126 OA
ENDBRANCH   8  10
ENDBRANCH   1   3
BRANCH   1  13
ATOM     13  C   UNL     1       0.120  -4.316  -0.041  0.00  0.00    +0.101 C 
ATOM     14  C   UNL     1       1.488  -4.957   0.198  0.00  0.00    +0.033 C 
BRANCH  13  19
ATOM     15  C   UNL     1       0.705   1.429  -0.328  0.00  0.00    +0.044 C 
ATOM     16  C   UNL     1       0.553  -0.068  -0.250  0.00  0.00    -0.047 A 
ATOM     17  C   UNL     1       0.618  -0.830  -1.402  0.00  0.00    +0.004 A 
ATOM     18  C   UNL     1       0.478  -2.204  -1.334  0.00  0.00    +0.009 A 
ATOM     19  C   UNL     1       0.273  -2.818  -0.114  0.00  0.00    +0.014 A 
ATOM     20  C   UNL     1       0.207  -2.057   1.043  0.00  0.00    +0.122 A 
ATOM     21  C   UNL     1       0.354  -0.679   0.973  0.00  0.00    +0.049 A 
BRANCH  20  22
ATOM     22  O   UNL     1       0.005  -2.659   2.244  0.00  0.00    -0.506 OA
ATOM     23  H   UNL     1       0.820  -2.917   2.697  0.00  0.00    +0.292 HD
ENDBRANCH  20  22
ENDBRANCH  13  19
ENDBRANCH   1  13
TORSDOF 5
