REMARK  Name = ZINC42640224
REMARK  11 active torsions:
REMARK  status: ('A' for Active; 'I' for Inactive)
REMARK    1  A    between atoms: C_1  and  C_2
REMARK    2  A    between atoms: C_5  and  N_9
REMARK    3  A    between atoms: C_6  and  C_8
REMARK    4  A    between atoms: C_13  and  C_15
REMARK    5  A    between atoms: C_15  and  C_17
REMARK    6  A    between atoms: C_15  and  N_18
REMARK    7  A    between atoms: N_18  and  C_19
REMARK    8  A    between atoms: C_19  and  C_21
REMARK    9  A    between atoms: C_19  and  C_22
REMARK   10  A    between atoms: C_25  and  O_29
REMARK   11  A    between atoms: O_29  and  C_30
REMARK                            x       y       z     vdW  Elec       q    Type
REMARK                         _______ _______ _______ _____ _____    ______ ____
ROOT
ATOM      1  N   UNL     1      -0.921  -4.099  -0.130  0.00  0.00    -0.269 N 
ATOM      2  C   UNL     1      -0.789  -4.796  -1.275  0.00  0.00    +0.310 C 
ATOM      3  O   UNL     1      -0.757  -4.214  -2.341  0.00  0.00    -0.252 OA
ATOM      4  N   UNL     1      -0.693  -6.140  -1.239  0.00  0.00    -0.241 N 
ATOM      5  C   UNL     1      -0.561  -6.838  -2.385  0.00  0.00    +0.206 C 
ATOM      6  O   UNL     1      -0.530  -6.256  -3.448  0.00  0.00    -0.277 OA
ATOM      7  H   UNL     1      -0.871  -4.556   0.725  0.00  0.00    +0.156 HD
ATOM      8  H   UNL     1      -0.718  -6.605  -0.388  0.00  0.00    +0.159 HD
ENDROOT
BRANCH   1  13
ATOM      9  C   UNL     1      -1.764   1.508  -0.304  0.00  0.00    +0.044 C 
ATOM     10  C   UNL     1      -1.540   0.019  -0.258  0.00  0.00    -0.050 A 
ATOM     11  C   UNL     1      -0.748  -0.590  -1.214  0.00  0.00    +0.005 A 
ATOM     12  C   UNL     1      -0.541  -1.954  -1.175  0.00  0.00    +0.024 A 
ATOM     13  C   UNL     1      -1.128  -2.716  -0.172  0.00  0.00    +0.038 A 
ATOM     14  C   UNL     1      -1.922  -2.102   0.787  0.00  0.00    -0.029 A 
ATOM     15  C   UNL     1      -2.122  -0.735   0.744  0.00  0.00    +0.008 A 
ATOM     16  C   UNL     1      -2.562  -2.924   1.876  0.00  0.00    +0.045 C 
ENDBRANCH   1  13
BRANCH   5  17
ATOM     17  C   UNL     1      -0.454  -8.340  -2.344  0.00  0.00    +0.014 C 
ATOM     18  C   UNL     1       0.774  -8.742  -1.524  0.00  0.00    -0.004 C 
BRANCH  17  19
ATOM     19  N   UNL     1      -0.320  -8.859  -3.712  0.00  0.00    +0.391 N 
ATOM     20  H   UNL     1      -1.079  -8.513  -4.279  0.00  0.00    -0.084 HD
ATOM     21  H   UNL     1       0.558  -8.553  -4.103  0.00  0.00    -0.084 HD
BRANCH  19  22
ATOM     22  C   UNL     1      -0.358 -10.327  -3.685  0.00  0.00    -0.043 C 
ATOM     23  C   UNL     1      -0.111 -10.870  -5.094  0.00  0.00    -0.009 C 
BRANCH  22  24
ATOM     24  C   UNL     1      -1.710 -10.785  -3.200  0.00  0.00    -0.059 A 
ATOM     25  C   UNL     1      -2.852 -10.130  -3.622  0.00  0.00    +0.006 A 
ATOM     26  C   UNL     1      -4.093 -10.547  -3.179  0.00  0.00    +0.049 A 
ATOM     27  C   UNL     1      -4.193 -11.624  -2.311  0.00  0.00    +0.155 A 
ATOM     28  C   UNL     1      -3.045 -12.281  -1.889  0.00  0.00    +0.165 A 
ATOM     29  C   UNL     1      -1.805 -11.863  -2.339  0.00  0.00    +0.044 A 
ATOM     30  F   UNL     1      -3.138 -13.331  -1.043  0.00  0.00    -0.202 F 
BRANCH  27  31
ATOM     31  O   UNL     1      -5.413 -12.036  -1.874  0.00  0.00    -0.492 OA
ATOM     32  C   UNL     1      -6.550 -11.313  -2.350  0.00  0.00    +0.277 C 
ENDBRANCH  27  31
ENDBRANCH  22  24
ENDBRANCH  19  22
ENDBRANCH  17  19
ENDBRANCH   5  17
TORSDOF 6
