REMARK  Name = ZINC16492760
REMARK  7 active torsions:
REMARK  status: ('A' for Active; 'I' for Inactive)
REMARK    1  A    between atoms: C_1  and  O_2
REMARK    2  A    between atoms: O_2  and  C_3
REMARK    3  A    between atoms: C_6  and  N_9
REMARK    4  A    between atoms: C_18  and  C_22
REMARK    5  A    between atoms: N_24  and  C_25
REMARK    6  A    between atoms: C_25  and  C_26
REMARK    7  A    between atoms: C_26  and  C_27
REMARK                            x       y       z     vdW  Elec       q    Type
REMARK                         _______ _______ _______ _____ _____    ______ ____
ROOT
ATOM      1  N   UNL     1      -2.586   1.817 -11.284  0.00  0.00    -0.269 N 
ATOM      2  C   UNL     1      -1.764   0.876 -10.778  0.00  0.00    +0.306 C 
ATOM      3  O   UNL     1      -1.445  -0.081 -11.458  0.00  0.00    -0.252 OA
ATOM      4  N   UNL     1      -1.295   0.995  -9.520  0.00  0.00    -0.285 N 
ATOM      5  C   UNL     1      -0.497  -0.080  -8.916  0.00  0.00    +0.109 C 
ATOM      6  C   UNL     1       0.826   0.511  -8.416  0.00  0.00    +0.017 C 
ATOM      7  C   UNL     1       0.540   1.698  -7.509  0.00  0.00    -0.016 C 
ATOM      8  C   UNL     1      -0.245   2.781  -8.232  0.00  0.00    +0.017 C 
ATOM      9  C   UNL     1      -1.575   2.202  -8.731  0.00  0.00    +0.109 C 
ATOM     10  C   UNL     1       0.786   0.891  -5.211  0.00  0.00    +0.028 C 
ATOM     11  C   UNL     1       1.866   2.007  -5.082  0.00  0.00    +0.061 C 
ATOM     12  S   UNL     1       2.116   2.390  -6.871  0.00  0.00    -0.174 S 
ATOM     13  H   UNL     1      -2.752   2.633 -10.786  0.00  0.00    +0.156 HD
ATOM     14  N   UNL     1      -0.177   1.267  -6.279  0.00  0.00    +0.397 N 
ATOM     15  H   UNL     1      -0.768   0.457  -6.499  0.00  0.00    -0.083 HD
ATOM     16  H   UNL     1      -0.766   2.039  -5.944  0.00  0.00    -0.083 HD
ENDROOT
BRANCH   1  20
ATOM     17  C   UNL     1      -4.411   1.223 -14.985  0.00  0.00    +0.120 A 
ATOM     18  C   UNL     1      -4.056   2.503 -14.585  0.00  0.00    +0.047 A 
ATOM     19  C   UNL     1      -3.452   2.700 -13.359  0.00  0.00    +0.027 A 
ATOM     20  C   UNL     1      -3.199   1.618 -12.528  0.00  0.00    +0.035 A 
ATOM     21  C   UNL     1      -3.549   0.336 -12.931  0.00  0.00    +0.027 A 
ATOM     22  C   UNL     1      -4.158   0.141 -14.155  0.00  0.00    +0.047 A 
BRANCH  17  24
ATOM     23  C   UNL     1      -5.345  -0.315 -16.541  0.00  0.00    +0.277 C 
ATOM     24  O   UNL     1      -5.007   1.029 -16.192  0.00  0.00    -0.495 OA
ENDBRANCH  17  24
ENDBRANCH   1  20
BRANCH  10  25
ATOM     25  C   UNL     1       0.045   0.750  -3.906  0.00  0.00    +0.200 C 
ATOM     26  O   UNL     1      -1.152   0.943  -3.864  0.00  0.00    -0.278 OA
ATOM     27  N   UNL     1       0.712   0.409  -2.785  0.00  0.00    -0.316 N 
ATOM     28  H   UNL     1       1.669   0.255  -2.819  0.00  0.00    +0.149 HD
BRANCH  27  29
ATOM     29  C   UNL     1      -0.008   0.272  -1.517  0.00  0.00    +0.109 C 
BRANCH  29  30
ATOM     30  C   UNL     1       0.975  -0.118  -0.412  0.00  0.00    +0.055 C 
BRANCH  30  31
ATOM     31  C   UNL     1       0.234  -0.259   0.893  0.00  0.00    -0.027 A 
ATOM     32  C   UNL     1       0.182   0.803   1.776  0.00  0.00    +0.006 A 
ATOM     33  C   UNL     1      -0.501   0.676   2.970  0.00  0.00    +0.020 A 
ATOM     34  C   UNL     1      -1.125  -0.518   3.287  0.00  0.00    +0.042 A 
ATOM     35  C   UNL     1      -1.069  -1.583   2.406  0.00  0.00    +0.040 A 
ATOM     36  C   UNL     1      -0.389  -1.453   1.208  0.00  0.00    +0.046 A 
ATOM     37 CL   UNL     1      -0.317  -2.789   0.102  0.00  0.00    -0.083 Cl
ATOM     38 CL   UNL     1      -1.979  -0.679   4.790  0.00  0.00    -0.083 Cl
ENDBRANCH  30  31
ENDBRANCH  29  30
ENDBRANCH  27  29
ENDBRANCH  10  25
TORSDOF 6
