REMARK  Name = ZINC04705423
REMARK  3 active torsions:
REMARK  status: ('A' for Active; 'I' for Inactive)
REMARK    1  A    between atoms: C_4  and  N_7
REMARK    2  A    between atoms: P_10  and  N_21
REMARK    3  A    between atoms: N_21  and  C_22
REMARK                            x       y       z     vdW  Elec       q    Type
REMARK                         _______ _______ _______ _____ _____    ______ ____
ROOT
ATOM      1  N   UNL     1       0.774  -1.310   3.550  0.00  0.00    -0.230 NA
ATOM      2  C   UNL     1       0.120  -0.739   2.475  0.00  0.00    +0.152 C 
ATOM      3  N   UNL     1       0.812  -0.258   1.469  0.00  0.00    -0.274 N 
ATOM      4  P   UNL     1       0.063   0.470   0.201  0.00  0.00    +0.172 P 
ATOM      5  S   UNL     1       0.973   0.079  -1.378  0.00  0.00    -0.006 S 
ATOM      6  N   UNL     1      -1.485  -0.102   0.106  0.00  0.00    -0.275 N 
ATOM      7  C   UNL     1      -2.096  -0.377   1.334  0.00  0.00    +0.131 A 
ATOM      8  C   UNL     1      -1.339  -0.672   2.462  0.00  0.00    +0.122 A 
ATOM      9  N   UNL     1      -2.242  -0.878   3.482  0.00  0.00    -0.325 N 
ATOM     10  C   UNL     1      -3.475  -0.710   2.958  0.00  0.00    +0.089 A 
ATOM     11  N   UNL     1      -3.373  -0.417   1.680  0.00  0.00    -0.331 N 
ATOM     12  C   UNL     1      -4.519  -0.919   4.043  0.00  0.00    +0.074 C 
ATOM     13  C   UNL     1      -3.715  -0.664   5.347  0.00  0.00    +0.029 C 
ATOM     14  C   UNL     1      -2.330  -1.216   4.916  0.00  0.00    +0.124 C 
ATOM     15  H   UNL     1      -1.961  -0.240  -0.876  0.00  0.00    +0.155 HD
ATOM     16  H   UNL     1      -4.153  -0.218   0.930  0.00  0.00    +0.168 HD
ATOM     17  H   UNL     1       1.908  -0.347   1.483  0.00  0.00    +0.155 HD
ENDROOT
BRANCH   1  21
ATOM     18  C   UNL     1       4.909  -1.804   3.450  0.00  0.00    +0.000 A 
ATOM     19  C   UNL     1       4.274  -1.547   4.651  0.00  0.00    +0.002 A 
ATOM     20  C   UNL     1       2.903  -1.383   4.688  0.00  0.00    +0.028 A 
ATOM     21  C   UNL     1       2.162  -1.476   3.517  0.00  0.00    +0.066 A 
ATOM     22  C   UNL     1       2.803  -1.740   2.313  0.00  0.00    +0.028 A 
ATOM     23  C   UNL     1       4.174  -1.897   2.282  0.00  0.00    +0.002 A 
ENDBRANCH   1  21
BRANCH   4  24
ATOM     24  N   UNL     1       0.037   2.093   0.434  0.00  0.00    -0.291 N 
ATOM     25  H   UNL     1      -0.924   2.624   0.502  0.00  0.00    +0.154 HD
BRANCH  24  26
ATOM     26  C   UNL     1       1.235   2.802   0.546  0.00  0.00    +0.033 A 
ATOM     27  C   UNL     1       2.450   2.132   0.466  0.00  0.00    +0.023 A 
ATOM     28  C   UNL     1       3.633   2.837   0.572  0.00  0.00    +0.002 A 
ATOM     29  C   UNL     1       3.609   4.205   0.768  0.00  0.00    +0.000 A 
ATOM     30  C   UNL     1       2.402   4.874   0.854  0.00  0.00    +0.002 A 
ATOM     31  C   UNL     1       1.215   4.176   0.743  0.00  0.00    +0.023 A 
ENDBRANCH  24  26
ENDBRANCH   4  24
TORSDOF 3
