REMARK  Name = ZINC09075483
REMARK  7 active torsions:
REMARK  status: ('A' for Active; 'I' for Inactive)
REMARK    1  A    between atoms: C_4  and  C_7
REMARK    2  A    between atoms: C_14  and  N_35
REMARK    3  A    between atoms: C_15  and  C_33
REMARK    4  A    between atoms: C_16  and  C_18
REMARK    5  A    between atoms: C_21  and  O_24
REMARK    6  A    between atoms: O_24  and  C_25
REMARK    7  A    between atoms: C_25  and  C_26
REMARK                            x       y       z     vdW  Elec       q    Type
REMARK                         _______ _______ _______ _____ _____    ______ ____
ROOT
ATOM      1  C   UNL     1       3.640  -0.643  -0.070  0.00  0.00    +0.074 A 
ATOM      2  C   UNL     1       3.959  -1.766  -0.756  0.00  0.00    +0.054 A 
ATOM      3  C   UNL     1       5.297  -2.095  -0.459  0.00  0.00    +0.245 A 
ATOM      4  N   UNL     1       5.762  -1.206   0.372  0.00  0.00    -0.135 NA
ATOM      5  N   UNL     1       4.749  -0.271   0.637  0.00  0.00    -0.273 N 
ATOM      6  H   UNL     1       4.822   0.501   1.220  0.00  0.00    +0.189 HD
ATOM      7  O   UNL     1       5.910  -3.180  -1.003  0.00  0.00    -0.421 OA
ATOM      8  C   UNL     1       5.299  -3.783  -2.042  0.00  0.00    +0.201 C 
ATOM      9  C   UNL     1       4.021  -3.558  -2.414  0.00  0.00    +0.098 C 
ATOM     10  C   UNL     1       3.115  -2.593  -1.692  0.00  0.00    +0.102 C 
ENDROOT
BRANCH   1  14
ATOM     11  C   UNL     1      -0.106   1.361  -0.121  0.00  0.00    +0.000 A 
ATOM     12  C   UNL     1       0.479   0.966  -1.311  0.00  0.00    +0.001 A 
ATOM     13  C   UNL     1       1.696   0.314  -1.301  0.00  0.00    +0.010 A 
ATOM     14  C   UNL     1       2.335   0.056  -0.088  0.00  0.00    +0.000 A 
ATOM     15  C   UNL     1       1.740   0.458   1.108  0.00  0.00    +0.010 A 
ATOM     16  C   UNL     1       0.523   1.108   1.084  0.00  0.00    +0.001 A 
ENDBRANCH   1  14
BRANCH  10  17
ATOM     17  C   UNL     1       2.082  -3.357  -0.904  0.00  0.00    -0.034 A 
ATOM     18  C   UNL     1       2.479  -4.204   0.115  0.00  0.00    +0.008 A 
ATOM     19  C   UNL     1       1.534  -4.906   0.838  0.00  0.00    +0.046 A 
ATOM     20  C   UNL     1       0.186  -4.760   0.542  0.00  0.00    +0.121 A 
ATOM     21  C   UNL     1      -0.209  -3.909  -0.480  0.00  0.00    +0.046 A 
ATOM     22  C   UNL     1       0.739  -3.206  -1.197  0.00  0.00    +0.008 A 
BRANCH  20  23
ATOM     23  O   UNL     1      -0.745  -5.450   1.252  0.00  0.00    -0.487 OA
BRANCH  23  24
ATOM     24  C   UNL     1      -2.113  -5.250   0.892  0.00  0.00    +0.266 C 
BRANCH  24  25
ATOM     25  C   UNL     1      -2.994  -6.091   1.781  0.00  0.00    +0.008 A 
ATOM     26  C   UNL     1      -2.429  -6.885   2.762  0.00  0.00    +0.008 A 
ATOM     27  C   UNL     1      -3.237  -7.656   3.577  0.00  0.00    +0.000 A 
ATOM     28  C   UNL     1      -4.609  -7.633   3.412  0.00  0.00    +0.001 A 
ATOM     29  C   UNL     1      -5.175  -6.839   2.432  0.00  0.00    +0.020 A 
ATOM     30  C   UNL     1      -4.367  -6.063   1.619  0.00  0.00    +0.047 A 
ATOM     31 CL   UNL     1      -5.077  -5.061   0.393  0.00  0.00    -0.083 Cl
ENDBRANCH  24  25
ENDBRANCH  23  24
ENDBRANCH  20  23
ENDBRANCH  10  17
BRANCH   8  32
ATOM     32  N   UNL     1       6.027  -4.688  -2.774  0.00  0.00    -0.328 N 
ATOM     33  H   UNL     1       6.949  -4.875  -2.536  0.00  0.00    +0.145 HD
ATOM     34  H   UNL     1       5.620  -5.141  -3.529  0.00  0.00    +0.145 HD
ENDBRANCH   8  32
BRANCH   9  35
ATOM     35  C   UNL     1       3.503  -4.266  -3.545  0.00  0.00    +0.101 C 
ATOM     36  N   UNL     1       3.092  -4.829  -4.442  0.00  0.00    -0.191 NA
ENDBRANCH   9  35
TORSDOF 7
