REMARK  Name = ZINC65310618
REMARK  6 active torsions:
REMARK  status: ('A' for Active; 'I' for Inactive)
REMARK    1  A    between atoms: N_7  and  C_15
REMARK    2  A    between atoms: C_15  and  C_16
REMARK    3  A    between atoms: C_16  and  C_17
REMARK    4  A    between atoms: N_19  and  C_20
REMARK    5  A    between atoms: C_20  and  C_21
REMARK    6  A    between atoms: N_23  and  C_24
REMARK                            x       y       z     vdW  Elec       q    Type
REMARK                         _______ _______ _______ _____ _____    ______ ____
ROOT
ATOM      1  C   UNL     1       0.744  -3.042  -2.210  0.00  0.00    +0.115 C 
ENDROOT
BRANCH   1   2
ATOM      2  C   UNL     1      -0.295  -3.791  -3.004  0.00  0.00    +0.215 C 
ATOM      3  O   UNL     1      -1.344  -4.107  -2.484  0.00  0.00    -0.276 OA
ATOM      4  N   UNL     1      -0.058  -4.110  -4.292  0.00  0.00    -0.307 N 
ATOM      5  H   UNL     1       0.781  -3.857  -4.708  0.00  0.00    +0.149 HD
BRANCH   4   6
ATOM      6  C   UNL     1      -1.068  -4.839  -5.063  0.00  0.00    +0.200 C 
BRANCH   6   7
ATOM      7  C   UNL     1      -0.561  -5.069  -6.464  0.00  0.00    +0.234 C 
ATOM      8  O   UNL     1       0.536  -4.664  -6.785  0.00  0.00    -0.274 OA
ATOM      9  N   UNL     1      -1.327  -5.724  -7.359  0.00  0.00    -0.282 N 
ATOM     10  H   UNL     1      -2.204  -6.048  -7.101  0.00  0.00    +0.155 HD
BRANCH   9  11
ATOM     11  C   UNL     1      -0.853  -5.939  -8.666  0.00  0.00    +0.071 A 
ATOM     12  C   UNL     1      -1.518  -6.576  -9.663  0.00  0.00    +0.128 A 
ATOM     13  N   UNL     1      -0.717  -6.571 -10.760  0.00  0.00    -0.283 N 
ATOM     14  H   UNL     1      -0.930  -6.955 -11.625  0.00  0.00    +0.188 HD
ATOM     15  N   UNL     1       0.471  -5.911 -10.421  0.00  0.00    -0.180 NA
ATOM     16  C   UNL     1       0.389  -5.529  -9.173  0.00  0.00    +0.157 A 
ENDBRANCH   9  11
ENDBRANCH   6   7
ENDBRANCH   4   6
ENDBRANCH   1   2
BRANCH   1  17
ATOM     17  C   UNL     1       0.229  -2.808  -0.788  0.00  0.00    +0.120 C 
BRANCH  17  24
ATOM     18  C   UNL     1      -0.017   1.379   0.010  0.00  0.00    +0.002 A 
ATOM     19  C   UNL     1       1.165   2.096   0.002  0.00  0.00    +0.001 A 
ATOM     20  C   UNL     1       2.380   1.430  -0.013  0.00  0.00    +0.017 A 
ATOM     21  C   UNL     1       2.404   0.049  -0.021  0.00  0.00    +0.034 A 
ATOM     22  C   UNL     1       1.212  -0.680  -0.013  0.00  0.00    +0.048 A 
ATOM     23  C   UNL     1       0.002  -0.004   0.002  0.00  0.00    +0.024 A 
ATOM     24  N   UNL     1       1.239  -2.079  -0.017  0.00  0.00    -0.298 N 
ATOM     25  C   UNL     1       2.202  -2.802   0.695  0.00  0.00    +0.048 A 
ATOM     26  C   UNL     1       1.860  -3.986   1.330  0.00  0.00    +0.024 A 
ATOM     27  C   UNL     1       2.817  -4.695   2.034  0.00  0.00    +0.002 A 
ATOM     28  C   UNL     1       4.117  -4.232   2.109  0.00  0.00    +0.001 A 
ATOM     29  C   UNL     1       4.470  -3.050   1.478  0.00  0.00    +0.017 A 
ATOM     30  C   UNL     1       3.517  -2.338   0.775  0.00  0.00    +0.034 A 
ATOM     31  S   UNL     1       3.936  -0.828  -0.040  0.00  0.00    -0.086 S 
ENDBRANCH  17  24
ENDBRANCH   1  17
TORSDOF 6
