REMARK  Name = ZINC45513198
REMARK  11 active torsions:
REMARK  status: ('A' for Active; 'I' for Inactive)
REMARK    1  A    between atoms: C_1  and  O_2
REMARK    2  A    between atoms: O_2  and  C_3
REMARK    3  A    between atoms: C_8  and  N_9
REMARK    4  A    between atoms: N_9  and  S_10
REMARK    5  A    between atoms: S_10  and  C_13
REMARK    6  A    between atoms: C_15  and  N_33
REMARK    7  A    between atoms: C_18  and  N_19
REMARK    8  A    between atoms: N_19  and  C_20
REMARK    9  A    between atoms: C_20  and  C_21
REMARK   10  A    between atoms: C_26  and  C_27
REMARK   11  A    between atoms: C_27  and  N_28
REMARK                            x       y       z     vdW  Elec       q    Type
REMARK                         _______ _______ _______ _____ _____    ______ ____
ROOT
ATOM      1  C   UNL     1       2.792  -3.896   0.943  0.00  0.00    +0.131 A 
ATOM      2  C   UNL     1       3.147  -4.310   2.212  0.00  0.00    +0.063 A 
ATOM      3  C   UNL     1       4.442  -4.132   2.662  0.00  0.00    +0.128 A 
ATOM      4  C   UNL     1       5.386  -3.538   1.843  0.00  0.00    +0.034 A 
ATOM      5  C   UNL     1       5.037  -3.121   0.574  0.00  0.00    +0.027 A 
ATOM      6  C   UNL     1       3.738  -3.304   0.117  0.00  0.00    +0.054 A 
ENDROOT
BRANCH   1   7
ATOM      7  S   UNL     1       1.141  -4.124   0.371  0.00  0.00    +0.074 S 
ATOM      8  O   UNL     1       0.712  -2.870  -0.143  0.00  0.00    -0.150 OA
ATOM      9  O   UNL     1       0.442  -4.801   1.407  0.00  0.00    -0.150 OA
BRANCH   7  10
ATOM     10  N   UNL     1       1.208  -5.165  -0.915  0.00  0.00    -0.213 N 
ATOM     11  H   UNL     1       0.887  -4.882  -1.785  0.00  0.00    +0.174 HD
BRANCH  10  17
ATOM     12  C   UNL     1       2.374  -7.091  -1.801  0.00  0.00    +0.142 A 
ATOM     13  C   UNL     1       2.890  -8.364  -1.626  0.00  0.00    +0.047 A 
ATOM     14  C   UNL     1       2.757  -9.003  -0.407  0.00  0.00    +0.004 A 
ATOM     15  C   UNL     1       2.109  -8.374   0.640  0.00  0.00    +0.002 A 
ATOM     16  C   UNL     1       1.591  -7.103   0.473  0.00  0.00    +0.028 A 
ATOM     17  C   UNL     1       1.726  -6.454  -0.745  0.00  0.00    +0.090 A 
BRANCH  12  19
ATOM     18  C   UNL     1       3.081  -7.214  -4.069  0.00  0.00    +0.277 C 
ATOM     19  O   UNL     1       2.504  -6.461  -3.000  0.00  0.00    -0.493 OA
ENDBRANCH  12  19
ENDBRANCH  10  17
ENDBRANCH   7  10
ENDBRANCH   1   7
BRANCH   3  20
ATOM     20  N   UNL     1       4.820  -4.577   4.022  0.00  0.00    +0.056 N 
ATOM     21  O   UNL     1       3.996  -5.096   4.738  0.00  0.00    -0.126 OA
ATOM     22  O   UNL     1       5.952  -4.421   4.416  0.00  0.00    -0.126 OA
ENDBRANCH   3  20
BRANCH   6  23
ATOM     23  N   UNL     1       3.384  -2.889  -1.169  0.00  0.00    -0.338 N 
ATOM     24  H   UNL     1       2.462  -2.955  -1.462  0.00  0.00    +0.146 HD
BRANCH  23  25
ATOM     25  C   UNL     1       4.404  -2.355  -2.074  0.00  0.00    +0.137 C 
BRANCH  25  26
ATOM     26  C   UNL     1       3.749  -1.878  -3.344  0.00  0.00    -0.029 A 
ATOM     27  C   UNL     1       3.809  -2.654  -4.487  0.00  0.00    +0.005 A 
ATOM     28  C   UNL     1       3.209  -2.217  -5.652  0.00  0.00    +0.000 A 
ATOM     29  C   UNL     1       2.547  -1.003  -5.675  0.00  0.00    +0.000 A 
ATOM     30  C   UNL     1       2.486  -0.227  -4.533  0.00  0.00    +0.002 A 
ATOM     31  C   UNL     1       3.083  -0.667  -3.366  0.00  0.00    -0.059 A 
BRANCH  31  32
ATOM     32  C   UNL     1       3.012   0.176  -2.119  0.00  0.00    -0.043 C 
BRANCH  32  33
ATOM     33  N   UNL     1       4.278   0.901  -1.945  0.00  0.00    +0.382 N 
ATOM     34  C   UNL     1       4.423   1.938  -2.998  0.00  0.00    -0.078 C 
ATOM     35  C   UNL     1       5.437   2.933  -2.379  0.00  0.00    -0.020 C 
ATOM     36  C   UNL     1       5.035   2.950  -0.886  0.00  0.00    -0.020 C 
ATOM     37  C   UNL     1       4.275   1.631  -0.658  0.00  0.00    -0.078 C 
ATOM     38  H   UNL     1       5.054   0.258  -1.978  0.00  0.00    -0.081 HD
ENDBRANCH  32  33
ENDBRANCH  31  32
ENDBRANCH  25  26
ENDBRANCH  23  25
ENDBRANCH   6  23
TORSDOF 10
