REMARK  Name = ZINC44267400
REMARK  6 active torsions:
REMARK  status: ('A' for Active; 'I' for Inactive)
REMARK    1  A    between atoms: C_1  and  N_2
REMARK    2  A    between atoms: N_2  and  C_3
REMARK    3  A    between atoms: C_3  and  C_4
REMARK    4  A    between atoms: N_16  and  C_17
REMARK    5  A    between atoms: C_22  and  C_23
REMARK    6  A    between atoms: C_23  and  N_24
REMARK                            x       y       z     vdW  Elec       q    Type
REMARK                         _______ _______ _______ _____ _____    ______ ____
ROOT
ATOM      1  C   UNL     1       0.008   1.462   0.009  0.00  0.00    +0.133 C 
ATOM      2  N   UNL     1       0.019  -0.003   0.002  0.00  0.00    -0.288 N 
ATOM      3  C   UNL     1       0.004  -0.671  -1.169  0.00  0.00    +0.306 C 
ATOM      4  O   UNL     1       0.013  -1.887  -1.175  0.00  0.00    -0.252 OA
ATOM      5  N   UNL     1      -0.020   0.009  -2.332  0.00  0.00    -0.269 N 
ATOM      6  H   UNL     1      -0.110   0.974  -2.328  0.00  0.00    +0.156 HD
ENDROOT
BRANCH   5   7
ATOM      7  C   UNL     1       0.083  -0.679  -3.547  0.00  0.00    +0.040 A 
ATOM      8  C   UNL     1       0.706  -1.920  -3.593  0.00  0.00    +0.024 A 
ATOM      9  C   UNL     1       0.806  -2.596  -4.793  0.00  0.00    +0.002 A 
ATOM     10  C   UNL     1       0.287  -2.039  -5.948  0.00  0.00    +0.000 A 
ATOM     11  C   UNL     1      -0.333  -0.804  -5.905  0.00  0.00    +0.007 A 
ATOM     12  C   UNL     1      -0.441  -0.125  -4.707  0.00  0.00    -0.005 A 
BRANCH  12  13
ATOM     13  C   UNL     1      -1.123   1.218  -4.660  0.00  0.00    +0.180 C 
BRANCH  13  14
ATOM     14  N   UNL     1      -0.119   2.279  -4.775  0.00  0.00    -0.267 N 
ATOM     15  C   UNL     1      -0.117   3.275  -5.686  0.00  0.00    +0.108 A 
ATOM     16  C   UNL     1       0.974   4.042  -5.456  0.00  0.00    +0.041 A 
ATOM     17  C   UNL     1       1.663   3.495  -4.369  0.00  0.00    +0.134 A 
ATOM     18  N   UNL     1       1.005   2.442  -3.955  0.00  0.00    -0.179 NA
ENDBRANCH  13  14
ENDBRANCH  12  13
ENDBRANCH   5   7
BRANCH   2  19
ATOM     19  C   UNL     1       0.046  -0.742   1.267  0.00  0.00    +0.116 C 
BRANCH  19  20
ATOM     20  C   UNL     1      -1.387  -1.010   1.731  0.00  0.00    -0.013 C 
ATOM     21  C   UNL     1      -2.115   0.321   1.933  0.00  0.00    +0.012 C 
ATOM     22  C   UNL     1      -3.548   0.052   2.397  0.00  0.00    -0.010 C 
ATOM     23  C   UNL     1      -3.520  -0.719   3.718  0.00  0.00    +0.007 C 
ATOM     24  C   UNL     1      -2.792  -2.050   3.516  0.00  0.00    -0.010 C 
ATOM     25  C   UNL     1      -1.359  -1.782   3.052  0.00  0.00    +0.012 C 
ATOM     26  C   UNL     1      -3.525  -2.877   2.458  0.00  0.00    +0.007 C 
ATOM     27  C   UNL     1      -3.553  -2.105   1.137  0.00  0.00    -0.010 C 
ATOM     28  C   UNL     1      -4.281  -0.774   1.339  0.00  0.00    +0.007 C 
ATOM     29  C   UNL     1      -2.120  -1.837   0.673  0.00  0.00    +0.012 C 
ENDBRANCH  19  20
ENDBRANCH   2  19
TORSDOF 5
