REMARK  Name = ZINC08439390
REMARK  7 active torsions:
REMARK  status: ('A' for Active; 'I' for Inactive)
REMARK    1  A    between atoms: C_1  and  C_2
REMARK    2  A    between atoms: C_3  and  C_25
REMARK    3  A    between atoms: C_4  and  C_16
REMARK    4  A    between atoms: C_20  and  N_22
REMARK    5  A    between atoms: C_25  and  O_27
REMARK    6  A    between atoms: O_27  and  C_28
REMARK    7  A    between atoms: C_28  and  C_29
REMARK                            x       y       z     vdW  Elec       q    Type
REMARK                         _______ _______ _______ _____ _____    ______ ____
ROOT
ATOM      1  C   UNL     1       5.055   2.585   2.439  0.00  0.00    +0.061 C 
ATOM      2  C   UNL     1       4.312   2.253   1.171  0.00  0.00    +0.017 C 
ATOM      3  C   UNL     1       3.271   1.406   1.215  0.00  0.00    +0.065 C 
ATOM      4  C   UNL     1       2.490   1.047  -0.016  0.00  0.00    +0.096 C 
ATOM      5  C   UNL     1       3.248   1.419  -1.259  0.00  0.00    +0.069 A 
ATOM      6  C   UNL     1       4.302   2.278  -1.209  0.00  0.00    +0.112 A 
ATOM      7  N   UNL     1       4.963   2.596  -2.366  0.00  0.00    -0.316 N 
ATOM      8  H   UNL     1       5.814   3.291  -2.340  0.00  0.00    +0.170 HD
ATOM      9  C   UNL     1       4.567   2.053  -3.550  0.00  0.00    +0.195 A 
ATOM     10  N   UNL     1       3.551   1.218  -3.611  0.00  0.00    -0.177 NA
ATOM     11  C   UNL     1       2.871   0.876  -2.506  0.00  0.00    +0.280 A 
ATOM     12  O   UNL     1       1.930   0.099  -2.578  0.00  0.00    -0.265 OA
ATOM     13  N   UNL     1       5.238   2.380  -4.698  0.00  0.00    -0.329 N 
ATOM     14  N   UNL     1       4.706   2.821  -0.009  0.00  0.00    -0.304 N 
ATOM     15  H   UNL     1       4.926   1.947  -5.660  0.00  0.00    +0.145 HD
ATOM     16  H   UNL     1       6.088   3.076  -4.659  0.00  0.00    +0.145 HD
ATOM     17  H   UNL     1       5.348   3.714  -0.003  0.00  0.00    +0.153 HD
ENDROOT
BRANCH   4  18
ATOM     18  C   UNL     1       1.175   1.783   0.000  0.00  0.00    -0.033 A 
ATOM     19  C   UNL     1       1.156   3.166   0.008  0.00  0.00    +0.005 A 
ATOM     20  C   UNL     1      -0.050   3.840   0.023  0.00  0.00    +0.003 A 
ATOM     21  C   UNL     1      -1.238   3.133   0.030  0.00  0.00    +0.033 A 
ATOM     22  C   UNL     1      -1.219   1.751   0.017  0.00  0.00    +0.126 A 
ATOM     23  C   UNL     1      -0.013   1.076   0.008  0.00  0.00    +0.037 A 
BRANCH  22  24
ATOM     24  N   UNL     1      -2.491   0.993   0.019  0.00  0.00    +0.056 N 
ATOM     25  O   UNL     1      -2.474  -0.225   0.013  0.00  0.00    -0.126 OA
ATOM     26  O   UNL     1      -3.554   1.588   0.028  0.00  0.00    -0.126 OA
ENDBRANCH  22  24
ENDBRANCH   4  18
BRANCH   3  27
ATOM     27  C   UNL     1       2.902   0.835   2.454  0.00  0.00    +0.338 C 
ATOM     28  O   UNL     1       3.525   1.115   3.462  0.00  0.00    -0.245 OA
BRANCH  27  29
ATOM     29  O   UNL     1       1.860  -0.019   2.520  0.00  0.00    -0.459 OA
BRANCH  29  30
ATOM     30  C   UNL     1       1.543  -0.558   3.805  0.00  0.00    +0.264 C 
BRANCH  30  31
ATOM     31  C   UNL     1       0.342  -1.498   3.682  0.00  0.00    +0.156 C 
ATOM     32  C   UNL     1      -0.080  -1.996   5.082  0.00  0.00    +0.037 C 
ATOM     33  C   UNL     1      -0.442  -3.481   4.808  0.00  0.00    +0.031 C 
ATOM     34  C   UNL     1       0.584  -3.836   3.703  0.00  0.00    +0.160 C 
ATOM     35  O   UNL     1       0.702  -2.647   2.905  0.00  0.00    -0.373 OA
ENDBRANCH  30  31
ENDBRANCH  29  30
ENDBRANCH  27  29
ENDBRANCH   3  27
TORSDOF 6
