REMARK  Name = ZINC00996211
REMARK  7 active torsions:
REMARK  status: ('A' for Active; 'I' for Inactive)
REMARK    1  A    between atoms: C_1  and  C_2
REMARK    2  A    between atoms: C_2  and  C_3
REMARK    3  A    between atoms: C_10  and  N_15
REMARK    4  A    between atoms: C_11  and  C_12
REMARK    5  A    between atoms: C_16  and  C_18
REMARK    6  A    between atoms: C_21  and  N_25
REMARK    7  A    between atoms: C_22  and  C_24
REMARK                            x       y       z     vdW  Elec       q    Type
REMARK                         _______ _______ _______ _____ _____    ______ ____
ROOT
ATOM      1  C   UNL     1      -1.170   3.288  -1.116  0.00  0.00    -0.006 C 
ATOM      2  C   UNL     1      -0.339   2.588  -0.037  0.00  0.00    +0.008 C 
ATOM      3  C   UNL     1      -1.010   2.758   1.327  0.00  0.00    +0.037 C 
ATOM      4  C   UNL     1      -2.462   2.315   1.219  0.00  0.00    -0.023 A 
ATOM      5  C   UNL     1      -3.071   2.215   0.018  0.00  0.00    -0.004 A 
ATOM      6  S   UNL     1      -4.716   1.675   0.388  0.00  0.00    -0.077 S 
ATOM      7  C   UNL     1      -4.599   1.584   2.114  0.00  0.00    +0.085 A 
ATOM      8  C   UNL     1      -3.290   1.973   2.363  0.00  0.00    +0.068 A 
ATOM      9  C   UNL     1      -2.472   2.501  -1.325  0.00  0.00    +0.046 C 
ENDROOT
BRANCH   8  10
ATOM     10  C   UNL     1      -2.763   2.036   3.730  0.00  0.00    +0.244 C 
ATOM     11  O   UNL     1      -2.856   3.067   4.371  0.00  0.00    -0.270 OA
ATOM     12  N   UNL     1      -2.175   0.953   4.276  0.00  0.00    -0.325 N 
ATOM     13  H   UNL     1      -2.100   0.132   3.764  0.00  0.00    +0.145 HD
ATOM     14  H   UNL     1      -1.826   0.995   5.180  0.00  0.00    +0.145 HD
ENDBRANCH   8  10
BRANCH   7  15
ATOM     15  N   UNL     1      -5.575   1.213   3.025  0.00  0.00    -0.275 N 
ATOM     16  C   UNL     1      -6.802   0.863   2.592  0.00  0.00    +0.249 C 
ATOM     17  O   UNL     1      -7.053   0.873   1.402  0.00  0.00    -0.270 OA
ATOM     18  H   UNL     1      -5.375   1.206   3.974  0.00  0.00    +0.156 HD
BRANCH  16  19
ATOM     19  C   UNL     1      -7.844   0.468   3.563  0.00  0.00    +0.037 A 
ATOM     20  C   UNL     1      -7.557   0.450   4.930  0.00  0.00    +0.015 A 
ATOM     21  C   UNL     1      -8.535   0.083   5.831  0.00  0.00    +0.034 A 
ATOM     22  C   UNL     1      -9.794  -0.275   5.383  0.00  0.00    +0.129 A 
ATOM     23  C   UNL     1     -10.083  -0.264   4.030  0.00  0.00    -0.020 A 
ATOM     24  C   UNL     1      -9.116   0.104   3.118  0.00  0.00    +0.018 A 
ATOM     25  C   UNL     1     -11.457  -0.657   3.552  0.00  0.00    +0.046 C 
BRANCH  22  26
ATOM     26  N   UNL     1     -10.836  -0.672   6.356  0.00  0.00    +0.057 N 
ATOM     27  O   UNL     1     -10.624  -0.572   7.551  0.00  0.00    -0.126 OA
ATOM     28  O   UNL     1     -11.906  -1.100   5.961  0.00  0.00    -0.126 OA
ENDBRANCH  22  26
ENDBRANCH  16  19
ENDBRANCH   7  15
BRANCH   1  30
ATOM     29  C   UNL     1      -1.159   4.136  -3.466  0.00  0.00    +0.004 C 
ATOM     30  C   UNL     1      -0.380   3.329  -2.426  0.00  0.00    +0.000 C 
ENDBRANCH   1  30
TORSDOF 5
