REMARK  Name = ZINC65302811
REMARK  7 active torsions:
REMARK  status: ('A' for Active; 'I' for Inactive)
REMARK    1  A    between atoms: C_1  and  C_2
REMARK    2  A    between atoms: C_3  and  C_9
REMARK    3  A    between atoms: C_4  and  C_8
REMARK    4  A    between atoms: N_5  and  C_7
REMARK    5  A    between atoms: C_9  and  C_10
REMARK    6  A    between atoms: C_9  and  N_11
REMARK    7  A    between atoms: N_14  and  C_15
REMARK                            x       y       z     vdW  Elec       q    Type
REMARK                         _______ _______ _______ _____ _____    ______ ____
ROOT
ATOM      1  N   UNL     1      -0.633   0.832  -2.741  0.00  0.00    -0.292 N 
ATOM      2  C   UNL     1      -1.183   1.090  -3.944  0.00  0.00    +0.304 C 
ATOM      3  O   UNL     1      -1.002   0.326  -4.872  0.00  0.00    -0.252 OA
ATOM      4  N   UNL     1      -1.935   2.195  -4.118  0.00  0.00    -0.268 N 
ATOM      5  H   UNL     1      -0.778   1.441  -2.000  0.00  0.00    +0.151 HD
ATOM      6  H   UNL     1      -2.137   2.768  -3.361  0.00  0.00    +0.156 HD
ENDROOT
BRANCH   4   7
ATOM      7  C   UNL     1      -2.423   2.517  -5.390  0.00  0.00    +0.053 A 
ATOM      8  C   UNL     1      -2.781   1.508  -6.273  0.00  0.00    +0.026 A 
ATOM      9  C   UNL     1      -3.263   1.827  -7.528  0.00  0.00    +0.022 A 
ATOM     10  C   UNL     1      -3.388   3.153  -7.906  0.00  0.00    +0.042 A 
ATOM     11  C   UNL     1      -3.030   4.162  -7.029  0.00  0.00    +0.041 A 
ATOM     12  C   UNL     1      -2.554   3.847  -5.769  0.00  0.00    +0.064 A 
ATOM     13 CL   UNL     1      -2.114   5.113  -4.666  0.00  0.00    -0.082 Cl
ATOM     14 CL   UNL     1      -3.993   3.551  -9.483  0.00  0.00    -0.083 Cl
ENDBRANCH   4   7
BRANCH   1  15
ATOM     15  C   UNL     1       0.184  -0.370  -2.552  0.00  0.00    +0.105 C 
ATOM     16  C   UNL     1       1.642  -0.053  -2.889  0.00  0.00    +0.033 C 
BRANCH  15  19
ATOM     17  C   UNL     1      -0.309  -3.341  -1.566  0.00  0.00    +0.068 C 
ATOM     18  C   UNL     1      -0.130  -2.134  -0.681  0.00  0.00    +0.065 A 
ATOM     19  C   UNL     1       0.087  -0.823  -1.118  0.00  0.00    +0.016 A 
ATOM     20  C   UNL     1       0.195  -0.033  -0.024  0.00  0.00    +0.041 A 
ATOM     21  N   UNL     1       0.052  -0.816   1.065  0.00  0.00    -0.271 N 
ATOM     22  N   UNL     1      -0.157  -2.130   0.627  0.00  0.00    -0.176 NA
ATOM     23  C   UNL     1       0.100  -0.370   2.460  0.00  0.00    +0.172 C 
ATOM     24  C   UNL     1       0.433   1.455  -0.023  0.00  0.00    +0.065 C 
ENDBRANCH  15  19
ENDBRANCH   1  15
TORSDOF 3
