REMARK  Name = ZINC57005993
REMARK  6 active torsions:
REMARK  status: ('A' for Active; 'I' for Inactive)
REMARK    1  A    between atoms: C_8  and  O_31
REMARK    2  A    between atoms: C_10  and  N_12
REMARK    3  A    between atoms: N_15  and  C_16
REMARK    4  A    between atoms: C_16  and  C_17
REMARK    5  A    between atoms: C_20  and  C_23
REMARK    6  A    between atoms: C_23  and  N_24
REMARK                            x       y       z     vdW  Elec       q    Type
REMARK                         _______ _______ _______ _____ _____    ______ ____
ROOT
ATOM      1  N   UNL     1       4.147  -1.058   1.302  0.00  0.00    -0.290 N 
ATOM      2  C   UNL     1       5.090  -0.183   1.704  0.00  0.00    +0.300 C 
ATOM      3  O   UNL     1       5.457   0.702   0.956  0.00  0.00    -0.253 OA
ATOM      4  N   UNL     1       5.626  -0.289   2.936  0.00  0.00    -0.295 N 
ATOM      5  H   UNL     1       3.854  -1.764   1.899  0.00  0.00    +0.151 HD
ATOM      6  H   UNL     1       5.333  -0.996   3.533  0.00  0.00    +0.151 HD
ENDROOT
BRANCH   1  15
ATOM      7  C   UNL     1      -0.017   1.377   0.010  0.00  0.00    +0.000 A 
ATOM      8  C   UNL     1       1.172   2.083   0.002  0.00  0.00    +0.000 A 
ATOM      9  C   UNL     1       2.376   1.406  -0.013  0.00  0.00    +0.006 A 
ATOM     10  C   UNL     1       2.396   0.021  -0.021  0.00  0.00    -0.021 A 
ATOM     11  C   UNL     1       1.208  -0.685  -0.013  0.00  0.00    -0.040 A 
ATOM     12  C   UNL     1       0.002  -0.004   0.002  0.00  0.00    +0.004 A 
ATOM     13  C   UNL     1       1.496  -2.171  -0.025  0.00  0.00    +0.069 C 
ATOM     14  C   UNL     1       2.966  -2.294  -0.480  0.00  0.00    +0.143 C 
ATOM     15  C   UNL     1       3.564  -0.942  -0.037  0.00  0.00    +0.134 C 
BRANCH  14  16
ATOM     16  O   UNL     1       3.613  -3.382   0.184  0.00  0.00    -0.389 OA
ATOM     17  H   UNL     1       3.217  -4.245   0.002  0.00  0.00    +0.210 HD
ENDBRANCH  14  16
ENDBRANCH   1  15
BRANCH   4  18
ATOM     18  C   UNL     1       6.651   0.662   3.373  0.00  0.00    +0.141 C 
BRANCH  18  19
ATOM     19  C   UNL     1       7.081   0.326   4.778  0.00  0.00    -0.030 A 
ATOM     20  C   UNL     1       6.422   0.887   5.856  0.00  0.00    +0.005 A 
ATOM     21  C   UNL     1       6.816   0.579   7.144  0.00  0.00    +0.006 A 
ATOM     22  C   UNL     1       7.870  -0.291   7.355  0.00  0.00    -0.028 A 
ATOM     23  C   UNL     1       8.528  -0.853   6.278  0.00  0.00    +0.006 A 
ATOM     24  C   UNL     1       8.131  -0.548   4.989  0.00  0.00    +0.005 A 
BRANCH  22  25
ATOM     25  C   UNL     1       8.301  -0.626   8.760  0.00  0.00    +0.160 C 
BRANCH  25  26
ATOM     26  N   UNL     1       7.559  -1.798   9.232  0.00  0.00    -0.311 N 
ATOM     27  C   UNL     1       6.373  -1.629   9.870  0.00  0.00    +0.089 A 
ATOM     28  C   UNL     1       5.670  -2.696  10.316  0.00  0.00    +0.018 A 
ATOM     29  C   UNL     1       6.165  -3.993  10.118  0.00  0.00    +0.007 A 
ATOM     30  C   UNL     1       7.357  -4.160   9.476  0.00  0.00    +0.070 A 
ATOM     31  C   UNL     1       8.059  -3.031   9.022  0.00  0.00    +0.252 A 
ATOM     32  O   UNL     1       9.124  -3.167   8.442  0.00  0.00    -0.268 OA
ENDBRANCH  25  26
ENDBRANCH  22  25
ENDBRANCH  18  19
ENDBRANCH   4  18
TORSDOF 6
