REMARK  Name = ZINC00997488
REMARK  7 active torsions:
REMARK  status: ('A' for Active; 'I' for Inactive)
REMARK    1  A    between atoms: C_1  and  C_2
REMARK    2  A    between atoms: C_2  and  O_3
REMARK    3  A    between atoms: O_3  and  C_4
REMARK    4  A    between atoms: C_7  and  C_10
REMARK    5  A    between atoms: C_15  and  C_19
REMARK    6  A    between atoms: C_15  and  C_20
REMARK    7  A    between atoms: C_29  and  C_31
REMARK                            x       y       z     vdW  Elec       q    Type
REMARK                         _______ _______ _______ _____ _____    ______ ____
ROOT
ATOM      1  C   UNL     1       1.778   4.104   1.288  0.00  0.00    +0.146 C 
ATOM      2  C   UNL     1       3.254   3.840   1.465  0.00  0.00    +0.037 C 
ATOM      3  C   UNL     1       3.982   2.941   0.779  0.00  0.00    +0.017 C 
ATOM      4  C   UNL     1       5.468   2.785   1.050  0.00  0.00    +0.058 C 
ATOM      5  C   UNL     1       5.762   3.068   2.522  0.00  0.00    -0.023 C 
ATOM      6  C   UNL     1       5.314   4.503   2.821  0.00  0.00    +0.086 C 
ATOM      7  C   UNL     1       3.864   4.635   2.463  0.00  0.00    +0.163 C 
ATOM      8  O   UNL     1       3.188   5.456   3.052  0.00  0.00    -0.292 OA
ATOM      9  C   UNL     1       4.985   2.088   3.403  0.00  0.00    +0.011 C 
ATOM     10  C   UNL     1       7.262   2.927   2.788  0.00  0.00    +0.011 C 
ATOM     11  N   UNL     1       3.490   2.130  -0.192  0.00  0.00    -0.316 N 
ATOM     12  C   UNL     1       2.315   1.396  -0.095  0.00  0.00    +0.053 A 
ATOM     13  C   UNL     1       2.303   0.011  -0.110  0.00  0.00    +0.025 A 
ATOM     14  C   UNL     1       1.091  -0.657  -0.073  0.00  0.00    +0.002 A 
ATOM     15  C   UNL     1      -0.096   0.051  -0.033  0.00  0.00    +0.002 A 
ATOM     16  C   UNL     1      -0.085   1.435  -0.008  0.00  0.00    +0.025 A 
ATOM     17  C   UNL     1       1.127   2.106  -0.018  0.00  0.00    +0.058 A 
ATOM     18  N   UNL     1       1.193   3.494   0.114  0.00  0.00    -0.258 N 
ATOM     19  C   UNL     1       0.705   4.277  -0.868  0.00  0.00    +0.218 C 
ATOM     20  O   UNL     1       0.758   5.484  -0.764  0.00  0.00    -0.276 OA
ATOM     21  C   UNL     1       0.092   3.653  -2.096  0.00  0.00    +0.110 C 
ATOM     22  H   UNL     1       3.997   2.058  -1.015  0.00  0.00    +0.152 HD
ENDROOT
BRANCH   1  26
ATOM     23  C   UNL     1      -0.279   2.649   4.739  0.00  0.00    +0.121 A 
ATOM     24  C   UNL     1       0.406   1.768   3.916  0.00  0.00    +0.046 A 
ATOM     25  C   UNL     1       1.071   2.241   2.801  0.00  0.00    +0.009 A 
ATOM     26  C   UNL     1       1.053   3.591   2.505  0.00  0.00    -0.022 A 
ATOM     27  C   UNL     1       0.375   4.472   3.327  0.00  0.00    +0.009 A 
ATOM     28  C   UNL     1      -0.296   4.004   4.440  0.00  0.00    +0.046 A 
BRANCH  23  29
ATOM     29  O   UNL     1      -0.934   2.186   5.836  0.00  0.00    -0.492 OA
BRANCH  29  31
ATOM     30  C   UNL     1      -2.291   2.447   7.819  0.00  0.00    +0.048 C 
ATOM     31  C   UNL     1      -1.619   3.151   6.638  0.00  0.00    +0.225 C 
ENDBRANCH  29  31
ENDBRANCH  23  29
ENDBRANCH   1  26
TORSDOF 3
