REMARK  Name = ZINC55312297
REMARK  6 active torsions:
REMARK  status: ('A' for Active; 'I' for Inactive)
REMARK    1  A    between atoms: C_1  and  C_2
REMARK    2  A    between atoms: C_3  and  S_10
REMARK    3  A    between atoms: C_5  and  C_7
REMARK    4  A    between atoms: S_10  and  N_13
REMARK    5  A    between atoms: N_13  and  C_14
REMARK    6  A    between atoms: C_14  and  C_15
REMARK                            x       y       z     vdW  Elec       q    Type
REMARK                         _______ _______ _______ _____ _____    ______ ____
ROOT
ATOM      1  S   UNL     1      -2.736  -0.495  -0.090  0.00  0.00    +0.062 S 
ATOM      2  O   UNL     1      -2.964   0.266  -1.269  0.00  0.00    -0.153 OA
ATOM      3  O   UNL     1      -3.352  -1.756   0.133  0.00  0.00    -0.153 OA
ENDROOT
BRANCH   1   6
ATOM      4  C   UNL     1      -0.986  -2.088   2.178  0.00  0.00    +0.088 C 
ATOM      5  C   UNL     1      -0.342  -1.433   0.983  0.00  0.00    +0.129 A 
ATOM      6  C   UNL     1      -0.997  -0.760   0.010  0.00  0.00    +0.146 A 
ATOM      7  C   UNL     1      -0.033  -0.313  -0.905  0.00  0.00    +0.085 A 
ATOM      8  C   UNL     1       1.187  -0.745  -0.433  0.00  0.00    +0.218 A 
ATOM      9  O   UNL     1       0.969  -1.417   0.718  0.00  0.00    -0.451 OA
BRANCH   8  10
ATOM     10  C   UNL     1       2.485  -0.513  -1.061  0.00  0.00    +0.421 C 
ATOM     11  O   UNL     1       2.554   0.120  -2.108  0.00  0.00    -0.237 OA
ATOM     12  O   UNL     1       3.505  -0.950  -0.542  0.00  0.00    -0.237 OA
ENDBRANCH   8  10
ENDBRANCH   1   6
BRANCH   1  13
ATOM     13  N   UNL     1      -3.159   0.471   1.186  0.00  0.00    -0.185 NA
ATOM     14  H   UNL     1      -3.757   0.135   1.871  0.00  0.00    +0.148 HD
BRANCH  13  15
ATOM     15  C   UNL     1      -2.628   1.833   1.281  0.00  0.00    +0.142 C 
BRANCH  15  16
ATOM     16  C   UNL     1      -3.440   2.621   2.276  0.00  0.00    -0.018 A 
ATOM     17  C   UNL     1      -4.423   3.487   1.835  0.00  0.00    +0.006 A 
ATOM     18  C   UNL     1      -5.169   4.209   2.748  0.00  0.00    +0.000 A 
ATOM     19  C   UNL     1      -4.932   4.065   4.103  0.00  0.00    +0.001 A 
ATOM     20  C   UNL     1      -3.950   3.200   4.545  0.00  0.00    +0.015 A 
ATOM     21  C   UNL     1      -3.207   2.473   3.631  0.00  0.00    +0.022 A 
ATOM     22 BR   UNL     1      -1.867   1.282   4.236  0.00  0.00    -0.050 Br
ENDBRANCH  15  16
ENDBRANCH  13  15
ENDBRANCH   1  13
TORSDOF 5
