REMARK  Name = ZINC09318924
REMARK  4 active torsions:
REMARK  status: ('A' for Active; 'I' for Inactive)
REMARK    1  A    between atoms: C_10  and  C_16
REMARK    2  A    between atoms: C_19  and  O_22
REMARK    3  A    between atoms: O_22  and  C_23
REMARK    4  A    between atoms: C_23  and  C_24
REMARK                            x       y       z     vdW  Elec       q    Type
REMARK                         _______ _______ _______ _____ _____    ______ ____
ROOT
ATOM      1  C   UNL     1       3.177   5.613   3.049  0.00  0.00    +0.002 A 
ATOM      2  C   UNL     1       3.919   4.630   2.419  0.00  0.00    +0.002 A 
ATOM      3  C   UNL     1       3.328   3.646   1.642  0.00  0.00    +0.028 A 
ATOM      4  C   UNL     1       1.944   3.682   1.517  0.00  0.00    +0.072 A 
ATOM      5  C   UNL     1       1.179   4.688   2.163  0.00  0.00    +0.091 A 
ATOM      6  C   UNL     1       1.799   5.671   2.942  0.00  0.00    +0.030 A 
ATOM      7  N   UNL     1      -0.117   4.466   1.866  0.00  0.00    -0.210 NA
ATOM      8  C   UNL     1      -0.213   3.407   1.097  0.00  0.00    +0.236 A 
ATOM      9  N   UNL     1       1.051   2.898   0.851  0.00  0.00    -0.285 N 
ATOM     10  C   UNL     1       1.255   1.720  -0.001  0.00  0.00    +0.209 C 
ATOM     11  N   UNL     1      -0.011   0.966   0.007  0.00  0.00    -0.293 N 
ATOM     12  C   UNL     1      -1.206   1.634   0.017  0.00  0.00    +0.183 C 
ATOM     13  N   UNL     1      -1.323   2.823   0.589  0.00  0.00    -0.183 NA
ATOM     14  N   UNL     1      -2.299   1.060  -0.573  0.00  0.00    -0.331 N 
ATOM     15  H   UNL     1       0.002  -0.004   0.002  0.00  0.00    +0.151 HD
ATOM     16  H   UNL     1      -2.223   0.188  -0.991  0.00  0.00    +0.145 HD
ATOM     17  H   UNL     1      -3.151   1.525  -0.572  0.00  0.00    +0.145 HD
ENDROOT
BRANCH  10  18
ATOM     18  C   UNL     1       1.589   2.151  -1.405  0.00  0.00    -0.007 A 
ATOM     19  C   UNL     1       0.586   2.595  -2.248  0.00  0.00    +0.011 A 
ATOM     20  C   UNL     1       0.890   2.996  -3.534  0.00  0.00    +0.046 A 
ATOM     21  C   UNL     1       2.201   2.943  -3.984  0.00  0.00    +0.121 A 
ATOM     22  C   UNL     1       3.205   2.493  -3.139  0.00  0.00    +0.046 A 
ATOM     23  C   UNL     1       2.896   2.098  -1.851  0.00  0.00    +0.011 A 
BRANCH  21  24
ATOM     24  O   UNL     1       2.503   3.333  -5.251  0.00  0.00    -0.483 OA
BRANCH  24  25
ATOM     25  C   UNL     1       1.419   3.785  -6.066  0.00  0.00    +0.324 C 
BRANCH  25  26
ATOM     26  C   UNL     1       1.940   4.172  -7.426  0.00  0.00    +0.248 C 
ATOM     27  O   UNL     1       3.123   4.071  -7.673  0.00  0.00    -0.272 OA
ATOM     28  N   UNL     1       1.092   4.631  -8.367  0.00  0.00    -0.327 N 
ATOM     29  H   UNL     1       0.146   4.713  -8.169  0.00  0.00    +0.145 HD
ATOM     30  H   UNL     1       1.428   4.880  -9.242  0.00  0.00    +0.145 HD
ENDBRANCH  25  26
ENDBRANCH  24  25
ENDBRANCH  21  24
ENDBRANCH  10  18
TORSDOF 4
