REMARK  Name = ZINC41892813
REMARK  6 active torsions:
REMARK  status: ('A' for Active; 'I' for Inactive)
REMARK    1  A    between atoms: C_1  and  C_2
REMARK    2  A    between atoms: C_2  and  C_3
REMARK    3  A    between atoms: C_2  and  C_13
REMARK    4  A    between atoms: C_2  and  N_16
REMARK    5  A    between atoms: C_7  and  O_9
REMARK    6  A    between atoms: O_9  and  C_10
REMARK                            x       y       z     vdW  Elec       q    Type
REMARK                         _______ _______ _______ _____ _____    ______ ____
ROOT
ATOM      1  C   UNL     1       0.192   1.509  -0.124  0.00  0.00    +0.052 C 
ATOM      2  C   UNL     1       0.002  -0.004   0.002  0.00  0.00    +0.170 C 
ENDROOT
BRANCH   2   3
ATOM      3  C   UNL     1       0.753  -0.506   1.208  0.00  0.00    -0.008 A 
ATOM      4  C   UNL     1       1.367   0.392   2.062  0.00  0.00    +0.007 A 
ATOM      5  C   UNL     1       2.057  -0.065   3.170  0.00  0.00    +0.004 A 
ATOM      6  C   UNL     1       2.136  -1.421   3.425  0.00  0.00    +0.046 A 
ATOM      7  C   UNL     1       1.521  -2.323   2.570  0.00  0.00    +0.127 A 
ATOM      8  C   UNL     1       0.824  -1.861   1.463  0.00  0.00    +0.052 A 
BRANCH   7   9
ATOM      9  O   UNL     1       1.596  -3.657   2.819  0.00  0.00    -0.434 OA
BRANCH   9  10
ATOM     10  C   UNL     1       2.325  -4.060   3.981  0.00  0.00    +0.541 C 
ATOM     11  F   UNL     1       3.650  -3.621   3.875  0.00  0.00    -0.166 F 
ATOM     12  F   UNL     1       1.738  -3.497   5.119  0.00  0.00    -0.166 F 
ENDBRANCH   9  10
ENDBRANCH   7   9
ENDBRANCH   2   3
BRANCH   2  13
ATOM     13  N   UNL     1       0.515  -0.663  -1.202  0.00  0.00    -0.318 N 
ATOM     14  C   UNL     1      -0.222  -1.343  -2.132  0.00  0.00    +0.106 A 
ATOM     15  C   UNL     1       0.641  -1.784  -3.067  0.00  0.00    +0.101 A 
ATOM     16  N   UNL     1       1.872  -1.383  -2.718  0.00  0.00    -0.352 N 
ATOM     17  C   UNL     1       1.804  -0.706  -1.604  0.00  0.00    +0.175 A 
ATOM     18  H   UNL     1       2.684  -1.564  -3.216  0.00  0.00    +0.166 HD
ENDBRANCH   2  13
BRANCH   2  19
ATOM     19  C   UNL     1      -1.464  -0.315   0.158  0.00  0.00    +0.386 C 
ATOM     20  O   UNL     1      -2.282   0.589   0.168  0.00  0.00    -0.243 OA
ATOM     21  O   UNL     1      -1.833  -1.471   0.275  0.00  0.00    -0.243 OA
ENDBRANCH   2  19
TORSDOF 5
