REMARK  Name = ZINC05175719
REMARK  4 active torsions:
REMARK  status: ('A' for Active; 'I' for Inactive)
REMARK    1  A    between atoms: C_5  and  C_7
REMARK    2  A    between atoms: N_8  and  N_9
REMARK    3  A    between atoms: C_10  and  C_12
REMARK    4  A    between atoms: C_17  and  O_18
REMARK                            x       y       z     vdW  Elec       q    Type
REMARK                         _______ _______ _______ _____ _____    ______ ____
ROOT
ATOM      1  N   UNL     1      -3.707  -0.187   0.018  0.00  0.00    -0.203 N 
ATOM      2  C   UNL     1      -3.695  -1.535   0.011  0.00  0.00    +0.267 C 
ATOM      3  O   UNL     1      -2.636  -2.134   0.003  0.00  0.00    -0.268 OA
ATOM      4  H   UNL     1      -4.552   0.290   0.025  0.00  0.00    +0.178 HD
ENDROOT
BRANCH   2   5
ATOM      5  C   UNL     1      -4.965  -2.284   0.013  0.00  0.00    +0.081 A 
ATOM      6  C   UNL     1      -6.184  -1.601   0.022  0.00  0.00    +0.032 A 
ATOM      7  C   UNL     1      -7.368  -2.307   0.024  0.00  0.00    +0.019 A 
ATOM      8  C   UNL     1      -7.355  -3.693   0.016  0.00  0.00    +0.019 A 
ATOM      9  C   UNL     1      -6.158  -4.380   0.007  0.00  0.00    +0.047 A 
ATOM     10  C   UNL     1      -4.957  -3.686  -0.001  0.00  0.00    +0.129 A 
ATOM     11 BR   UNL     1      -9.017  -1.381   0.036  0.00  0.00    -0.050 Br
BRANCH  10  12
ATOM     12  O   UNL     1      -3.780  -4.360  -0.016  0.00  0.00    -0.506 OA
ATOM     13  H   UNL     1      -3.432  -4.564   0.864  0.00  0.00    +0.292 HD
ENDBRANCH  10  12
ENDBRANCH   2   5
BRANCH   1  15
ATOM     14  C   UNL     1      -2.512   1.822   0.024  0.00  0.00    +0.139 C 
ATOM     15  N   UNL     1      -2.501   0.524   0.017  0.00  0.00    -0.187 NA
BRANCH  14  20
ATOM     16  C   UNL     1      -0.059   4.662   0.027  0.00  0.00    +0.001 A 
ATOM     17  C   UNL     1       1.144   3.978   0.012  0.00  0.00    +0.001 A 
ATOM     18  C   UNL     1       1.161   2.595   0.005  0.00  0.00    +0.016 A 
ATOM     19  C   UNL     1      -0.024   1.887   0.012  0.00  0.00    +0.027 A 
ATOM     20  C   UNL     1      -1.242   2.571   0.022  0.00  0.00    +0.008 A 
ATOM     21  C   UNL     1      -1.251   3.968   0.034  0.00  0.00    +0.010 A 
ATOM     22 BR   UNL     1       0.002  -0.004   0.002  0.00  0.00    -0.050 Br
ENDBRANCH  14  20
ENDBRANCH   1  15
TORSDOF 4
