REMARK  Name = ZINC64311232
REMARK  11 active torsions:
REMARK  status: ('A' for Active; 'I' for Inactive)
REMARK    1  A    between atoms: C_1  and  C_2
REMARK    2  A    between atoms: C_4  and  C_26
REMARK    3  A    between atoms: N_6  and  C_8
REMARK    4  A    between atoms: C_8  and  C_9
REMARK    5  A    between atoms: C_8  and  C_10
REMARK    6  A    between atoms: C_8  and  C_11
REMARK    7  A    between atoms: C_11  and  N_12
REMARK    8  A    between atoms: C_13  and  C_15
REMARK    9  A    between atoms: C_15  and  N_16
REMARK   10  A    between atoms: N_19  and  C_20
REMARK   11  A    between atoms: C_20  and  C_21
REMARK                            x       y       z     vdW  Elec       q    Type
REMARK                         _______ _______ _______ _____ _____    ______ ____
ROOT
ATOM      1  N   UNL     1       3.477  -2.389   0.896  0.00  0.00    -0.315 N 
ATOM      2  C   UNL     1       4.769  -2.196   0.567  0.00  0.00    +0.230 C 
ATOM      3  O   UNL     1       5.536  -1.722   1.378  0.00  0.00    -0.274 OA
ATOM      4  H   UNL     1       2.863  -2.769   0.247  0.00  0.00    +0.149 HD
ENDROOT
BRANCH   1   5
ATOM      5  C   UNL     1       2.998  -2.028   2.232  0.00  0.00    +0.092 C 
BRANCH   5   6
ATOM      6  C   UNL     1       1.483  -2.226   2.303  0.00  0.00    -0.055 C 
ATOM      7  C   UNL     1       0.972  -1.768   3.670  0.00  0.00    -0.008 C 
ATOM      8  C   UNL     1       1.153  -3.707   2.106  0.00  0.00    -0.008 C 
BRANCH   6  14
ATOM      9  C   UNL     1       0.933   2.275   0.459  0.00  0.00    +0.005 C 
ATOM     10  C   UNL     1       0.575   0.799   0.276  0.00  0.00    -0.031 C 
ATOM     11  C   UNL     1      -0.948   0.636   0.290  0.00  0.00    +0.003 C 
ATOM     12  C   UNL     1      -1.294  -0.852   0.185  0.00  0.00    -0.031 C 
ATOM     13  C   UNL     1      -0.620  -1.608   1.332  0.00  0.00    -0.075 C 
ATOM     14  N   UNL     1       0.836  -1.436   1.248  0.00  0.00    +0.384 N 
ATOM     15  C   UNL     1       1.180  -0.019   1.419  0.00  0.00    -0.075 C 
ATOM     16  C   UNL     1      -0.793  -1.400  -1.153  0.00  0.00    +0.005 C 
ATOM     17  H   UNL     1       1.160  -1.752   0.346  0.00  0.00    -0.081 HD
ENDBRANCH   6  14
ENDBRANCH   5   6
ENDBRANCH   1   5
BRANCH   2  18
ATOM     18  C   UNL     1       5.261  -2.568  -0.808  0.00  0.00    +0.201 C 
BRANCH  18  19
ATOM     19  N   UNL     1       6.690  -2.262  -0.915  0.00  0.00    -0.291 N 
ATOM     20  C   UNL     1       7.348  -2.513  -2.063  0.00  0.00    +0.300 C 
ATOM     21  O   UNL     1       6.757  -2.994  -3.011  0.00  0.00    -0.253 OA
ATOM     22  N   UNL     1       8.663  -2.232  -2.162  0.00  0.00    -0.292 N 
ATOM     23  H   UNL     1       7.162  -1.879  -0.159  0.00  0.00    +0.151 HD
ATOM     24  H   UNL     1       9.135  -1.849  -1.406  0.00  0.00    +0.151 HD
BRANCH  22  25
ATOM     25  C   UNL     1       9.379  -2.505  -3.410  0.00  0.00    +0.180 C 
BRANCH  25  26
ATOM     26  C   UNL     1      10.823  -2.103  -3.259  0.00  0.00    +0.122 A 
ATOM     27  C   UNL     1      11.820  -2.897  -2.828  0.00  0.00    +0.046 A 
ATOM     28  C   UNL     1      13.000  -2.118  -2.842  0.00  0.00    +0.041 A 
ATOM     29  C   UNL     1      12.654  -0.895  -3.281  0.00  0.00    +0.195 A 
ATOM     30  O   UNL     1      11.336  -0.893  -3.538  0.00  0.00    -0.466 OA
ENDBRANCH  25  26
ENDBRANCH  22  25
ENDBRANCH  18  19
ENDBRANCH   2  18
TORSDOF 7
