REMARK  Name = ZINC00240020
REMARK  8 active torsions:
REMARK  status: ('A' for Active; 'I' for Inactive)
REMARK    1  A    between atoms: C_1  and  C_2
REMARK    2  A    between atoms: C_2  and  C_3
REMARK    3  A    between atoms: C_3  and  C_4
REMARK    4  A    between atoms: C_4  and  C_6
REMARK    5  A    between atoms: C_4  and  C_7
REMARK    6  A    between atoms: C_12  and  N_21
REMARK    7  A    between atoms: C_16  and  N_20
REMARK    8  A    between atoms: C_17  and  C_18
REMARK                            x       y       z     vdW  Elec       q    Type
REMARK                         _______ _______ _______ _____ _____    ______ ____
ROOT
ATOM      1  C   UNL     1      -0.702   1.707  -3.727  0.00  0.00    +0.071 C 
ATOM      2  C   UNL     1       0.005   1.220  -4.964  0.00  0.00    +0.004 A 
ATOM      3  C   UNL     1      -0.230  -0.066  -5.420  0.00  0.00    +0.009 A 
ATOM      4  C   UNL     1       0.409  -0.530  -6.552  0.00  0.00    +0.023 A 
ATOM      5  C   UNL     1       1.292   0.294  -7.239  0.00  0.00    +0.028 A 
ATOM      6  C   UNL     1       1.529   1.583  -6.784  0.00  0.00    +0.069 A 
ATOM      7  C   UNL     1       0.886   2.047  -5.644  0.00  0.00    +0.136 A 
ATOM      8  O   UNL     1       1.129   3.309  -5.212  0.00  0.00    -0.441 OA
ATOM      9  C   UNL     1       0.264   3.910  -4.378  0.00  0.00    +0.198 C 
ATOM     10  C   UNL     1      -0.630   3.206  -3.644  0.00  0.00    +0.094 C 
ENDROOT
BRANCH   9  11
ATOM     11  N   UNL     1       0.288   5.278  -4.265  0.00  0.00    -0.328 N 
ATOM     12  H   UNL     1       0.923   5.796  -4.784  0.00  0.00    +0.145 HD
ATOM     13  H   UNL     1      -0.330   5.726  -3.667  0.00  0.00    +0.145 HD
ENDBRANCH   9  11
BRANCH   5  14
ATOM     14  N   UNL     1       1.939  -0.174  -8.385  0.00  0.00    -0.358 N 
ATOM     15  H   UNL     1       1.772  -1.075  -8.702  0.00  0.00    +0.142 HD
ATOM     16  H   UNL     1       2.555   0.403  -8.863  0.00  0.00    +0.142 HD
ENDBRANCH   5  14
BRANCH   1  17
ATOM     17  C   UNL     1      -0.037   1.099  -2.490  0.00  0.00    -0.001 C 
ATOM     18  C   UNL     1      -0.124  -0.427  -2.562  0.00  0.00    +0.008 C 
BRANCH  17  19
ATOM     19  C   UNL     1      -0.753   1.593  -1.232  0.00  0.00    +0.004 C 
BRANCH  19  21
ATOM     20  C   UNL     1      -0.729   1.579   1.267  0.00  0.00    +0.004 C 
ATOM     21  C   UNL     1      -0.013   1.086   0.008  0.00  0.00    -0.003 C 
ENDBRANCH  19  21
ENDBRANCH  17  19
ENDBRANCH   1  17
BRANCH  10  22
ATOM     22  C   UNL     1      -1.527   3.904  -2.773  0.00  0.00    +0.100 C 
ATOM     23  N   UNL     1      -2.238   4.458  -2.081  0.00  0.00    -0.191 NA
ENDBRANCH  10  22
TORSDOF 6
