REMARK  Name = ZINC05013993
REMARK  6 active torsions:
REMARK  status: ('A' for Active; 'I' for Inactive)
REMARK    1  A    between atoms: C_1  and  C_2
REMARK    2  A    between atoms: C_2  and  C_5
REMARK    3  A    between atoms: N_3  and  O_4
REMARK    4  A    between atoms: C_5  and  S_6
REMARK    5  A    between atoms: S_6  and  C_7
REMARK    6  A    between atoms: N_17  and  C_18
REMARK                            x       y       z     vdW  Elec       q    Type
REMARK                         _______ _______ _______ _____ _____    ______ ____
ROOT
ATOM      1  C   UNL     1       0.700  -3.425  -2.717  0.00  0.00    +0.177 A 
ATOM      2  N   UNL     1       0.727  -2.644  -3.769  0.00  0.00    -0.223 NA
ATOM      3  C   UNL     1       0.087  -2.978  -4.915  0.00  0.00    +0.079 A 
ATOM      4  C   UNL     1       0.115  -2.146  -6.038  0.00  0.00    +0.028 A 
ATOM      5  C   UNL     1      -0.545  -2.523  -7.174  0.00  0.00    +0.002 A 
ATOM      6  C   UNL     1      -1.244  -3.722  -7.230  0.00  0.00    +0.001 A 
ATOM      7  C   UNL     1      -1.290  -4.556  -6.148  0.00  0.00    +0.015 A 
ATOM      8  C   UNL     1      -0.626  -4.197  -4.976  0.00  0.00    +0.065 A 
ATOM      9  C   UNL     1      -0.639  -5.053  -3.783  0.00  0.00    +0.267 A 
ATOM     10  O   UNL     1      -1.236  -6.115  -3.775  0.00  0.00    -0.267 OA
ATOM     11  N   UNL     1       0.039  -4.622  -2.694  0.00  0.00    -0.255 N 
ENDROOT
BRANCH  11  12
ATOM     12  C   UNL     1       0.061  -5.405  -1.533  0.00  0.00    +0.052 A 
ATOM     13  C   UNL     1       1.063  -6.348  -1.349  0.00  0.00    +0.026 A 
ATOM     14  C   UNL     1       1.082  -7.119  -0.203  0.00  0.00    +0.002 A 
ATOM     15  C   UNL     1       0.104  -6.952   0.760  0.00  0.00    +0.000 A 
ATOM     16  C   UNL     1      -0.896  -6.014   0.580  0.00  0.00    +0.002 A 
ATOM     17  C   UNL     1      -0.916  -5.237  -0.562  0.00  0.00    +0.026 A 
ENDBRANCH  11  12
BRANCH   1  18
ATOM     18  S   UNL     1       1.562  -2.912  -1.268  0.00  0.00    -0.081 S 
BRANCH  18  19
ATOM     19  C   UNL     1       2.277  -1.310  -1.727  0.00  0.00    +0.131 C 
BRANCH  19  21
ATOM     20  C   UNL     1       3.747   0.578  -0.684  0.00  0.00    +0.065 C 
ATOM     21  C   UNL     1       3.051  -0.753  -0.560  0.00  0.00    +0.065 C 
ATOM     22  N   UNL     1       3.118  -1.410   0.536  0.00  0.00    -0.096 NA
BRANCH  22  23
ATOM     23  O   UNL     1       3.845  -0.887   1.632  0.00  0.00    -0.409 OA
ATOM     24  H   UNL     1       3.838  -1.454   2.415  0.00  0.00    +0.328 HD
ENDBRANCH  22  23
ENDBRANCH  19  21
ENDBRANCH  18  19
ENDBRANCH   1  18
TORSDOF 5
