REMARK  Name = ZINC43828453
REMARK  9 active torsions:
REMARK  status: ('A' for Active; 'I' for Inactive)
REMARK    1  A    between atoms: C_1  and  C_2
REMARK    2  A    between atoms: C_12  and  C_14
REMARK    3  A    between atoms: C_14  and  C_16
REMARK    4  A    between atoms: C_14  and  N_17
REMARK    5  A    between atoms: C_18  and  O_20
REMARK    6  A    between atoms: O_20  and  C_21
REMARK    7  A    between atoms: C_21  and  C_22
REMARK    8  A    between atoms: C_21  and  C_23
REMARK    9  A    between atoms: C_21  and  C_24
REMARK                            x       y       z     vdW  Elec       q    Type
REMARK                         _______ _______ _______ _____ _____    ______ ____
ROOT
ATOM      1  C   UNL     1       0.737   1.793   0.041  0.00  0.00    +0.029 C 
ATOM      2  C   UNL     1       1.030   0.297  -0.091  0.00  0.00    +0.083 C 
ATOM      3  C   UNL     1       2.231   0.069  -1.024  0.00  0.00    +0.059 C 
ATOM      4  C   UNL     1       3.260  -0.620  -0.157  0.00  0.00    -0.024 A 
ATOM      5  C   UNL     1       4.535  -1.069  -0.447  0.00  0.00    +0.005 A 
ATOM      6  C   UNL     1       5.296  -1.678   0.533  0.00  0.00    +0.000 A 
ATOM      7  C   UNL     1       4.779  -1.838   1.806  0.00  0.00    +0.002 A 
ATOM      8  C   UNL     1       3.509  -1.392   2.100  0.00  0.00    +0.024 A 
ATOM      9  C   UNL     1       2.733  -0.775   1.115  0.00  0.00    +0.040 A 
ATOM     10  N   UNL     1       1.435  -0.257   1.204  0.00  0.00    -0.267 N 
ATOM     11  C   UNL     1       0.671  -0.266   2.314  0.00  0.00    +0.240 C 
ATOM     12  O   UNL     1      -0.412   0.280   2.309  0.00  0.00    -0.273 OA
ENDROOT
BRANCH  11  13
ATOM     13  C   UNL     1       1.163  -0.954   3.561  0.00  0.00    +0.159 C 
ATOM     14  C   UNL     1       1.169  -2.468   3.340  0.00  0.00    +0.038 C 
BRANCH  13  15
ATOM     15  N   UNL     1       0.276  -0.627   4.681  0.00  0.00    -0.270 N 
ATOM     16  C   UNL     1       0.739  -0.680   5.945  0.00  0.00    +0.401 C 
ATOM     17  O   UNL     1       1.893  -0.998   6.157  0.00  0.00    -0.226 OA
ATOM     18  H   UNL     1      -0.645  -0.373   4.512  0.00  0.00    +0.153 HD
BRANCH  16  19
ATOM     19  O   UNL     1      -0.076  -0.380   6.974  0.00  0.00    -0.445 OA
BRANCH  19  20
ATOM     20  C   UNL     1       0.482  -0.457   8.287  0.00  0.00    +0.107 C 
ATOM     21  C   UNL     1       1.659   0.514   8.399  0.00  0.00    +0.055 C 
ATOM     22  C   UNL     1      -0.586  -0.084   9.318  0.00  0.00    +0.055 C 
ATOM     23  C   UNL     1       0.970  -1.882   8.552  0.00  0.00    +0.055 C 
ENDBRANCH  19  20
ENDBRANCH  16  19
ENDBRANCH  13  15
ENDBRANCH  11  13
TORSDOF 4
