REMARK  Name = ZINC31720878
REMARK  5 active torsions:
REMARK  status: ('A' for Active; 'I' for Inactive)
REMARK    1  A    between atoms: C_3  and  C_21
REMARK    2  A    between atoms: C_6  and  N_7
REMARK    3  A    between atoms: N_7  and  S_8
REMARK    4  A    between atoms: S_8  and  C_11
REMARK    5  A    between atoms: C_16  and  C_17
REMARK                            x       y       z     vdW  Elec       q    Type
REMARK                         _______ _______ _______ _____ _____    ______ ____
ROOT
ATOM      1  N   UNL     1       3.576  -0.528  -0.038  0.00  0.00    -0.098 NA
ENDROOT
BRANCH   1   7
ATOM      2  C   UNL     1       1.175  -0.347   0.051  0.00  0.00    +0.027 A 
ATOM      3  C   UNL     1       0.036   0.425   0.050  0.00  0.00    +0.016 A 
ATOM      4  C   UNL     1       0.136   1.816  -0.042  0.00  0.00    +0.055 A 
ATOM      5  C   UNL     1       1.396   2.420  -0.132  0.00  0.00    +0.055 A 
ATOM      6  C   UNL     1       2.532   1.641  -0.130  0.00  0.00    +0.047 A 
ATOM      7  C   UNL     1       2.427   0.256  -0.039  0.00  0.00    +0.076 A 
ATOM      8 CL   UNL     1       1.526   4.147  -0.247  0.00  0.00    -0.083 Cl
BRANCH   4   9
ATOM      9  C   UNL     1      -1.083   2.646  -0.049  0.00  0.00    +0.243 C 
ATOM     10  O   UNL     1      -0.994   3.856  -0.129  0.00  0.00    -0.270 OA
ATOM     11  N   UNL     1      -2.295   2.062   0.033  0.00  0.00    -0.325 N 
ATOM     12  H   UNL     1      -3.205   2.681   0.027  0.00  0.00    +0.145 HD
ATOM     13  H   UNL     1      -2.375   0.968   0.105  0.00  0.00    +0.145 HD
ENDBRANCH   4   9
ENDBRANCH   1   7
BRANCH   1  14
ATOM     14  S   UNL     1       4.775  -0.241  -1.143  0.00  0.00    +0.093 S 
ATOM     15  O   UNL     1       5.094   1.141  -1.048  0.00  0.00    -0.148 OA
ATOM     16  O   UNL     1       5.747  -1.261  -0.962  0.00  0.00    -0.148 OA
BRANCH  14  17
ATOM     17  C   UNL     1       4.079  -0.488  -2.743  0.00  0.00    +0.129 A 
ATOM     18  C   UNL     1       3.977   0.570  -3.623  0.00  0.00    +0.050 A 
ATOM     19  C   UNL     1       3.431   0.377  -4.881  0.00  0.00    +0.043 A 
ATOM     20  C   UNL     1       2.984  -0.877  -5.264  0.00  0.00    +0.021 A 
ATOM     21  C   UNL     1       3.080  -1.942  -4.393  0.00  0.00    +0.022 A 
ATOM     22  C   UNL     1       3.635  -1.755  -3.125  0.00  0.00    +0.078 A 
ATOM     23 CL   UNL     1       3.307   1.713  -5.983  0.00  0.00    -0.083 Cl
BRANCH  22  24
ATOM     24  C   UNL     1       3.743  -2.858  -2.219  0.00  0.00    +0.101 C 
ATOM     25  N   UNL     1       3.829  -3.733  -1.499  0.00  0.00    -0.191 NA
ENDBRANCH  22  24
ENDBRANCH  14  17
ENDBRANCH   1  14
TORSDOF 5
