REMARK  Name = ZINC09210711
REMARK  10 active torsions:
REMARK  status: ('A' for Active; 'I' for Inactive)
REMARK    1  A    between atoms: C_1  and  C_2
REMARK    2  A    between atoms: C_2  and  C_3
REMARK    3  A    between atoms: C_3  and  C_28
REMARK    4  A    between atoms: N_4  and  N_5
REMARK    5  A    between atoms: C_6  and  C_8
REMARK    6  A    between atoms: C_9  and  C_19
REMARK    7  A    between atoms: C_19  and  S_20
REMARK    8  A    between atoms: S_20  and  C_21
REMARK    9  A    between atoms: C_24  and  C_27
REMARK   10  A    between atoms: C_31  and  O_34
REMARK                            x       y       z     vdW  Elec       q    Type
REMARK                         _______ _______ _______ _____ _____    ______ ____
ROOT
ATOM      1  C   UNL     1      -1.349  -0.460  -4.770  0.00  0.00    +0.173 A 
ATOM      2  C   UNL     1      -1.889  -0.642  -6.011  0.00  0.00    +0.089 A 
ATOM      3  N   UNL     1      -0.940  -0.287  -6.905  0.00  0.00    -0.191 N 
ATOM      4  N   UNL     1       0.182   0.113  -6.167  0.00  0.00    -0.058 NA
ATOM      5  N   UNL     1      -0.096   0.004  -4.914  0.00  0.00    -0.124 NA
ATOM      6  C   UNL     1      -1.055  -0.313  -8.300  0.00  0.00    +0.240 A 
ATOM      7  C   UNL     1      -0.012   0.071  -9.254  0.00  0.00    +0.206 A 
ATOM      8  N   UNL     1      -0.482  -0.086 -10.461  0.00  0.00    -0.032 NA
ATOM      9  O   UNL     1      -1.810  -0.564 -10.351  0.00  0.00    -0.239 OA
ATOM     10  N   UNL     1      -2.107  -0.690  -8.971  0.00  0.00    -0.027 NA
ATOM     11  N   UNL     1       1.262   0.525  -8.929  0.00  0.00    -0.337 N 
ATOM     12  H   UNL     1       1.523   0.610  -7.999  0.00  0.00    +0.144 HD
ATOM     13  H   UNL     1       1.888   0.758  -9.632  0.00  0.00    +0.144 HD
ENDROOT
BRANCH   1  15
ATOM     14  N   UNL     1      -1.386  -0.495  -2.325  0.00  0.00    -0.201 N 
ATOM     15  C   UNL     1      -2.029  -0.722  -3.487  0.00  0.00    +0.285 C 
ATOM     16  O   UNL     1      -3.170  -1.143  -3.479  0.00  0.00    -0.267 OA
ATOM     17  H   UNL     1      -0.476  -0.160  -2.332  0.00  0.00    +0.178 HD
BRANCH  14  19
ATOM     18  C   UNL     1      -1.412  -0.526   0.013  0.00  0.00    +0.066 C 
ATOM     19  N   UNL     1      -2.031  -0.744  -1.107  0.00  0.00    -0.184 NA
BRANCH  18  20
ATOM     20  C   UNL     1      -2.091  -0.788   1.295  0.00  0.00    -0.002 A 
ATOM     21  C   UNL     1      -1.428  -0.548   2.501  0.00  0.00    +0.013 A 
ATOM     22  C   UNL     1      -2.067  -0.794   3.697  0.00  0.00    +0.046 A 
ATOM     23  C   UNL     1      -3.368  -1.280   3.704  0.00  0.00    +0.117 A 
ATOM     24  C   UNL     1      -4.031  -1.520   2.507  0.00  0.00    +0.046 A 
ATOM     25  C   UNL     1      -3.402  -1.271   1.307  0.00  0.00    +0.013 A 
BRANCH  23  26
ATOM     26  O   UNL     1      -3.994  -1.522   4.885  0.00  0.00    -0.507 OA
ATOM     27  H   UNL     1      -4.484  -0.765   5.233  0.00  0.00    +0.292 HD
ENDBRANCH  23  26
ENDBRANCH  18  20
BRANCH  18  29
ATOM     28  C   UNL     1      -0.019   1.526   0.010  0.00  0.00    +0.010 C 
ATOM     29  C   UNL     1       0.002  -0.004   0.002  0.00  0.00    +0.054 C 
ENDBRANCH  18  29
ENDBRANCH  14  19
ENDBRANCH   1  15
BRANCH   2  30
ATOM     30  C   UNL     1      -3.276  -1.144  -6.324  0.00  0.00    +0.132 C 
BRANCH  30  31
ATOM     31  S   UNL     1      -3.247  -2.952  -6.467  0.00  0.00    -0.119 S 
BRANCH  31  32
ATOM     32  C   UNL     1      -4.918  -3.377  -6.829  0.00  0.00    +0.008 A 
ATOM     33  C   UNL     1      -5.882  -2.382  -6.941  0.00  0.00    +0.015 A 
ATOM     34  C   UNL     1      -7.191  -2.719  -7.225  0.00  0.00    +0.004 A 
ATOM     35  C   UNL     1      -7.543  -4.045  -7.397  0.00  0.00    -0.050 A 
ATOM     36  C   UNL     1      -6.587  -5.038  -7.285  0.00  0.00    +0.004 A 
ATOM     37  C   UNL     1      -5.275  -4.708  -7.008  0.00  0.00    +0.015 A 
ATOM     38  C   UNL     1      -8.972  -4.409  -7.706  0.00  0.00    +0.044 C 
ENDBRANCH  31  32
ENDBRANCH  30  31
ENDBRANCH   2  30
TORSDOF 8
