REMARK  Name = ZINC55183113
REMARK  7 active torsions:
REMARK  status: ('A' for Active; 'I' for Inactive)
REMARK    1  A    between atoms: C_1  and  C_2
REMARK    2  A    between atoms: C_7  and  C_25
REMARK    3  A    between atoms: C_10  and  C_12
REMARK    4  A    between atoms: C_15  and  C_17
REMARK    5  A    between atoms: C_17  and  S_18
REMARK    6  A    between atoms: S_18  and  C_19
REMARK    7  A    between atoms: C_25  and  C_26
REMARK                            x       y       z     vdW  Elec       q    Type
REMARK                         _______ _______ _______ _____ _____    ______ ____
ROOT
ATOM      1  C   UNL     1       2.940  -1.199   0.285  0.00  0.00    +0.190 A 
ATOM      2  C   UNL     1       4.147  -1.834   0.224  0.00  0.00    +0.055 A 
ATOM      3  C   UNL     1       4.647  -1.627  -1.071  0.00  0.00    +0.046 A 
ATOM      4  C   UNL     1       3.735  -0.884  -1.736  0.00  0.00    +0.116 A 
ATOM      5  O   UNL     1       2.706  -0.632  -0.917  0.00  0.00    -0.454 OA
ENDROOT
BRANCH   1  13
ATOM      6  C   UNL     1       0.386   1.351  -0.079  0.00  0.00    +0.032 C 
ATOM      7  C   UNL     1       0.293  -0.172   0.037  0.00  0.00    +0.096 C 
ATOM      8  C   UNL     1      -1.144  -0.598  -0.074  0.00  0.00    -0.009 C 
ATOM      9  C   UNL     1      -1.837  -1.052   0.920  0.00  0.00    -0.027 C 
ATOM     10  C   UNL     1      -1.309  -1.236   2.312  0.00  0.00    +0.049 C 
ATOM     11  C   UNL     1      -0.040  -0.403   2.517  0.00  0.00    +0.084 C 
ATOM     12  N   UNL     1       0.825  -0.599   1.339  0.00  0.00    -0.285 N 
ATOM     13  C   UNL     1       2.052  -1.147   1.450  0.00  0.00    +0.283 C 
ATOM     14  O   UNL     1       2.422  -1.598   2.518  0.00  0.00    -0.267 OA
BRANCH  11  15
ATOM     15  C   UNL     1       0.688  -0.871   3.778  0.00  0.00    +0.049 C 
BRANCH  15  16
ATOM     16  C   UNL     1       1.838   0.060   4.068  0.00  0.00    -0.033 C 
ATOM     17  C   UNL     1       1.893   0.696   5.212  0.00  0.00    +0.004 C 
ENDBRANCH  15  16
ENDBRANCH  11  15
ENDBRANCH   1  13
BRANCH   4  18
ATOM     18  C   UNL     1       3.855  -0.419  -3.164  0.00  0.00    +0.151 C 
BRANCH  18  19
ATOM     19  S   UNL     1       3.124  -1.661  -4.267  0.00  0.00    -0.079 S 
BRANCH  19  20
ATOM     20  C   UNL     1       3.340  -0.979  -5.878  0.00  0.00    +0.184 A 
ATOM     21  N   UNL     1       3.909   0.173  -6.162  0.00  0.00    -0.209 NA
ATOM     22  H   UNL     1       2.511  -2.405  -7.150  0.00  0.00    +0.191 HD
ATOM     23  C   UNL     1       3.897   0.366  -7.482  0.00  0.00    +0.245 A 
ATOM     24  N   UNL     1       3.323  -0.655  -8.059  0.00  0.00    -0.160 NA
ATOM     25  N   UNL     1       2.955  -1.549  -7.040  0.00  0.00    -0.254 N 
ENDBRANCH  19  20
ENDBRANCH  18  19
ENDBRANCH   4  18
TORSDOF 6
