REMARK  Name = ZINC29491328
REMARK  6 active torsions:
REMARK  status: ('A' for Active; 'I' for Inactive)
REMARK    1  A    between atoms: C_1  and  C_2
REMARK    2  A    between atoms: C_6  and  N_8
REMARK    3  A    between atoms: C_9  and  S_11
REMARK    4  A    between atoms: S_11  and  C_12
REMARK    5  A    between atoms: C_12  and  C_13
REMARK    6  A    between atoms: C_18  and  C_23
REMARK                            x       y       z     vdW  Elec       q    Type
REMARK                         _______ _______ _______ _____ _____    ______ ____
ROOT
ATOM      1  S   UNL     1      -0.837  -4.610   4.108  0.00  0.00    -0.085 S 
ENDROOT
BRANCH   1   3
ATOM      2  N   UNL     1       0.023  -2.764   2.377  0.00  0.00    -0.227 NA
ATOM      3  C   UNL     1      -0.806  -3.766   2.562  0.00  0.00    +0.152 C 
ATOM      4  N   UNL     1      -1.648  -4.156   1.549  0.00  0.00    -0.338 N 
ATOM      5  H   UNL     1      -1.561  -3.762   0.667  0.00  0.00    +0.144 HD
ATOM      6  H   UNL     1      -2.330  -4.826   1.716  0.00  0.00    +0.144 HD
BRANCH   2  12
ATOM      7  C   UNL     1      -2.583  -0.097  -0.796  0.00  0.00    +0.044 C 
ATOM      8  C   UNL     1      -1.285  -0.722  -0.355  0.00  0.00    -0.048 A 
ATOM      9  C   UNL     1      -0.145  -0.558  -1.121  0.00  0.00    +0.003 A 
ATOM     10  C   UNL     1       1.052  -1.128  -0.724  0.00  0.00    +0.002 A 
ATOM     11  C   UNL     1       1.115  -1.865   0.441  0.00  0.00    +0.028 A 
ATOM     12  C   UNL     1      -0.032  -2.034   1.219  0.00  0.00    +0.067 A 
ATOM     13  C   UNL     1      -1.235  -1.451   0.815  0.00  0.00    +0.031 A 
ENDBRANCH   2  12
ENDBRANCH   1   3
BRANCH   1  14
ATOM     14  C   UNL     1       0.420  -3.756   5.099  0.00  0.00    +0.132 C 
BRANCH  14  15
ATOM     15  C   UNL     1       0.496  -4.388   6.465  0.00  0.00    +0.059 A 
ATOM     16  C   UNL     1       1.552  -5.208   6.801  0.00  0.00    +0.095 A 
ATOM     17  C   UNL     1       1.606  -5.784   8.070  0.00  0.00    +0.259 A 
ATOM     18  O   UNL     1       2.539  -6.511   8.373  0.00  0.00    -0.267 OA
ATOM     19  N   UNL     1       0.614  -5.532   8.976  0.00  0.00    -0.259 N 
ATOM     20  C   UNL     1       0.527  -6.021  10.257  0.00  0.00    +0.033 A 
ATOM     21  C   UNL     1      -0.497  -5.701  11.047  0.00  0.00    +0.070 A 
ATOM     22  S   UNL     1      -1.458  -4.633   9.986  0.00  0.00    -0.057 S 
ATOM     23  C   UNL     1      -0.397  -4.707   8.560  0.00  0.00    +0.180 A 
ATOM     24  N   UNL     1      -0.451  -4.159   7.371  0.00  0.00    -0.227 NA
ATOM     25  C   UNL     1       1.606  -6.935  10.777  0.00  0.00    +0.064 C 
ENDBRANCH  14  15
ENDBRANCH   1  14
TORSDOF 4
