REMARK  Name = ZINC63269559
REMARK  8 active torsions:
REMARK  status: ('A' for Active; 'I' for Inactive)
REMARK    1  A    between atoms: C_1  and  C_2
REMARK    2  A    between atoms: C_2  and  C_3
REMARK    3  A    between atoms: C_2  and  N_4
REMARK    4  A    between atoms: N_7  and  N_8
REMARK    5  A    between atoms: C_9  and  C_11
REMARK    6  A    between atoms: C_14  and  S_17
REMARK    7  A    between atoms: S_17  and  C_18
REMARK    8  A    between atoms: C_18  and  C_19
REMARK                            x       y       z     vdW  Elec       q    Type
REMARK                         _______ _______ _______ _____ _____    ______ ____
ROOT
ATOM      1  C   UNL     1      -5.830  -2.290   1.364  0.00  0.00    +0.038 A 
ATOM      2  C   UNL     1      -5.129  -2.149   2.566  0.00  0.00    +0.014 A 
ATOM      3  C   UNL     1      -5.728  -2.490   3.751  0.00  0.00    +0.015 A 
ATOM      4  C   UNL     1      -7.032  -2.978   3.759  0.00  0.00    +0.008 A 
ATOM      5  C   UNL     1      -7.733  -3.120   2.563  0.00  0.00    +0.015 A 
ATOM      6  C   UNL     1      -7.142  -2.775   1.375  0.00  0.00    +0.014 A 
ENDROOT
BRANCH   1   8
ATOM      7  N   UNL     1      -3.924  -1.457   0.078  0.00  0.00    -0.229 N 
ATOM      8  C   UNL     1      -5.189  -1.924   0.087  0.00  0.00    +0.260 C 
ATOM      9  O   UNL     1      -5.801  -2.043  -0.957  0.00  0.00    -0.269 OA
ATOM     10  H   UNL     1      -3.436  -1.363   0.910  0.00  0.00    +0.173 HD
BRANCH   7  14
ATOM     11  N   UNL     1      -1.372  -0.511   0.012  0.00  0.00    -0.296 N 
ATOM     12  C   UNL     1      -2.051  -0.643  -1.145  0.00  0.00    +0.316 C 
ATOM     13  O   UNL     1      -1.522  -0.341  -2.197  0.00  0.00    -0.251 OA
ATOM     14  N   UNL     1      -3.315  -1.109  -1.135  0.00  0.00    -0.218 N 
ATOM     15  H   UNL     1      -1.794  -0.752   0.852  0.00  0.00    +0.151 HD
ATOM     16  H   UNL     1      -3.804  -1.204  -1.968  0.00  0.00    +0.174 HD
BRANCH  11  18
ATOM     17  C   UNL     1      -0.019   1.526   0.010  0.00  0.00    +0.027 C 
ATOM     18  C   UNL     1       0.002  -0.004   0.002  0.00  0.00    +0.068 C 
ATOM     19  C   UNL     1       0.742  -0.511   1.242  0.00  0.00    +0.027 C 
ENDBRANCH  11  18
ENDBRANCH   7  14
ENDBRANCH   1   8
BRANCH   4  20
ATOM     20  S   UNL     1      -7.798  -3.417   5.284  0.00  0.00    -0.119 S 
BRANCH  20  21
ATOM     21  C   UNL     1      -9.451  -3.984   4.798  0.00  0.00    +0.131 C 
BRANCH  21  22
ATOM     22  C   UNL     1     -10.222  -4.395   6.025  0.00  0.00    +0.070 A 
ATOM     23  C   UNL     1     -10.240  -5.632   6.568  0.00  0.00    +0.116 A 
ATOM     24  N   UNL     1     -11.056  -5.581   7.665  0.00  0.00    -0.306 N 
ATOM     25  C   UNL     1     -11.435  -6.521   8.579  0.00  0.00    +0.092 A 
ATOM     26  C   UNL     1     -12.270  -6.201   9.589  0.00  0.00    +0.018 A 
ATOM     27  C   UNL     1     -12.762  -4.891   9.713  0.00  0.00    +0.005 A 
ATOM     28  C   UNL     1     -12.392  -3.944   8.809  0.00  0.00    +0.047 A 
ATOM     29  C   UNL     1     -11.519  -4.294   7.760  0.00  0.00    +0.138 A 
ATOM     30  N   UNL     1     -10.998  -3.595   6.761  0.00  0.00    -0.232 NA
ENDBRANCH  21  22
ENDBRANCH  20  21
ENDBRANCH   4  20
TORSDOF 6
