REMARK  Name = ZINC50265721
REMARK  8 active torsions:
REMARK  status: ('A' for Active; 'I' for Inactive)
REMARK    1  A    between atoms: C_1  and  C_2
REMARK    2  A    between atoms: C_2  and  N_3
REMARK    3  A    between atoms: C_5  and  S_9
REMARK    4  A    between atoms: C_7  and  C_8
REMARK    5  A    between atoms: S_9  and  N_12
REMARK    6  A    between atoms: N_12  and  C_13
REMARK    7  A    between atoms: C_16  and  C_19
REMARK    8  A    between atoms: C_19  and  N_21
REMARK                            x       y       z     vdW  Elec       q    Type
REMARK                         _______ _______ _______ _____ _____    ______ ____
ROOT
ATOM      1  S   UNL     1       0.893  -1.758  -4.880  0.00  0.00    +0.108 S 
ATOM      2  O   UNL     1      -0.343  -1.228  -5.342  0.00  0.00    -0.147 OA
ATOM      3  O   UNL     1       2.125  -1.504  -5.542  0.00  0.00    -0.147 OA
ENDROOT
BRANCH   1   6
ATOM      4  N   UNL     1       0.688  -0.476  -1.203  0.00  0.00    -0.334 N 
ATOM      5  C   UNL     1       0.098  -0.834  -2.386  0.00  0.00    +0.134 A 
ATOM      6  C   UNL     1       1.089  -1.203  -3.219  0.00  0.00    +0.195 A 
ATOM      7  N   UNL     1       2.252  -1.075  -2.564  0.00  0.00    -0.328 N 
ATOM      8  C   UNL     1       2.020  -0.635  -1.357  0.00  0.00    +0.085 A 
ATOM      9  C   UNL     1       3.065  -0.355  -0.308  0.00  0.00    +0.084 C 
ATOM     10  H   UNL     1       3.128  -1.274  -2.930  0.00  0.00    +0.168 HD
BRANCH   4  12
ATOM     11  C   UNL     1      -0.019   1.526   0.010  0.00  0.00    +0.027 C 
ATOM     12  C   UNL     1       0.002  -0.004   0.002  0.00  0.00    +0.119 C 
ENDBRANCH   4  12
ENDBRANCH   1   6
BRANCH   1  13
ATOM     13  N   UNL     1       0.714  -3.403  -4.829  0.00  0.00    -0.096 NA
BRANCH  13  14
ATOM     14  C   UNL     1       0.538  -4.120  -6.008  0.00  0.00    +0.074 A 
ATOM     15  C   UNL     1       0.519  -3.454  -7.230  0.00  0.00    +0.027 A 
ATOM     16  C   UNL     1       0.345  -4.161  -8.398  0.00  0.00    +0.012 A 
ATOM     17  C   UNL     1       0.188  -5.550  -8.357  0.00  0.00    +0.003 A 
ATOM     18  C   UNL     1       0.208  -6.216  -7.127  0.00  0.00    +0.012 A 
ATOM     19  C   UNL     1       0.387  -5.504  -5.963  0.00  0.00    +0.027 A 
BRANCH  17  20
ATOM     20  C   UNL     1       0.002  -6.310  -9.605  0.00  0.00    +0.077 C 
ATOM     21  S   UNL     1       0.804  -5.817 -11.035  0.00  0.00    -0.035 S 
BRANCH  20  22
ATOM     22  N   UNL     1      -0.800  -7.393  -9.622  0.00  0.00    -0.352 N 
ATOM     23  H   UNL     1      -1.255  -7.672  -8.811  0.00  0.00    +0.143 HD
ATOM     24  H   UNL     1      -0.923  -7.893 -10.444  0.00  0.00    +0.143 HD
ENDBRANCH  20  22
ENDBRANCH  17  20
ENDBRANCH  13  14
ENDBRANCH   1  13
TORSDOF 6
