REMARK  Name = ZINC64868986
REMARK  4 active torsions:
REMARK  status: ('A' for Active; 'I' for Inactive)
REMARK    1  A    between atoms: C_8  and  C_25
REMARK    2  A    between atoms: N_12  and  C_13
REMARK    3  A    between atoms: C_13  and  C_14
REMARK    4  A    between atoms: N_16  and  C_17
REMARK                            x       y       z     vdW  Elec       q    Type
REMARK                         _______ _______ _______ _____ _____    ______ ____
ROOT
ATOM      1  C   UNL     1       0.262  -0.145   0.477  0.00  0.00    +0.002 A 
ATOM      2  C   UNL     1       1.211   0.860   0.446  0.00  0.00    +0.002 A 
ATOM      3  C   UNL     1       2.546   0.551   0.255  0.00  0.00    +0.025 A 
ATOM      4  C   UNL     1       2.934  -0.769   0.094  0.00  0.00    +0.058 A 
ATOM      5  C   UNL     1       1.977  -1.782   0.125  0.00  0.00    +0.053 A 
ATOM      6  C   UNL     1       0.642  -1.466   0.316  0.00  0.00    +0.025 A 
ATOM      7  N   UNL     1       2.168  -3.166  -0.017  0.00  0.00    -0.312 N 
ATOM      8  C   UNL     1       3.354  -3.847  -0.221  0.00  0.00    +0.050 C 
ATOM      9  C   UNL     1       4.629  -3.336  -0.335  0.00  0.00    +0.092 C 
ATOM     10  C   UNL     1       5.055  -1.999  -0.274  0.00  0.00    +0.246 C 
ATOM     11  O   UNL     1       6.253  -1.823  -0.406  0.00  0.00    -0.270 OA
ATOM     12  N   UNL     1       4.322  -0.884  -0.087  0.00  0.00    -0.257 N 
ATOM     13  H   UNL     1       1.368  -3.712   0.035  0.00  0.00    +0.152 HD
ENDROOT
BRANCH   8  14
ATOM     14  C   UNL     1       3.240  -5.303  -0.331  0.00  0.00    +0.033 A 
ATOM     15  C   UNL     1       4.238  -6.246  -0.529  0.00  0.00    +0.017 A 
ATOM     16  C   UNL     1       3.820  -7.554  -0.590  0.00  0.00    +0.008 A 
ATOM     17  C   UNL     1       2.499  -7.830  -0.457  0.00  0.00    +0.046 A 
ATOM     18  S   UNL     1       1.783  -6.327  -0.238  0.00  0.00    -0.095 S 
ENDBRANCH   8  14
BRANCH  12  19
ATOM     19  C   UNL     1       5.071   0.374  -0.071  0.00  0.00    +0.210 C 
BRANCH  19  20
ATOM     20  C   UNL     1       5.338   0.782   1.355  0.00  0.00    +0.235 C 
ATOM     21  O   UNL     1       4.941   0.090   2.268  0.00  0.00    -0.274 OA
ATOM     22  N   UNL     1       6.017   1.917   1.616  0.00  0.00    -0.282 N 
ATOM     23  H   UNL     1       6.268   2.509   0.890  0.00  0.00    +0.155 HD
BRANCH  22  24
ATOM     24  C   UNL     1       6.362   2.240   2.935  0.00  0.00    +0.069 A 
ATOM     25  C   UNL     1       6.359   1.256   3.915  0.00  0.00    +0.027 A 
ATOM     26  C   UNL     1       6.699   1.577   5.215  0.00  0.00    +0.022 A 
ATOM     27  C   UNL     1       7.043   2.877   5.542  0.00  0.00    +0.044 A 
ATOM     28  C   UNL     1       7.047   3.860   4.568  0.00  0.00    +0.060 A 
ATOM     29  C   UNL     1       6.712   3.544   3.264  0.00  0.00    +0.146 A 
ATOM     30  F   UNL     1       6.721   4.503   2.312  0.00  0.00    -0.203 F 
ATOM     31 CL   UNL     1       7.468   3.275   7.177  0.00  0.00    -0.083 Cl
ENDBRANCH  22  24
ENDBRANCH  19  20
ENDBRANCH  12  19
TORSDOF 4
