REMARK  Name = ZINC03145471
REMARK  9 active torsions:
REMARK  status: ('A' for Active; 'I' for Inactive)
REMARK    1  A    between atoms: C_1  and  O_2
REMARK    2  A    between atoms: O_2  and  C_3
REMARK    3  A    between atoms: C_5  and  C_13
REMARK    4  A    between atoms: C_6  and  O_11
REMARK    5  A    between atoms: C_8  and  O_9
REMARK    6  A    between atoms: O_9  and  C_10
REMARK    7  A    between atoms: O_11  and  C_12
REMARK    8  A    between atoms: C_27  and  N_31
REMARK    9  A    between atoms: C_28  and  C_29
REMARK                            x       y       z     vdW  Elec       q    Type
REMARK                         _______ _______ _______ _____ _____    ______ ____
ROOT
ATOM      1  C   UNL     1      -1.333   2.131   0.033  0.00  0.00    +0.109 C 
ATOM      2  C   UNL     1      -0.017   1.402   0.010  0.00  0.00    +0.092 A 
ATOM      3  C   UNL     1       1.159   2.091   0.002  0.00  0.00    +0.152 A 
ATOM      4  C   UNL     1       2.415   1.324  -0.012  0.00  0.00    +0.060 A 
ATOM      5  C   UNL     1       3.654   1.969  -0.019  0.00  0.00    +0.015 A 
ATOM      6  C   UNL     1       4.810   1.221  -0.030  0.00  0.00    +0.001 A 
ATOM      7  C   UNL     1       4.747  -0.165  -0.035  0.00  0.00    +0.004 A 
ATOM      8  C   UNL     1       3.530  -0.814  -0.029  0.00  0.00    +0.047 A 
ATOM      9  C   UNL     1       2.352  -0.078  -0.018  0.00  0.00    +0.143 A 
ATOM     10  O   UNL     1       1.152  -0.697  -0.011  0.00  0.00    -0.422 OA
ATOM     11  C   UNL     1       0.002  -0.004   0.002  0.00  0.00    +0.345 A 
ATOM     12  O   UNL     1      -1.055  -0.611   0.007  0.00  0.00    -0.245 OA
ATOM     13  O   UNL     1       1.187   3.437   0.008  0.00  0.00    -0.440 OA
ATOM     14  C   UNL     1       0.095   4.134  -0.356  0.00  0.00    +0.199 C 
ATOM     15  C   UNL     1      -1.136   3.568  -0.368  0.00  0.00    +0.098 C 
ENDROOT
BRANCH   1  18
ATOM     16  C   UNL     1      -1.744   2.553   3.764  0.00  0.00    +0.162 A 
ATOM     17  C   UNL     1      -1.210   2.603   2.487  0.00  0.00    +0.057 A 
ATOM     18  C   UNL     1      -1.913   2.071   1.422  0.00  0.00    +0.011 A 
ATOM     19  C   UNL     1      -3.149   1.478   1.632  0.00  0.00    +0.128 A 
ATOM     20  C   UNL     1      -3.684   1.421   2.910  0.00  0.00    +0.095 A 
ATOM     21  C   UNL     1      -2.983   1.958   3.977  0.00  0.00    +0.165 A 
BRANCH  16  23
ATOM     22  C   UNL     1       0.213   3.676   4.520  0.00  0.00    +0.277 C 
ATOM     23  O   UNL     1      -1.053   3.081   4.811  0.00  0.00    -0.491 OA
ENDBRANCH  16  23
BRANCH  21  24
ATOM     24  O   UNL     1      -3.506   1.905   5.231  0.00  0.00    -0.491 OA
ATOM     25  C   UNL     1      -4.783   1.280   5.375  0.00  0.00    +0.277 C 
ENDBRANCH  21  24
BRANCH  19  26
ATOM     26  O   UNL     1      -3.836   0.950   0.584  0.00  0.00    -0.495 OA
ATOM     27  C   UNL     1      -5.103   0.354   0.872  0.00  0.00    +0.277 C 
ENDBRANCH  19  26
ENDBRANCH   1  18
BRANCH  14  28
ATOM     28  N   UNL     1       0.231   5.449  -0.723  0.00  0.00    -0.328 N 
ATOM     29  H   UNL     1       1.107   5.866  -0.718  0.00  0.00    +0.145 HD
ATOM     30  H   UNL     1      -0.548   5.962  -0.988  0.00  0.00    +0.145 HD
ENDBRANCH  14  28
BRANCH  15  31
ATOM     31  C   UNL     1      -2.267   4.352  -0.764  0.00  0.00    +0.101 C 
ATOM     32  N   UNL     1      -3.164   4.973  -1.078  0.00  0.00    -0.191 NA
ENDBRANCH  15  31
TORSDOF 6
