REMARK  Name = ZINC66195107
REMARK  7 active torsions:
REMARK  status: ('A' for Active; 'I' for Inactive)
REMARK    1  A    between atoms: C_1  and  C_2
REMARK    2  A    between atoms: C_7  and  N_8
REMARK    3  A    between atoms: C_11  and  C_14
REMARK    4  A    between atoms: C_14  and  N_15
REMARK    5  A    between atoms: N_18  and  C_19
REMARK    6  A    between atoms: C_19  and  C_20
REMARK    7  A    between atoms: C_22  and  C_25
REMARK                            x       y       z     vdW  Elec       q    Type
REMARK                         _______ _______ _______ _____ _____    ______ ____
ROOT
ATOM      1  C   UNL     1       1.646   0.763   5.618  0.00  0.00    +0.110 C 
ENDROOT
BRANCH   1   2
ATOM      2  N   UNL     1       1.162   1.434   6.827  0.00  0.00    -0.299 N 
ATOM      3  C   UNL     1       1.810   1.266   7.997  0.00  0.00    +0.300 C 
ATOM      4  O   UNL     1       2.796   0.558   8.049  0.00  0.00    -0.253 OA
ATOM      5  N   UNL     1       1.364   1.884   9.109  0.00  0.00    -0.291 N 
ATOM      6  H   UNL     1       0.375   2.000   6.785  0.00  0.00    +0.150 HD
ATOM      7  H   UNL     1       0.577   2.450   9.067  0.00  0.00    +0.151 HD
BRANCH   5   8
ATOM      8  C   UNL     1       2.068   1.702  10.380  0.00  0.00    +0.204 C 
BRANCH   8   9
ATOM      9  C   UNL     1       1.373   2.493  11.458  0.00  0.00    +0.245 A 
ATOM     10  N   UNL     1       0.413   2.058  12.226  0.00  0.00    -0.195 NA
ATOM     11  C   UNL     1       0.028   3.023  13.070  0.00  0.00    +0.169 A 
ATOM     12  N   UNL     1       0.743   4.088  12.847  0.00  0.00    -0.062 NA
ATOM     13  O   UNL     1       1.638   3.761  11.795  0.00  0.00    -0.336 OA
ATOM     14  C   UNL     1      -1.056   2.896  14.109  0.00  0.00    +0.091 C 
ENDBRANCH   8   9
ENDBRANCH   5   8
ENDBRANCH   1   2
BRANCH   1  18
ATOM     15  N   UNL     1       0.026  -0.016   2.415  0.00  0.00    -0.329 N 
ATOM     16  C   UNL     1      -1.171   0.387   3.177  0.00  0.00    +0.105 C 
ATOM     17  C   UNL     1      -0.681   0.525   4.640  0.00  0.00    +0.025 C 
ATOM     18  C   UNL     1       0.739   1.119   4.439  0.00  0.00    +0.025 C 
ATOM     19  C   UNL     1       1.222   0.423   3.149  0.00  0.00    +0.110 C 
BRANCH  15  26
ATOM     20  C   UNL     1      -0.018   1.503   0.010  0.00  0.00    +0.045 C 
ATOM     21  C   UNL     1       0.002  -0.004   0.002  0.00  0.00    -0.029 A 
ATOM     22  C   UNL     1       0.006  -0.689  -1.198  0.00  0.00    +0.006 A 
ATOM     23  C   UNL     1       0.024  -2.071  -1.207  0.00  0.00    +0.020 A 
ATOM     24  C   UNL     1       0.040  -2.774  -0.014  0.00  0.00    +0.043 A 
ATOM     25  C   UNL     1       0.035  -2.095   1.189  0.00  0.00    +0.043 A 
ATOM     26  C   UNL     1       0.023  -0.706   1.201  0.00  0.00    +0.034 A 
ATOM     27 CL   UNL     1       0.063  -4.509  -0.031  0.00  0.00    -0.083 Cl
ENDBRANCH  15  26
ENDBRANCH   1  18
TORSDOF 5
