REMARK  Name = ZINC01820056
REMARK  10 active torsions:
REMARK  status: ('A' for Active; 'I' for Inactive)
REMARK    1  A    between atoms: C_1  and  C_2
REMARK    2  A    between atoms: C_8  and  C_38
REMARK    3  A    between atoms: C_9  and  O_37
REMARK    4  A    between atoms: C_19  and  C_21
REMARK    5  A    between atoms: C_21  and  N_22
REMARK    6  A    between atoms: N_22  and  C_23
REMARK    7  A    between atoms: C_23  and  C_24
REMARK    8  A    between atoms: C_24  and  C_25
REMARK    9  A    between atoms: C_32  and  O_35
REMARK   10  A    between atoms: O_35  and  C_36
REMARK                            x       y       z     vdW  Elec       q    Type
REMARK                         _______ _______ _______ _____ _____    ______ ____
ROOT
ATOM      1  C   UNL     1      -0.019   1.519   0.010  0.00  0.00    +0.008 C 
ATOM      2  C   UNL     1       0.002  -0.004   0.002  0.00  0.00    -0.001 C 
ATOM      3  C   UNL     1      -1.420  -0.553  -0.057  0.00  0.00    +0.008 C 
ATOM      4  C   UNL     1      -1.332  -2.070  -0.273  0.00  0.00    +0.027 C 
ATOM      5  C   UNL     1      -0.509  -2.658   0.839  0.00  0.00    -0.027 C 
ATOM      6  C   UNL     1       0.410  -1.992   1.468  0.00  0.00    -0.061 C 
ATOM      7  C   UNL     1       0.780  -0.559   1.182  0.00  0.00    +0.018 C 
ATOM      8  C   UNL     1       0.574   0.240   2.459  0.00  0.00    +0.132 C 
ATOM      9  C   UNL     1       1.073  -0.380   3.725  0.00  0.00    +0.071 C 
ATOM     10  C   UNL     1       0.976  -1.901   3.886  0.00  0.00    +0.187 C 
ATOM     11  C   UNL     1       1.181  -2.669   2.579  0.00  0.00    +0.076 C 
ATOM     12  O   UNL     1       2.129  -2.242   4.708  0.00  0.00    -0.460 OA
ATOM     13  C   UNL     1       3.119  -1.375   4.402  0.00  0.00    +0.309 C 
ATOM     14  O   UNL     1       4.286  -1.620   4.260  0.00  0.00    -0.251 OA
ATOM     15  C   UNL     1       2.446  -0.013   4.272  0.00  0.00    +0.090 C 
ATOM     16  C   UNL     1       2.258  -0.532   0.775  0.00  0.00    +0.018 C 
ENDROOT
BRANCH   8  17
ATOM     17  O   UNL     1      -0.841   0.459   2.640  0.00  0.00    -0.391 OA
ATOM     18  H   UNL     1      -1.062   0.964   3.435  0.00  0.00    +0.210 HD
ENDBRANCH   8  17
BRANCH  15  19
ATOM     19  C   UNL     1       3.269   0.939   3.422  0.00  0.00    -0.067 C 
BRANCH  19  20
ATOM     20  N   UNL     1       4.506   1.286   4.135  0.00  0.00    +0.380 N 
ATOM     21  H   UNL     1       4.276   1.731   5.011  0.00  0.00    -0.086 HD
ATOM     22  H   UNL     1       5.039   0.448   4.313  0.00  0.00    -0.086 HD
BRANCH  20  23
ATOM     23  C   UNL     1       5.302   2.207   3.313  0.00  0.00    -0.078 C 
BRANCH  23  24
ATOM     24  C   UNL     1       6.590   2.570   4.055  0.00  0.00    +0.018 C 
BRANCH  24  25
ATOM     25  C   UNL     1       7.407   3.514   3.212  0.00  0.00    -0.024 A 
ATOM     26  C   UNL     1       8.400   3.180   2.373  0.00  0.00    +0.087 A 
ATOM     27  N   UNL     1       8.909   4.303   1.780  0.00  0.00    -0.360 N 
ATOM     28  H   UNL     1       9.633   4.314   1.135  0.00  0.00    +0.165 HD
ATOM     29  C   UNL     1       8.237   5.418   2.236  0.00  0.00    +0.047 A 
ATOM     30  C   UNL     1       7.264   4.971   3.148  0.00  0.00    +0.006 A 
ATOM     31  C   UNL     1       6.420   5.890   3.775  0.00  0.00    +0.056 A 
ATOM     32  C   UNL     1       6.545   7.235   3.490  0.00  0.00    +0.121 A 
ATOM     33  C   UNL     1       7.506   7.675   2.584  0.00  0.00    +0.047 A 
ATOM     34  C   UNL     1       8.350   6.778   1.966  0.00  0.00    +0.030 A 
BRANCH  32  35
ATOM     35  O   UNL     1       5.725   8.135   4.096  0.00  0.00    -0.495 OA
ATOM     36  C   UNL     1       5.907   9.511   3.756  0.00  0.00    +0.277 C 
ENDBRANCH  32  35
ENDBRANCH  24  25
ENDBRANCH  23  24
ENDBRANCH  20  23
ENDBRANCH  19  20
ENDBRANCH  15  19
TORSDOF 7
