REMARK  Name = ZINC39935158
REMARK  4 active torsions:
REMARK  status: ('A' for Active; 'I' for Inactive)
REMARK    1  A    between atoms: C_4  and  C_7
REMARK    2  A    between atoms: C_7  and  S_8
REMARK    3  A    between atoms: S_8  and  C_9
REMARK    4  A    between atoms: C_22  and  C_25
REMARK                            x       y       z     vdW  Elec       q    Type
REMARK                         _______ _______ _______ _____ _____    ______ ____
ROOT
ATOM      1  C   UNL     1       5.781  -1.859   1.487  0.00  0.00    +0.213 A 
ATOM      2  N   UNL     1       6.457  -2.240   2.567  0.00  0.00    -0.184 NA
ATOM      3  C   UNL     1       7.601  -2.886   2.420  0.00  0.00    +0.248 A 
ATOM      4  C   UNL     1       8.071  -3.146   1.113  0.00  0.00    +0.156 A 
ATOM      5  N   UNL     1       7.348  -2.742   0.079  0.00  0.00    -0.141 NA
ATOM      6  N   UNL     1       6.235  -2.122   0.268  0.00  0.00    -0.122 NA
ATOM      7  C   UNL     1       9.355  -3.852   0.926  0.00  0.00    +0.028 A 
ATOM      8  C   UNL     1       9.477  -4.919   0.044  0.00  0.00    +0.012 A 
ATOM      9  C   UNL     1      10.699  -5.544  -0.112  0.00  0.00    +0.001 A 
ATOM     10  C   UNL     1      11.803  -5.113   0.604  0.00  0.00    +0.002 A 
ATOM     11  C   UNL     1      11.695  -4.056   1.489  0.00  0.00    +0.023 A 
ATOM     12  C   UNL     1      10.477  -3.425   1.661  0.00  0.00    +0.039 A 
ATOM     13  N   UNL     1      10.322  -2.377   2.573  0.00  0.00    -0.307 N 
ATOM     14  C   UNL     1       9.527  -2.603   3.776  0.00  0.00    +0.288 C 
ATOM     15  O   UNL     1       8.321  -3.300   3.489  0.00  0.00    -0.450 OA
ATOM     16  H   UNL     1      10.737  -1.515   2.410  0.00  0.00    +0.150 HD
ENDROOT
BRANCH  14  17
ATOM     17  C   UNL     1      10.351  -3.422   4.772  0.00  0.00    +0.162 C 
ATOM     18  C   UNL     1       9.621  -3.529   6.093  0.00  0.00    +0.004 C 
ATOM     19  C   UNL     1      10.415  -2.957   6.996  0.00  0.00    +0.015 C 
ATOM     20  C   UNL     1      11.633  -2.478   6.342  0.00  0.00    +0.078 C 
ATOM     21  N   UNL     1      11.613  -2.736   5.075  0.00  0.00    -0.379 N 
ATOM     22  H   UNL     1      12.309  -2.514   4.436  0.00  0.00    +0.160 HD
ENDBRANCH  14  17
BRANCH   1  23
ATOM     23  S   UNL     1       4.256  -0.997   1.677  0.00  0.00    -0.080 S 
BRANCH  23  24
ATOM     24  C   UNL     1       3.707  -0.697  -0.025  0.00  0.00    +0.112 C 
BRANCH  24  28
ATOM     25  C   UNL     1      -0.013   1.403   0.027  0.00  0.00    +0.000 A 
ATOM     26  C   UNL     1       1.177   2.106   0.013  0.00  0.00    +0.000 A 
ATOM     27  C   UNL     1       2.381   1.426  -0.003  0.00  0.00    +0.004 A 
ATOM     28  C   UNL     1       2.394   0.044  -0.006  0.00  0.00    -0.037 A 
ATOM     29  C   UNL     1       1.204  -0.659   0.008  0.00  0.00    +0.004 A 
ATOM     30  C   UNL     1       0.000   0.020   0.024  0.00  0.00    +0.000 A 
ENDBRANCH  24  28
ENDBRANCH  23  24
ENDBRANCH   1  23
TORSDOF 4
