REMARK  Name = ZINC40350319
REMARK  6 active torsions:
REMARK  status: ('A' for Active; 'I' for Inactive)
REMARK    1  A    between atoms: C_1  and  C_2
REMARK    2  A    between atoms: C_5  and  O_16
REMARK    3  A    between atoms: C_6  and  C_8
REMARK    4  A    between atoms: N_10  and  C_11
REMARK    5  A    between atoms: C_11  and  C_13
REMARK    6  A    between atoms: C_11  and  C_14
REMARK                            x       y       z     vdW  Elec       q    Type
REMARK                         _______ _______ _______ _____ _____    ______ ____
ROOT
ATOM      1  C   UNL     1      -0.018   1.503   0.010  0.00  0.00    +0.044 C 
ATOM      2  C   UNL     1       0.002  -0.004   0.002  0.00  0.00    -0.050 A 
ATOM      3  C   UNL     1       0.006  -0.687  -1.203  0.00  0.00    +0.007 A 
ATOM      4  C   UNL     1       0.024  -2.067  -1.224  0.00  0.00    +0.046 A 
ATOM      5  C   UNL     1       0.040  -2.780  -0.034  0.00  0.00    +0.129 A 
ATOM      6  C   UNL     1       0.037  -2.093   1.187  0.00  0.00    +0.078 A 
ATOM      7  C   UNL     1       0.023  -0.696   1.193  0.00  0.00    +0.020 A 
ENDROOT
BRANCH   6   8
ATOM      8  C   UNL     1       0.053  -2.841   2.459  0.00  0.00    +0.249 C 
ATOM      9  O   UNL     1       0.070  -4.056   2.449  0.00  0.00    -0.270 OA
ATOM     10  N   UNL     1       0.050  -2.176   3.631  0.00  0.00    -0.296 N 
ATOM     11  H   UNL     1       0.037  -1.206   3.639  0.00  0.00    +0.150 HD
BRANCH  10  12
ATOM     12  C   UNL     1       0.067  -2.918   4.894  0.00  0.00    +0.173 C 
ATOM     13  C   UNL     1       1.511  -3.265   5.263  0.00  0.00    +0.044 C 
BRANCH  12  14
ATOM     14  C   UNL     1      -0.526  -2.091   5.958  0.00  0.00    +0.085 C 
ATOM     15  N   UNL     1      -0.983  -1.452   6.778  0.00  0.00    -0.195 NA
ENDBRANCH  12  14
ENDBRANCH  10  12
ENDBRANCH   6   8
BRANCH   5  16
ATOM     16  O   UNL     1       0.058  -4.137  -0.053  0.00  0.00    -0.506 OA
ATOM     17  H   UNL     1       0.947  -4.518  -0.063  0.00  0.00    +0.292 HD
ENDBRANCH   5  16
TORSDOF 4
