REMARK  Name = ZINC41640431
REMARK  8 active torsions:
REMARK  status: ('A' for Active; 'I' for Inactive)
REMARK    1  A    between atoms: C_1  and  C_2
REMARK    2  A    between atoms: C_2  and  O_3
REMARK    3  A    between atoms: O_3  and  C_4
REMARK    4  A    between atoms: C_7  and  N_13
REMARK    5  A    between atoms: C_8  and  N_10
REMARK    6  A    between atoms: N_13  and  C_14
REMARK    7  A    between atoms: C_14  and  C_16
REMARK    8  A    between atoms: C_14  and  C_17
REMARK                            x       y       z     vdW  Elec       q    Type
REMARK                         _______ _______ _______ _____ _____    ______ ____
ROOT
ATOM      1  C   UNL     1      -1.476  -1.875  -0.247  0.00  0.00    +0.123 A 
ATOM      2  C   UNL     1      -0.384  -2.687   0.019  0.00  0.00    +0.047 A 
ATOM      3  C   UNL     1      -0.567  -4.033   0.268  0.00  0.00    +0.029 A 
ATOM      4  C   UNL     1      -1.846  -4.573   0.250  0.00  0.00    +0.058 A 
ATOM      5  C   UNL     1      -2.939  -3.760  -0.016  0.00  0.00    +0.150 A 
ATOM      6  C   UNL     1      -2.754  -2.413  -0.259  0.00  0.00    +0.080 A 
ENDROOT
BRANCH   5   7
ATOM      7  N   UNL     1      -4.303  -4.335  -0.035  0.00  0.00    +0.058 N 
ATOM      8  O   UNL     1      -4.487  -5.440  -0.490  0.00  0.00    -0.126 OA
ATOM      9  O   UNL     1      -5.233  -3.700   0.405  0.00  0.00    -0.126 OA
ENDBRANCH   5   7
BRANCH   4  10
ATOM     10  N   UNL     1      -2.033  -5.937   0.501  0.00  0.00    -0.336 N 
ATOM     11  H   UNL     1      -2.931  -6.299   0.571  0.00  0.00    +0.147 HD
BRANCH  10  12
ATOM     12  C   UNL     1      -0.874  -6.819   0.659  0.00  0.00    +0.098 C 
ATOM     13  C   UNL     1      -0.398  -7.287  -0.718  0.00  0.00    +0.033 C 
BRANCH  12  14
ATOM     14  C   UNL     1      -1.261  -8.015   1.490  0.00  0.00    -0.025 A 
ATOM     15  C   UNL     1      -2.490  -8.632   1.316  0.00  0.00    +0.025 A 
ATOM     16  C   UNL     1      -2.811  -9.726   2.096  0.00  0.00    +0.111 A 
ATOM     17  N   UNL     1      -1.964 -10.183   2.998  0.00  0.00    -0.263 NA
ATOM     18  C   UNL     1      -0.787  -9.621   3.191  0.00  0.00    +0.111 A 
ATOM     19  C   UNL     1      -0.395  -8.527   2.443  0.00  0.00    +0.025 A 
ENDBRANCH  12  14
ENDBRANCH  10  12
ENDBRANCH   4  10
BRANCH   1  20
ATOM     20  O   UNL     1      -1.294  -0.549  -0.491  0.00  0.00    -0.492 OA
BRANCH  20  22
ATOM     21  C   UNL     1       0.054   1.439  -0.757  0.00  0.00    +0.048 C 
ATOM     22  C   UNL     1       0.049  -0.062  -0.462  0.00  0.00    +0.225 C 
ENDBRANCH  20  22
ENDBRANCH   1  20
TORSDOF 6
