REMARK  Name = ZINC24956272
REMARK  12 active torsions:
REMARK  status: ('A' for Active; 'I' for Inactive)
REMARK    1  A    between atoms: C_1  and  C_2
REMARK    2  A    between atoms: C_2  and  C_3
REMARK    3  A    between atoms: C_3  and  C_4
REMARK    4  A    between atoms: C_4  and  N_5
REMARK    5  A    between atoms: C_6  and  N_30
REMARK    6  A    between atoms: C_7  and  N_14
REMARK    7  A    between atoms: N_14  and  C_15
REMARK    8  A    between atoms: N_14  and  C_17
REMARK    9  A    between atoms: C_15  and  C_16
REMARK   10  A    between atoms: C_17  and  C_18
REMARK   11  A    between atoms: C_21  and  C_27
REMARK   12  A    between atoms: C_23  and  N_24
REMARK                            x       y       z     vdW  Elec       q    Type
REMARK                         _______ _______ _______ _____ _____    ______ ____
ROOT
ATOM      1  N   UNL     1       3.120   0.816   1.472  0.00  0.00    -0.319 N 
ENDROOT
BRANCH   1   4
ATOM      2  N   UNL     1       5.639  -1.850   1.600  0.00  0.00    -0.280 N 
ATOM      3  C   UNL     1       4.493  -1.134   1.860  0.00  0.00    +0.127 A 
ATOM      4  C   UNL     1       4.289   0.060   1.222  0.00  0.00    +0.134 A 
ATOM      5  C   UNL     1       5.257   0.522   0.312  0.00  0.00    +0.277 A 
ATOM      6  O   UNL     1       5.094   1.580  -0.272  0.00  0.00    -0.266 OA
ATOM      7  N   UNL     1       6.367  -0.210   0.093  0.00  0.00    -0.273 N 
ATOM      8  H   UNL     1       7.132   0.149  -0.610  0.00  0.00    +0.173 HD
ATOM      9  C   UNL     1       6.551  -1.382   0.728  0.00  0.00    +0.331 A 
ATOM     10  O   UNL     1       7.558  -2.028   0.510  0.00  0.00    -0.246 OA
BRANCH   3  11
ATOM     11  N   UNL     1       3.562  -1.613   2.752  0.00  0.00    -0.343 N 
ATOM     12  H   UNL     1       2.647  -1.037   2.955  0.00  0.00    +0.144 HD
ATOM     13  H   UNL     1       3.731  -2.573   3.261  0.00  0.00    +0.144 HD
ENDBRANCH   3  11
BRANCH   2  14
ATOM     14  C   UNL     1       5.868  -3.129   2.276  0.00  0.00    +0.128 C 
BRANCH  14  15
ATOM     15  C   UNL     1       5.274  -4.263   1.438  0.00  0.00    +0.021 C 
BRANCH  15  17
ATOM     16  C   UNL     1       4.919  -6.732   1.306  0.00  0.00    +0.004 C 
ATOM     17  C   UNL     1       5.513  -5.599   2.144  0.00  0.00    -0.002 C 
ENDBRANCH  15  17
ENDBRANCH  14  15
ENDBRANCH   2  14
ENDBRANCH   1   4
BRANCH   1  18
ATOM     18  C   UNL     1       3.449   2.105   2.094  0.00  0.00    +0.102 C 
ATOM     19  C   UNL     1       3.900   1.874   3.537  0.00  0.00    +0.024 C 
ENDBRANCH   1  18
BRANCH   1  20
ATOM     20  C   UNL     1       2.345   1.009   0.238  0.00  0.00    +0.142 C 
BRANCH  20  21
ATOM     21  C   UNL     1       0.954   1.473   0.586  0.00  0.00    -0.000 A 
ATOM     22  C   UNL     1       0.602   2.798   0.394  0.00  0.00    +0.008 A 
ATOM     23  C   UNL     1      -0.667   3.231   0.716  0.00  0.00    +0.013 A 
ATOM     24  C   UNL     1      -1.601   2.327   1.226  0.00  0.00    +0.039 A 
ATOM     25  C   UNL     1      -1.239   0.993   1.418  0.00  0.00    +0.046 A 
ATOM     26  C   UNL     1       0.035   0.574   1.097  0.00  0.00    +0.132 A 
BRANCH  24  27
ATOM     27  C   UNL     1      -2.965   2.783   1.568  0.00  0.00    +0.242 C 
ATOM     28  O   UNL     1      -3.775   1.995   2.017  0.00  0.00    -0.270 OA
ATOM     29  N   UNL     1      -3.311   4.072   1.382  0.00  0.00    -0.325 N 
ATOM     30  H   UNL     1      -4.326   4.411   1.636  0.00  0.00    +0.145 HD
ATOM     31  H   UNL     1      -2.579   4.785   0.976  0.00  0.00    +0.145 HD
ENDBRANCH  24  27
BRANCH  26  32
ATOM     32  N   UNL     1       0.421  -0.841   1.298  0.00  0.00    +0.057 N 
ATOM     33  O   UNL     1      -0.352  -1.611   1.840  0.00  0.00    -0.126 OA
ATOM     34  O   UNL     1       1.510  -1.235   0.922  0.00  0.00    -0.126 OA
ENDBRANCH  26  32
ENDBRANCH  20  21
ENDBRANCH   1  20
TORSDOF 10
