REMARK  Name = ZINC24956410
REMARK  15 active torsions:
REMARK  status: ('A' for Active; 'I' for Inactive)
REMARK    1  A    between atoms: C_1  and  C_2
REMARK    2  A    between atoms: C_2  and  C_3
REMARK    3  A    between atoms: C_3  and  C_4
REMARK    4  A    between atoms: C_4  and  N_5
REMARK    5  A    between atoms: C_6  and  N_32
REMARK    6  A    between atoms: C_7  and  N_14
REMARK    7  A    between atoms: N_14  and  C_15
REMARK    8  A    between atoms: N_14  and  C_17
REMARK    9  A    between atoms: C_15  and  C_16
REMARK   10  A    between atoms: C_17  and  C_18
REMARK   11  A    between atoms: N_20  and  C_21
REMARK   12  A    between atoms: C_21  and  C_23
REMARK   13  A    between atoms: C_21  and  C_29
REMARK   14  A    between atoms: C_29  and  C_30
REMARK   15  A    between atoms: C_29  and  C_31
REMARK                            x       y       z     vdW  Elec       q    Type
REMARK                         _______ _______ _______ _____ _____    ______ ____
ROOT
ATOM      1  N   UNL     1      -1.379  -4.789  -2.390  0.00  0.00    -0.315 N 
ENDROOT
BRANCH   1   4
ATOM      2  N   UNL     1      -1.665  -1.670  -0.477  0.00  0.00    -0.280 N 
ATOM      3  C   UNL     1      -1.517  -2.532  -1.540  0.00  0.00    +0.127 A 
ATOM      4  C   UNL     1      -1.534  -3.882  -1.317  0.00  0.00    +0.134 A 
ATOM      5  C   UNL     1      -1.712  -4.354  -0.004  0.00  0.00    +0.277 A 
ATOM      6  O   UNL     1      -1.734  -5.553   0.220  0.00  0.00    -0.266 OA
ATOM      7  N   UNL     1      -1.858  -3.474   1.006  0.00  0.00    -0.273 N 
ATOM      8  H   UNL     1      -1.997  -3.836   2.035  0.00  0.00    +0.173 HD
ATOM      9  C   UNL     1      -1.835  -2.150   0.769  0.00  0.00    +0.331 A 
ATOM     10  O   UNL     1      -1.968  -1.373   1.696  0.00  0.00    -0.246 OA
BRANCH   3  11
ATOM     11  N   UNL     1      -1.350  -2.041  -2.814  0.00  0.00    -0.343 N 
ATOM     12  H   UNL     1      -1.232  -2.734  -3.660  0.00  0.00    +0.144 HD
ATOM     13  H   UNL     1      -1.334  -0.955  -2.987  0.00  0.00    +0.144 HD
ENDBRANCH   3  11
BRANCH   2  14
ATOM     14  C   UNL     1      -1.645  -0.223  -0.704  0.00  0.00    +0.128 C 
BRANCH  14  15
ATOM     15  C   UNL     1      -0.209   0.291  -0.585  0.00  0.00    +0.021 C 
BRANCH  15  17
ATOM     16  C   UNL     1       1.248   2.317  -0.703  0.00  0.00    +0.004 C 
ATOM     17  C   UNL     1      -0.188   1.803  -0.822  0.00  0.00    -0.002 C 
ENDBRANCH  15  17
ENDBRANCH  14  15
ENDBRANCH   2  14
ENDBRANCH   1   4
BRANCH   1  18
ATOM     18  C   UNL     1      -0.150  -5.580  -2.238  0.00  0.00    +0.102 C 
ATOM     19  C   UNL     1       1.060  -4.717  -2.598  0.00  0.00    +0.024 C 
ENDBRANCH   1  18
BRANCH   1  20
ATOM     20  C   UNL     1      -2.554  -5.661  -2.517  0.00  0.00    +0.201 C 
BRANCH  20  21
ATOM     21  C   UNL     1      -2.550  -6.317  -3.874  0.00  0.00    +0.231 C 
ATOM     22  O   UNL     1      -1.720  -5.997  -4.699  0.00  0.00    -0.274 OA
ATOM     23  N   UNL     1      -3.468  -7.258  -4.170  0.00  0.00    -0.307 N 
ATOM     24  H   UNL     1      -4.220  -7.548  -3.422  0.00  0.00    +0.149 HD
BRANCH  23  25
ATOM     25  C   UNL     1      -3.463  -7.895  -5.489  0.00  0.00    +0.106 C 
BRANCH  25  26
ATOM     26  C   UNL     1      -4.107  -9.255  -5.393  0.00  0.00    -0.027 A 
ATOM     27  C   UNL     1      -5.226  -9.435  -4.601  0.00  0.00    +0.005 A 
ATOM     28  C   UNL     1      -5.819 -10.681  -4.516  0.00  0.00    +0.000 A 
ATOM     29  C   UNL     1      -5.287 -11.748  -5.215  0.00  0.00    +0.000 A 
ATOM     30  C   UNL     1      -4.166 -11.569  -6.003  0.00  0.00    +0.000 A 
ATOM     31  C   UNL     1      -3.575 -10.322  -6.091  0.00  0.00    +0.005 A 
ENDBRANCH  25  26
BRANCH  25  32
ATOM     32  C   UNL     1      -4.247  -7.029  -6.477  0.00  0.00    +0.008 C 
ATOM     33  C   UNL     1      -4.243  -7.694  -7.855  0.00  0.00    +0.009 C 
ATOM     34  C   UNL     1      -5.689  -6.877  -5.989  0.00  0.00    +0.009 C 
ENDBRANCH  25  32
ENDBRANCH  23  25
ENDBRANCH  20  21
ENDBRANCH   1  20
TORSDOF 11
