REMARK  Name = ZINC39960451
REMARK  9 active torsions:
REMARK  status: ('A' for Active; 'I' for Inactive)
REMARK    1  A    between atoms: C_4  and  C_7
REMARK    2  A    between atoms: C_11  and  N_14
REMARK    3  A    between atoms: C_15  and  C_17
REMARK    4  A    between atoms: C_17  and  O_18
REMARK    5  A    between atoms: O_18  and  C_19
REMARK    6  A    between atoms: C_19  and  C_21
REMARK    7  A    between atoms: C_21  and  S_22
REMARK    8  A    between atoms: S_22  and  C_23
REMARK    9  A    between atoms: C_23  and  C_24
REMARK                            x       y       z     vdW  Elec       q    Type
REMARK                         _______ _______ _______ _____ _____    ______ ____
ROOT
ATOM      1  C   UNL     1       4.944  -6.598   1.131  0.00  0.00    +0.327 C 
ENDROOT
BRANCH   1   3
ATOM      2  N   UNL     1       4.399  -4.202   0.851  0.00  0.00    -0.288 N 
ATOM      3  C   UNL     1       5.344  -5.161   0.920  0.00  0.00    +0.252 C 
ATOM      4  O   UNL     1       6.516  -4.867   0.811  0.00  0.00    -0.272 OA
ATOM      5  H   UNL     1       3.462  -4.437   0.937  0.00  0.00    +0.151 HD
BRANCH   2   9
ATOM      6  C   UNL     1       3.711  -0.707  -0.038  0.00  0.00    +0.096 C 
ATOM      7  C   UNL     1       4.032  -1.173  -1.489  0.00  0.00    +0.095 C 
ATOM      8  S   UNL     1       5.251  -2.506  -1.112  0.00  0.00    -0.121 S 
ATOM      9  C   UNL     1       4.788  -2.804   0.645  0.00  0.00    +0.202 C 
ATOM     10  N   UNL     1       3.625  -1.898   0.828  0.00  0.00    -0.282 NA
ATOM     11  H   UNL     1       3.523  -1.634   1.797  0.00  0.00    +0.125 HD
BRANCH   6  15
ATOM     12  C   UNL     1      -0.017   1.378   0.010  0.00  0.00    +0.000 A 
ATOM     13  C   UNL     1       1.171   2.086   0.002  0.00  0.00    +0.000 A 
ATOM     14  C   UNL     1       2.377   1.411  -0.013  0.00  0.00    +0.005 A 
ATOM     15  C   UNL     1       2.396   0.029  -0.020  0.00  0.00    -0.030 A 
ATOM     16  C   UNL     1       1.208  -0.679  -0.012  0.00  0.00    +0.005 A 
ATOM     17  C   UNL     1       0.002  -0.004   0.002  0.00  0.00    +0.000 A 
ENDBRANCH   6  15
ENDBRANCH   2   9
ENDBRANCH   1   3
BRANCH   1  18
ATOM     18  O   UNL     1       6.114  -7.418   1.169  0.00  0.00    -0.455 OA
BRANCH  18  19
ATOM     19  C   UNL     1       5.930  -8.735   1.351  0.00  0.00    +0.317 C 
ATOM     20  O   UNL     1       4.813  -9.177   1.476  0.00  0.00    -0.250 OA
BRANCH  19  21
ATOM     21  C   UNL     1       7.118  -9.662   1.402  0.00  0.00    +0.189 C 
BRANCH  21  22
ATOM     22  S   UNL     1       6.545 -11.364   1.658  0.00  0.00    -0.145 S 
BRANCH  22  23
ATOM     23  C   UNL     1       8.074 -12.340   1.694  0.00  0.00    +0.111 C 
BRANCH  23  24
ATOM     24  C   UNL     1       7.737 -13.793   1.904  0.00  0.00    +0.043 A 
ATOM     25  C   UNL     1       7.816 -14.669   0.879  0.00  0.00    +0.097 A 
ATOM     26  N   UNL     1       7.507 -15.986   1.087  0.00  0.00    -0.314 N 
ATOM     27  H   UNL     1       7.564 -16.615   0.351  0.00  0.00    +0.170 HD
ATOM     28  C   UNL     1       7.125 -16.416   2.304  0.00  0.00    +0.327 A 
ATOM     29  O   UNL     1       6.855 -17.590   2.466  0.00  0.00    -0.247 OA
ATOM     30  N   UNL     1       7.038 -15.565   3.343  0.00  0.00    -0.275 N 
ATOM     31  H   UNL     1       6.761 -15.892   4.213  0.00  0.00    +0.173 HD
ATOM     32  C   UNL     1       7.339 -14.261   3.180  0.00  0.00    +0.258 A 
ATOM     33  O   UNL     1       7.266 -13.491   4.121  0.00  0.00    -0.267 OA
ENDBRANCH  23  24
ENDBRANCH  22  23
ENDBRANCH  21  22
ENDBRANCH  19  21
ENDBRANCH  18  19
ENDBRANCH   1  18
TORSDOF 9
