REMARK  Name = ZINC29821169
REMARK  8 active torsions:
REMARK  status: ('A' for Active; 'I' for Inactive)
REMARK    1  A    between atoms: C_4  and  C_7
REMARK    2  A    between atoms: N_11  and  C_15
REMARK    3  A    between atoms: C_15  and  C_16
REMARK    4  A    between atoms: C_16  and  N_17
REMARK    5  A    between atoms: C_18  and  C_20
REMARK    6  A    between atoms: C_20  and  C_21
REMARK    7  A    between atoms: C_21  and  N_22
REMARK    8  A    between atoms: N_25  and  C_26
REMARK                            x       y       z     vdW  Elec       q    Type
REMARK                         _______ _______ _______ _____ _____    ______ ____
ROOT
ATOM      1  N   UNL     1      -0.776   0.898  -0.662  0.00  0.00    -0.314 N 
ATOM      2  C   UNL     1       0.309   0.166  -0.985  0.00  0.00    +0.215 C 
ATOM      3  O   UNL     1       0.193  -1.017  -1.225  0.00  0.00    -0.276 OA
ATOM      4  H   UNL     1      -0.670   1.971  -0.444  0.00  0.00    +0.149 HD
ENDROOT
BRANCH   1   5
ATOM      5  C   UNL     1      -2.095   0.265  -0.602  0.00  0.00    +0.123 C 
BRANCH   5   6
ATOM      6  C   UNL     1      -3.145   1.309  -0.217  0.00  0.00    +0.136 C 
BRANCH   6  11
ATOM      7  C   UNL     1      -7.501  -0.196  -2.052  0.00  0.00    +0.028 C 
ATOM      8  C   UNL     1      -6.535  -0.013  -1.119  0.00  0.00    +0.080 C 
ATOM      9  C   UNL     1      -5.216   0.644  -1.245  0.00  0.00    +0.260 C 
ATOM     10  O   UNL     1      -4.840   1.128  -2.296  0.00  0.00    -0.269 OA
ATOM     11  N   UNL     1      -4.465   0.675  -0.157  0.00  0.00    -0.227 N 
ATOM     12  C   UNL     1      -4.888   0.143   1.007  0.00  0.00    +0.286 C 
ATOM     13  O   UNL     1      -4.307   0.106   2.076  0.00  0.00    -0.262 OA
ATOM     14  S   UNL     1      -6.505  -0.495   0.602  0.00  0.00    -0.026 S 
BRANCH   7  18
ATOM     15  C   UNL     1     -10.885  -2.590  -1.156  0.00  0.00    +0.000 A 
ATOM     16  C   UNL     1     -10.851  -1.858  -2.330  0.00  0.00    +0.001 A 
ATOM     17  C   UNL     1      -9.755  -1.077  -2.628  0.00  0.00    +0.008 A 
ATOM     18  C   UNL     1      -8.674  -1.026  -1.741  0.00  0.00    -0.024 A 
ATOM     19  C   UNL     1      -8.714  -1.775  -0.559  0.00  0.00    +0.008 A 
ATOM     20  C   UNL     1      -9.820  -2.546  -0.273  0.00  0.00    +0.001 A 
ENDBRANCH   7  18
ENDBRANCH   6  11
ENDBRANCH   5   6
ENDBRANCH   1   5
BRANCH   2  21
ATOM     21  C   UNL     1       1.666   0.819  -1.052  0.00  0.00    +0.114 C 
BRANCH  21  22
ATOM     22  C   UNL     1       2.715  -0.224  -1.443  0.00  0.00    +0.115 C 
BRANCH  22  23
ATOM     23  N   UNL     1       4.034   0.410  -1.509  0.00  0.00    -0.299 N 
ATOM     24  C   UNL     1       5.117  -0.320  -1.837  0.00  0.00    +0.300 C 
ATOM     25  O   UNL     1       5.001  -1.506  -2.078  0.00  0.00    -0.253 OA
ATOM     26  N   UNL     1       6.331   0.264  -1.897  0.00  0.00    -0.297 N 
ATOM     27  H   UNL     1       4.139   1.483  -1.290  0.00  0.00    +0.150 HD
ATOM     28  H   UNL     1       6.436   1.337  -1.679  0.00  0.00    +0.151 HD
BRANCH  26  29
ATOM     29  C   UNL     1       7.509  -0.531  -2.254  0.00  0.00    +0.074 C 
ATOM     30  C   UNL     1       8.062  -1.213  -1.001  0.00  0.00    +0.022 C 
ATOM     31  C   UNL     1       9.293  -2.043  -1.373  0.00  0.00    +0.002 C 
ATOM     32  C   UNL     1      10.363  -1.127  -1.970  0.00  0.00    +0.000 C 
ATOM     33  C   UNL     1       9.810  -0.445  -3.223  0.00  0.00    +0.002 C 
ATOM     34  C   UNL     1       8.579   0.385  -2.851  0.00  0.00    +0.022 C 
ENDBRANCH  26  29
ENDBRANCH  22  23
ENDBRANCH  21  22
ENDBRANCH   2  21
TORSDOF 8
