REMARK  Name = ZINC36353970
REMARK  8 active torsions:
REMARK  status: ('A' for Active; 'I' for Inactive)
REMARK    1  A    between atoms: C_1  and  N_2
REMARK    2  A    between atoms: C_19  and  O_33
REMARK    3  A    between atoms: N_20  and  C_21
REMARK    4  A    between atoms: C_21  and  C_22
REMARK    5  A    between atoms: C_22  and  C_24
REMARK    6  A    between atoms: C_22  and  N_30
REMARK    7  A    between atoms: N_30  and  C_31
REMARK    8  A    between atoms: N_30  and  C_32
REMARK                            x       y       z     vdW  Elec       q    Type
REMARK                         _______ _______ _______ _____ _____    ______ ____
ROOT
ATOM      1  C   UNL     1      -0.325   1.294  -0.048  0.00  0.00    +0.138 C 
ATOM      2  N   UNL     1      -0.222  -0.167  -0.010  0.00  0.00    -0.270 N 
ATOM      3  C   UNL     1      -1.310  -1.018   0.062  0.00  0.00    +0.044 A 
ATOM      4  C   UNL     1      -2.672  -0.713   0.114  0.00  0.00    +0.024 A 
ATOM      5  C   UNL     1      -3.557  -1.777   0.184  0.00  0.00    +0.002 A 
ATOM      6  C   UNL     1      -3.125  -3.088   0.203  0.00  0.00    +0.001 A 
ATOM      7  C   UNL     1      -1.772  -3.405   0.153  0.00  0.00    +0.010 A 
ATOM      8  C   UNL     1      -0.886  -2.351   0.083  0.00  0.00    +0.027 A 
ATOM      9  C   UNL     1       0.610  -2.318   0.015  0.00  0.00    +0.215 C 
ATOM     10  C   UNL     1       0.946  -0.842  -0.048  0.00  0.00    +0.269 C 
ATOM     11  O   UNL     1       2.056  -0.357  -0.117  0.00  0.00    -0.270 OA
ATOM     12  N   UNL     1       1.089  -2.984  -1.194  0.00  0.00    -0.352 N 
ATOM     13  C   UNL     1       1.477  -4.248  -1.166  0.00  0.00    +0.050 A 
ATOM     14  C   UNL     1       1.853  -4.932  -2.342  0.00  0.00    +0.026 A 
ATOM     15  C   UNL     1       2.152  -6.257  -2.278  0.00  0.00    +0.002 A 
ATOM     16  C   UNL     1       2.108  -6.963  -1.077  0.00  0.00    +0.001 A 
ATOM     17  C   UNL     1       1.791  -6.354   0.099  0.00  0.00    +0.015 A 
ATOM     18  C   UNL     1       1.509  -4.979   0.108  0.00  0.00    +0.055 A 
ATOM     19  C   UNL     1       1.296  -4.273   1.303  0.00  0.00    +0.192 C 
ATOM     20  N   UNL     1       1.196  -2.912   1.216  0.00  0.00    -0.268 N 
ATOM     21  H   UNL     1       1.123  -2.492  -2.030  0.00  0.00    +0.162 HD
ENDROOT
BRANCH  19  22
ATOM     22  O   UNL     1       1.193  -4.909   2.484  0.00  0.00    -0.495 OA
ATOM     23  H   UNL     1       1.279  -5.870   2.422  0.00  0.00    +0.293 HD
ENDBRANCH  19  22
BRANCH  20  24
ATOM     24  C   UNL     1       1.670  -2.062   2.311  0.00  0.00    +0.100 C 
BRANCH  24  25
ATOM     25  C   UNL     1       0.493  -1.695   3.218  0.00  0.00    -0.021 C 
BRANCH  25  26
ATOM     26  C   UNL     1      -0.011  -2.934   3.912  0.00  0.00    -0.059 A 
ATOM     27  C   UNL     1       0.647  -3.418   5.027  0.00  0.00    +0.002 A 
ATOM     28  C   UNL     1       0.185  -4.555   5.664  0.00  0.00    +0.000 A 
ATOM     29  C   UNL     1      -0.936  -5.207   5.185  0.00  0.00    +0.000 A 
ATOM     30  C   UNL     1      -1.594  -4.723   4.070  0.00  0.00    +0.000 A 
ATOM     31  C   UNL     1      -1.134  -3.584   3.436  0.00  0.00    +0.002 A 
ENDBRANCH  25  26
BRANCH  25  32
ATOM     32  N   UNL     1       0.935  -0.717   4.221  0.00  0.00    +0.382 N 
ATOM     33  C   UNL     1       1.331   0.528   3.550  0.00  0.00    -0.096 C 
ATOM     34  C   UNL     1      -0.166  -0.442   5.154  0.00  0.00    -0.096 C 
ATOM     35  H   UNL     1       1.722  -1.090   4.730  0.00  0.00    -0.082 HD
ENDBRANCH  25  32
ENDBRANCH  24  25
ENDBRANCH  20  24
TORSDOF 5
