REMARK  Name = ZINC39671570
REMARK  5 active torsions:
REMARK  status: ('A' for Active; 'I' for Inactive)
REMARK    1  A    between atoms: C_6  and  C_11
REMARK    2  A    between atoms: C_11  and  N_12
REMARK    3  A    between atoms: C_13  and  C_15
REMARK    4  A    between atoms: C_26  and  C_28
REMARK    5  A    between atoms: C_31  and  C_33
REMARK                            x       y       z     vdW  Elec       q    Type
REMARK                         _______ _______ _______ _____ _____    ______ ____
ROOT
ATOM      1  C   UNL     1      -8.318   0.159   3.116  0.00  0.00    +0.100 C 
ATOM      2  C   UNL     1      -7.918  -1.226   3.673  0.00  0.00    +0.121 C 
ATOM      3  N   UNL     1      -9.070  -1.640   4.508  0.00  0.00    -0.294 N 
ATOM      4  C   UNL     1     -10.259  -1.196   3.742  0.00  0.00    +0.115 C 
ATOM      5  C   UNL     1      -9.855   0.174   3.162  0.00  0.00    -0.004 C 
ATOM      6  C   UNL     1     -10.345   1.297   4.071  0.00  0.00    -0.010 C 
ATOM      7  C   UNL     1     -11.876   1.328   4.057  0.00  0.00    -0.082 C 
ATOM      8  N   UNL     1     -12.350   1.541   2.684  0.00  0.00    +0.379 N 
ATOM      9  C   UNL     1     -11.953   0.410   1.836  0.00  0.00    -0.082 C 
ATOM     10  C   UNL     1     -10.425   0.340   1.757  0.00  0.00    -0.010 C 
ATOM     11  C   UNL     1      -9.043  -2.278   5.695  0.00  0.00    +0.282 C 
ATOM     12  O   UNL     1     -10.084  -2.553   6.262  0.00  0.00    -0.267 OA
ATOM     13  H   UNL     1     -13.356   1.622   2.685  0.00  0.00    -0.086 HD
ATOM     14  H   UNL     1     -11.947   2.391   2.318  0.00  0.00    -0.086 HD
ENDROOT
BRANCH  11  15
ATOM     15  C   UNL     1      -7.760  -2.639   6.303  0.00  0.00    +0.190 A 
ATOM     16  C   UNL     1      -7.590  -3.294   7.503  0.00  0.00    +0.055 A 
ATOM     17  C   UNL     1      -6.211  -3.433   7.695  0.00  0.00    +0.050 A 
ATOM     18  C   UNL     1      -5.597  -2.864   6.617  0.00  0.00    +0.136 A 
ATOM     19  O   UNL     1      -6.539  -2.395   5.782  0.00  0.00    -0.450 OA
BRANCH  18  20
ATOM     20  C   UNL     1      -4.138  -2.784   6.401  0.00  0.00    +0.017 A 
ATOM     21  C   UNL     1      -3.259  -3.322   7.343  0.00  0.00    +0.014 A 
ATOM     22  C   UNL     1      -1.898  -3.245   7.136  0.00  0.00    +0.039 A 
ATOM     23  C   UNL     1      -1.402  -2.633   5.995  0.00  0.00    +0.123 A 
ATOM     24  C   UNL     1      -2.269  -2.096   5.057  0.00  0.00    +0.039 A 
ATOM     25  C   UNL     1      -3.632  -2.173   5.250  0.00  0.00    +0.014 A 
ATOM     26  F   UNL     1      -0.068  -2.560   5.797  0.00  0.00    -0.205 F 
ENDBRANCH  18  20
ENDBRANCH  11  15
BRANCH   1  28
ATOM     27  N   UNL     1      -7.545   1.537   1.213  0.00  0.00    -0.309 N 
ATOM     28  C   UNL     1      -7.835   0.313   1.697  0.00  0.00    +0.219 C 
ATOM     29  O   UNL     1      -7.707  -0.664   0.990  0.00  0.00    -0.275 OA
ATOM     30  H   UNL     1      -7.647   2.319   1.778  0.00  0.00    +0.149 HD
BRANCH  27  31
ATOM     31  C   UNL     1      -7.074   1.687  -0.167  0.00  0.00    +0.157 C 
BRANCH  31  37
ATOM     32  C   UNL     1      -6.586   7.592  -1.554  0.00  0.00    +0.001 A 
ATOM     33  C   UNL     1      -5.322   7.439  -1.003  0.00  0.00    +0.002 A 
ATOM     34  C   UNL     1      -4.912   6.219  -0.511  0.00  0.00    +0.026 A 
ATOM     35  C   UNL     1      -5.774   5.128  -0.565  0.00  0.00    +0.047 A 
ATOM     36  N   UNL     1      -5.665   3.814  -0.169  0.00  0.00    -0.357 N 
ATOM     37  C   UNL     1      -6.823   3.144  -0.456  0.00  0.00    +0.034 A 
ATOM     38  H   UNL     1      -4.884   3.421   0.251  0.00  0.00    +0.166 HD
ATOM     39  C   UNL     1      -7.703   3.978  -1.034  0.00  0.00    +0.032 A 
ATOM     40  C   UNL     1      -7.055   5.289  -1.124  0.00  0.00    -0.000 A 
ATOM     41  C   UNL     1      -7.450   6.535  -1.613  0.00  0.00    +0.010 A 
ENDBRANCH  31  37
ENDBRANCH  27  31
ENDBRANCH   1  28
TORSDOF 5
