REMARK  Name = ZINC47461609
REMARK  6 active torsions:
REMARK  status: ('A' for Active; 'I' for Inactive)
REMARK    1  A    between atoms: C_6  and  O_11
REMARK    2  A    between atoms: O_11  and  C_12
REMARK    3  A    between atoms: C_12  and  C_13
REMARK    4  A    between atoms: C_13  and  N_14
REMARK    5  A    between atoms: C_21  and  S_23
REMARK    6  A    between atoms: S_23  and  N_26
REMARK                            x       y       z     vdW  Elec       q    Type
REMARK                         _______ _______ _______ _____ _____    ______ ____
ROOT
ATOM      1  N   UNL     1       6.938  -4.255   1.165  0.00  0.00    -0.326 N 
ATOM      2  C   UNL     1       7.712  -3.029   1.376  0.00  0.00    +0.110 C 
ATOM      3  C   UNL     1       8.216  -3.114   2.826  0.00  0.00    +0.056 C 
ATOM      4  C   UNL     1       7.670  -4.426   3.341  0.00  0.00    -0.023 A 
ATOM      5  C   UNL     1       6.937  -5.027   2.328  0.00  0.00    +0.033 A 
ATOM      6  C   UNL     1       6.326  -6.258   2.573  0.00  0.00    +0.025 A 
ATOM      7  C   UNL     1       6.448  -6.862   3.807  0.00  0.00    +0.030 A 
ATOM      8  C   UNL     1       7.177  -6.253   4.811  0.00  0.00    +0.105 A 
ATOM      9  C   UNL     1       7.793  -5.037   4.574  0.00  0.00    +0.034 A 
ENDROOT
BRANCH   8  10
ATOM     10  S   UNL     1       7.330  -7.027   6.386  0.00  0.00    +0.056 S 
ATOM     11  O   UNL     1       7.607  -5.994   7.322  0.00  0.00    -0.153 OA
ATOM     12  O   UNL     1       6.214  -7.897   6.520  0.00  0.00    -0.153 OA
BRANCH  10  13
ATOM     13  N   UNL     1       8.676  -7.989   6.330  0.00  0.00    -0.204 NA
ATOM     14  H   UNL     1       9.206  -8.035   5.519  0.00  0.00    +0.144 HD
ATOM     15  H   UNL     1       8.935  -8.507   7.109  0.00  0.00    +0.144 HD
ENDBRANCH  10  13
ENDBRANCH   8  10
BRANCH   1  16
ATOM     16  C   UNL     1       6.260  -4.616  -0.082  0.00  0.00    +0.146 C 
BRANCH  16  17
ATOM     17  C   UNL     1       4.834  -4.062  -0.065  0.00  0.00    +0.248 C 
BRANCH  17  18
ATOM     18  O   UNL     1       4.878  -2.633  -0.059  0.00  0.00    -0.490 OA
BRANCH  18  24
ATOM     19  C   UNL     1      -0.016   1.357   0.009  0.00  0.00    +0.001 A 
ATOM     20  C   UNL     1       1.169   2.091   0.002  0.00  0.00    +0.001 A 
ATOM     21  C   UNL     1       2.378   1.468  -0.013  0.00  0.00    +0.008 A 
ATOM     22  C   UNL     1       2.437   0.063  -0.021  0.00  0.00    -0.014 A 
ATOM     23  C   UNL     1       3.668  -0.614  -0.037  0.00  0.00    +0.054 A 
ATOM     24  C   UNL     1       3.687  -1.980  -0.044  0.00  0.00    +0.121 A 
ATOM     25  C   UNL     1       2.497  -2.714  -0.036  0.00  0.00    +0.046 A 
ATOM     26  C   UNL     1       1.289  -2.088  -0.022  0.00  0.00    +0.012 A 
ATOM     27  C   UNL     1       1.232  -0.683  -0.013  0.00  0.00    -0.018 A 
ATOM     28  C   UNL     1       0.002  -0.004   0.002  0.00  0.00    +0.008 A 
ENDBRANCH  18  24
ENDBRANCH  17  18
ENDBRANCH  16  17
ENDBRANCH   1  16
TORSDOF 6
