REMARK  Name = ZINC12461809
REMARK  6 active torsions:
REMARK  status: ('A' for Active; 'I' for Inactive)
REMARK    1  A    between atoms: C_1  and  C_2
REMARK    2  A    between atoms: C_5  and  S_8
REMARK    3  A    between atoms: S_8  and  N_11
REMARK    4  A    between atoms: C_14  and  C_15
REMARK    5  A    between atoms: C_24  and  N_28
REMARK    6  A    between atoms: C_26  and  N_27
REMARK                            x       y       z     vdW  Elec       q    Type
REMARK                         _______ _______ _______ _____ _____    ______ ____
ROOT
ATOM      1  N   UNL     1       0.212   4.829  -0.585  0.00  0.00    -0.198 N 
ATOM      2  C   UNL     1      -1.183   5.183  -0.861  0.00  0.00    +0.167 C 
ATOM      3  C   UNL     1      -1.974   3.909  -0.664  0.00  0.00    -0.017 C 
ATOM      4  C   UNL     1      -3.300   3.743  -0.806  0.00  0.00    +0.014 C 
ATOM      5  C   UNL     1      -0.982   2.887  -0.282  0.00  0.00    +0.023 A 
ATOM      6  C   UNL     1       0.287   3.479  -0.250  0.00  0.00    +0.063 A 
ATOM      7  C   UNL     1       1.391   2.700   0.088  0.00  0.00    +0.058 A 
ATOM      8  C   UNL     1       1.237   1.361   0.389  0.00  0.00    +0.130 A 
ATOM      9  C   UNL     1      -0.013   0.771   0.360  0.00  0.00    +0.056 A 
ATOM     10  C   UNL     1      -1.127   1.524   0.021  0.00  0.00    +0.036 A 
ENDROOT
BRANCH   4  11
ATOM     11  C   UNL     1      -4.163   4.907  -1.071  0.00  0.00    -0.025 A 
ATOM     12  C   UNL     1      -3.596   6.159  -1.323  0.00  0.00    +0.008 A 
ATOM     13  C   UNL     1      -4.411   7.243  -1.575  0.00  0.00    +0.001 A 
ATOM     14  C   UNL     1      -5.787   7.095  -1.569  0.00  0.00    +0.000 A 
ATOM     15  C   UNL     1      -6.356   5.859  -1.317  0.00  0.00    +0.001 A 
ATOM     16  C   UNL     1      -5.554   4.765  -1.068  0.00  0.00    +0.008 A 
ENDBRANCH   4  11
BRANCH   1  17
ATOM     17  S   UNL     1       1.498   5.870  -0.660  0.00  0.00    +0.075 S 
ATOM     18  O   UNL     1       0.973   7.177  -0.474  0.00  0.00    -0.150 OA
ATOM     19  O   UNL     1       2.509   5.328   0.180  0.00  0.00    -0.150 OA
BRANCH  17  24
ATOM     20  C   UNL     1       3.641   5.656  -6.296  0.00  0.00    +0.044 C 
ATOM     21  C   UNL     1       3.106   5.710  -4.888  0.00  0.00    -0.050 A 
ATOM     22  C   UNL     1       2.122   6.623  -4.557  0.00  0.00    +0.005 A 
ATOM     23  C   UNL     1       1.631   6.672  -3.266  0.00  0.00    +0.029 A 
ATOM     24  C   UNL     1       2.124   5.808  -2.306  0.00  0.00    +0.109 A 
ATOM     25  C   UNL     1       3.111   4.898  -2.636  0.00  0.00    +0.029 A 
ATOM     26  C   UNL     1       3.599   4.846  -3.928  0.00  0.00    +0.005 A 
ENDBRANCH  17  24
ENDBRANCH   1  17
BRANCH  10  27
ATOM     27  N   UNL     1      -2.387   0.930  -0.015  0.00  0.00    -0.357 N 
ATOM     28  H   UNL     1      -2.545   0.097   0.456  0.00  0.00    +0.142 HD
ATOM     29  H   UNL     1      -3.107   1.350  -0.512  0.00  0.00    +0.142 HD
ENDBRANCH  10  27
BRANCH   8  30
ATOM     30  N   UNL     1       2.423   0.549   0.746  0.00  0.00    +0.057 N 
ATOM     31  O   UNL     1       2.294  -0.632   1.013  0.00  0.00    -0.126 OA
ATOM     32  O   UNL     1       3.527   1.063   0.774  0.00  0.00    -0.126 OA
ENDBRANCH   8  30
TORSDOF 5
