REMARK  Name = ZINC19079786
REMARK  4 active torsions:
REMARK  status: ('A' for Active; 'I' for Inactive)
REMARK    1  A    between atoms: C_1  and  C_2
REMARK    2  A    between atoms: C_2  and  C_4
REMARK    3  A    between atoms: C_2  and  N_8
REMARK    4  A    between atoms: N_6  and  C_7
REMARK                            x       y       z     vdW  Elec       q    Type
REMARK                         _______ _______ _______ _____ _____    ______ ____
ROOT
ATOM      1  N   UNL     1      -0.186   2.902   1.627  0.00  0.00    -0.290 N 
ATOM      2  C   UNL     1      -0.711   1.570   1.277  0.00  0.00    +0.112 C 
ATOM      3  C   UNL     1      -0.013   1.086   0.008  0.00  0.00    +0.064 C 
ATOM      4  C   UNL     1      -0.733   1.582  -1.238  0.00  0.00    +0.101 C 
ATOM      5  C   UNL     1      -0.663   3.091  -1.413  0.00  0.00    +0.055 C 
ATOM      6  C   UNL     1      -1.432   3.808  -0.303  0.00  0.00    +0.100 C 
ATOM      7  C   UNL     1      -0.517   3.965   0.894  0.00  0.00    +0.216 C 
ATOM      8  O   UNL     1      -0.086   5.060   1.188  0.00  0.00    -0.276 OA
ATOM      9  N   UNL     1      -2.153   1.187  -1.142  0.00  0.00    -0.323 N 
ATOM     10  C   UNL     1      -2.454  -0.166  -1.251  0.00  0.00    +0.041 A 
ATOM     11  C   UNL     1      -3.509  -0.746  -0.569  0.00  0.00    +0.024 A 
ATOM     12  C   UNL     1      -3.748  -2.100  -0.707  0.00  0.00    +0.002 A 
ATOM     13  C   UNL     1      -2.941  -2.880  -1.521  0.00  0.00    +0.001 A 
ATOM     14  C   UNL     1      -1.889  -2.316  -2.213  0.00  0.00    +0.015 A 
ATOM     15  C   UNL     1      -1.641  -0.952  -2.088  0.00  0.00    +0.058 A 
ATOM     16  C   UNL     1      -0.552  -0.283  -2.824  0.00  0.00    +0.247 C 
ATOM     17  O   UNL     1      -0.036  -0.820  -3.784  0.00  0.00    -0.270 OA
ATOM     18  N   UNL     1      -0.138   0.935  -2.417  0.00  0.00    -0.290 N 
ATOM     19  H   UNL     1      -2.850   1.847  -1.008  0.00  0.00    +0.148 HD
ATOM     20  H   UNL     1       0.562   1.391  -2.909  0.00  0.00    +0.151 HD
ENDROOT
BRANCH   1  22
ATOM     21  C   UNL     1       0.064   4.018   3.788  0.00  0.00    +0.038 C 
ATOM     22  C   UNL     1       0.701   3.058   2.782  0.00  0.00    +0.159 C 
BRANCH  22  23
ATOM     23  C   UNL     1       2.026   3.614   2.326  0.00  0.00    +0.233 C 
ATOM     24  O   UNL     1       2.210   3.856   1.152  0.00  0.00    -0.274 OA
ATOM     25  N   UNL     1       3.005   3.842   3.223  0.00  0.00    -0.317 N 
ATOM     26  C   UNL     1       4.293   4.383   2.779  0.00  0.00    +0.128 C 
ATOM     27  H   UNL     1       2.858   3.649   4.162  0.00  0.00    +0.148 HD
ENDBRANCH  22  23
ENDBRANCH   1  22
TORSDOF 2
