REMARK  Name = ZINC13302487
REMARK  4 active torsions:
REMARK  status: ('A' for Active; 'I' for Inactive)
REMARK    1  A    between atoms: C_1  and  C_2
REMARK    2  A    between atoms: C_3  and  C_14
REMARK    3  A    between atoms: N_5  and  C_7
REMARK    4  A    between atoms: N_15  and  N_16
REMARK                            x       y       z     vdW  Elec       q    Type
REMARK                         _______ _______ _______ _____ _____    ______ ____
ROOT
ATOM      1  C   UNL     1       2.506   2.150  -0.200  0.00  0.00    +0.143 C 
ATOM      2  N   UNL     1       2.809   0.888  -0.209  0.00  0.00    -0.189 NA
ENDROOT
BRANCH   2   3
ATOM      3  N   UNL     1       4.139   0.485  -0.034  0.00  0.00    -0.220 N 
ATOM      4  C   UNL     1       4.462  -0.859  -0.044  0.00  0.00    +0.150 A 
ATOM      5  C   UNL     1       5.716  -1.303   0.460  0.00  0.00    +0.052 A 
ATOM      6  C   UNL     1       6.807  -0.512   1.031  0.00  0.00    -0.025 A 
ATOM      7  C   UNL     1       7.902  -1.185   1.439  0.00  0.00    -0.004 A 
ATOM      8  S   UNL     1       7.554  -2.889   1.094  0.00  0.00    -0.073 S 
ATOM      9  C   UNL     1       5.934  -2.695   0.399  0.00  0.00    +0.114 A 
ATOM     10  N   UNL     1       5.026  -3.514  -0.095  0.00  0.00    -0.228 NA
ATOM     11  C   UNL     1       3.880  -3.042  -0.549  0.00  0.00    +0.224 A 
ATOM     12  N   UNL     1       3.605  -1.751  -0.518  0.00  0.00    -0.219 NA
ATOM     13  C   UNL     1       9.144  -0.612   2.052  0.00  0.00    +0.043 C 
ATOM     14  C   UNL     1       9.148   0.904   1.811  0.00  0.00    +0.005 C 
ATOM     15  C   UNL     1       7.773   1.464   2.187  0.00  0.00    +0.005 C 
ATOM     16  C   UNL     1       6.729   1.006   1.169  0.00  0.00    +0.037 C 
ATOM     17  H   UNL     1       4.834   1.150   0.094  0.00  0.00    +0.176 HD
ENDBRANCH   2   3
BRANCH   1  20
ATOM     18  C   UNL     1       1.463   5.144  -0.225  0.00  0.00    +0.068 C 
ATOM     19  C   UNL     1       0.627   3.902  -0.397  0.00  0.00    +0.070 A 
ATOM     20  C   UNL     1       1.105   2.574  -0.384  0.00  0.00    +0.054 A 
ATOM     21  C   UNL     1       0.018   1.745  -0.576  0.00  0.00    +0.142 A 
ATOM     22  N   UNL     1      -1.071   2.535  -0.706  0.00  0.00    -0.221 N 
ATOM     23  N   UNL     1      -0.665   3.869  -0.585  0.00  0.00    -0.170 NA
ATOM     24 CL   UNL     1       0.045   0.011  -0.645  0.00  0.00    -0.061 Cl
BRANCH  22  25
ATOM     25  C   UNL     1      -2.384   2.093  -0.920  0.00  0.00    +0.067 A 
ATOM     26  C   UNL     1      -2.621   0.972  -1.705  0.00  0.00    +0.028 A 
ATOM     27  C   UNL     1      -3.915   0.536  -1.910  0.00  0.00    +0.002 A 
ATOM     28  C   UNL     1      -4.975   1.221  -1.344  0.00  0.00    +0.000 A 
ATOM     29  C   UNL     1      -4.742   2.340  -0.567  0.00  0.00    +0.002 A 
ATOM     30  C   UNL     1      -3.450   2.778  -0.353  0.00  0.00    +0.028 A 
ENDBRANCH  22  25
ENDBRANCH   1  20
TORSDOF 3
