REMARK  Name = ZINC21915824
REMARK  6 active torsions:
REMARK  status: ('A' for Active; 'I' for Inactive)
REMARK    1  A    between atoms: C_1  and  C_2
REMARK    2  A    between atoms: C_7  and  C_8
REMARK    3  A    between atoms: C_8  and  N_9
REMARK    4  A    between atoms: C_23  and  C_24
REMARK    5  A    between atoms: C_23  and  C_25
REMARK    6  A    between atoms: N_27  and  C_28
REMARK                            x       y       z     vdW  Elec       q    Type
REMARK                         _______ _______ _______ _____ _____    ______ ____
ROOT
ATOM      1  N   UNL     1       4.164   2.158  -0.606  0.00  0.00    -0.273 N 
ATOM      2  C   UNL     1       4.507   1.455  -1.664  0.00  0.00    +0.287 C 
ATOM      3  O   UNL     1       4.775   2.092  -2.666  0.00  0.00    -0.266 OA
ATOM      4  C   UNL     1       4.605   0.009  -1.782  0.00  0.00    +0.232 A 
ATOM      5  C   UNL     1       4.393  -0.922  -0.809  0.00  0.00    +0.178 A 
ATOM      6  C   UNL     1       4.646  -2.231  -1.424  0.00  0.00    +0.063 A 
ATOM      7  C   UNL     1       4.606  -3.545  -0.956  0.00  0.00    +0.015 A 
ATOM      8  C   UNL     1       4.906  -4.574  -1.805  0.00  0.00    +0.001 A 
ATOM      9  C   UNL     1       5.247  -4.319  -3.126  0.00  0.00    +0.004 A 
ATOM     10  C   UNL     1       5.290  -3.028  -3.605  0.00  0.00    +0.047 A 
ATOM     11  C   UNL     1       4.989  -1.965  -2.759  0.00  0.00    +0.140 A 
ATOM     12  O   UNL     1       4.945  -0.632  -2.934  0.00  0.00    -0.446 OA
ATOM     13  O   UNL     1       4.025  -0.712   0.467  0.00  0.00    -0.485 OA
ATOM     14  C   UNL     1       4.443   0.444   1.156  0.00  0.00    +0.264 C 
ATOM     15  C   UNL     1       3.731   1.691   0.685  0.00  0.00    +0.145 C 
ATOM     16  C   UNL     1       3.968   2.804   1.708  0.00  0.00    +0.045 C 
ENDROOT
BRANCH  15  17
ATOM     17  C   UNL     1       2.252   1.405   0.622  0.00  0.00    +0.240 C 
ATOM     18  O   UNL     1       1.773   0.535   1.317  0.00  0.00    -0.273 OA
ATOM     19  N   UNL     1       1.464   2.117  -0.207  0.00  0.00    -0.311 N 
ATOM     20  H   UNL     1       1.899   2.907  -0.838  0.00  0.00    +0.149 HD
BRANCH  19  21
ATOM     21  C   UNL     1       0.026   1.840  -0.269  0.00  0.00    +0.073 C 
ATOM     22  C   UNL     1      -0.716   2.654   0.811  0.00  0.00    +0.022 C 
ATOM     23  C   UNL     1      -1.205   3.920   0.062  0.00  0.00    +0.002 C 
ATOM     24  C   UNL     1      -1.607   3.362  -1.326  0.00  0.00    +0.002 C 
ATOM     25  C   UNL     1      -0.540   2.290  -1.627  0.00  0.00    +0.022 C 
ENDBRANCH  19  21
ENDBRANCH  15  17
BRANCH   1  26
ATOM     26  C   UNL     1       4.231   3.613  -0.764  0.00  0.00    +0.144 C 
BRANCH  26  33
ATOM     27  C   UNL     1       4.798   6.444  -0.656  0.00  0.00    +0.044 C 
ATOM     28  C   UNL     1       5.893   5.445  -0.384  0.00  0.00    -0.046 A 
ATOM     29  C   UNL     1       7.168   5.883  -0.077  0.00  0.00    +0.003 A 
ATOM     30  C   UNL     1       8.174   4.967   0.167  0.00  0.00    +0.000 A 
ATOM     31  C   UNL     1       7.903   3.612   0.111  0.00  0.00    +0.000 A 
ATOM     32  C   UNL     1       6.627   3.174  -0.191  0.00  0.00    +0.005 A 
ATOM     33  C   UNL     1       5.622   4.090  -0.435  0.00  0.00    -0.027 A 
ENDBRANCH  26  33
ENDBRANCH   1  26
TORSDOF 4
