REMARK  Name = ZINC22355946
REMARK  10 active torsions:
REMARK  status: ('A' for Active; 'I' for Inactive)
REMARK    1  A    between atoms: C_1  and  C_2
REMARK    2  A    between atoms: C_3  and  C_35
REMARK    3  A    between atoms: C_11  and  C_13
REMARK    4  A    between atoms: C_13  and  S_14
REMARK    5  A    between atoms: S_14  and  C_15
REMARK    6  A    between atoms: C_15  and  C_17
REMARK    7  A    between atoms: C_15  and  C_18
REMARK    8  A    between atoms: N_20  and  C_21
REMARK    9  A    between atoms: C_23  and  C_32
REMARK   10  A    between atoms: C_26  and  N_27
REMARK                            x       y       z     vdW  Elec       q    Type
REMARK                         _______ _______ _______ _____ _____    ______ ____
ROOT
ATOM      1  C   UNL     1       0.272  -7.601   5.075  0.00  0.00    +0.230 C 
ATOM      2  O   UNL     1      -0.006  -7.971   3.954  0.00  0.00    -0.274 OA
ATOM      3  N   UNL     1       0.716  -8.489   5.987  0.00  0.00    -0.283 N 
ATOM      4  H   UNL     1       1.015  -8.181   6.857  0.00  0.00    +0.155 HD
ENDROOT
BRANCH   3   5
ATOM      5  C   UNL     1       0.748  -9.855   5.677  0.00  0.00    +0.055 A 
ATOM      6  C   UNL     1      -0.103 -10.367   4.716  0.00  0.00    +0.038 A 
ATOM      7  C   UNL     1      -0.069 -11.730   4.410  0.00  0.00    +0.038 A 
ATOM      8  C   UNL     1       0.825 -12.572   5.078  0.00  0.00    +0.015 A 
ATOM      9  C   UNL     1       1.671 -12.058   6.035  0.00  0.00    +0.026 A 
ATOM     10  C   UNL     1       1.644 -10.701   6.337  0.00  0.00    +0.051 A 
BRANCH  10  11
ATOM     11  N   UNL     1       2.506 -10.185   7.301  0.00  0.00    -0.328 N 
ATOM     12  C   UNL     1       2.220 -10.083   8.739  0.00  0.00    +0.105 C 
ATOM     13  C   UNL     1       3.448  -9.429   9.405  0.00  0.00    +0.020 C 
ATOM     14  C   UNL     1       4.127  -8.683   8.226  0.00  0.00    +0.020 C 
ATOM     15  C   UNL     1       3.859  -9.657   7.049  0.00  0.00    +0.105 C 
ENDBRANCH  10  11
BRANCH   7  16
ATOM     16  C   UNL     1      -0.976 -12.280   3.385  0.00  0.00    +0.242 C 
ATOM     17  O   UNL     1      -1.755 -11.547   2.806  0.00  0.00    -0.270 OA
ATOM     18  N   UNL     1      -0.943 -13.595   3.091  0.00  0.00    -0.325 N 
ATOM     19  H   UNL     1      -0.322 -14.180   3.554  0.00  0.00    +0.145 HD
ATOM     20  H   UNL     1      -1.539 -13.957   2.417  0.00  0.00    +0.145 HD
ENDBRANCH   7  16
ENDBRANCH   3   5
BRANCH   1  21
ATOM     21  C   UNL     1       0.120  -6.149   5.448  0.00  0.00    +0.130 C 
ATOM     22  C   UNL     1      -1.187  -5.954   6.219  0.00  0.00    +0.029 C 
BRANCH  21  23
ATOM     23  S   UNL     1       0.091  -5.138   3.943  0.00  0.00    -0.141 S 
BRANCH  23  24
ATOM     24  C   UNL     1       0.060  -3.432   4.560  0.00  0.00    +0.144 C 
BRANCH  24  35
ATOM     25  C   UNL     1      -0.069   1.515   0.037  0.00  0.00    +0.045 C 
ATOM     26  C   UNL     1      -0.038   0.009   0.025  0.00  0.00    -0.026 A 
ATOM     27  C   UNL     1      -0.025  -0.661  -1.139  0.00  0.00    -0.008 A 
ATOM     28  S   UNL     1       0.011  -2.370  -0.632  0.00  0.00    -0.073 S 
ATOM     29  C   UNL     1       0.009  -2.135   1.127  0.00  0.00    +0.116 A 
ATOM     30  C   UNL     1      -0.015  -0.736   1.270  0.00  0.00    +0.075 A 
ATOM     31  C   UNL     1      -0.017  -0.251   2.619  0.00  0.00    +0.260 A 
ATOM     32  O   UNL     1      -0.041   0.946   2.847  0.00  0.00    -0.267 OA
ATOM     33  N   UNL     1       0.007  -1.139   3.630  0.00  0.00    -0.310 N 
ATOM     34  H   UNL     1       0.006  -0.818   4.545  0.00  0.00    +0.170 HD
ATOM     35  C   UNL     1       0.034  -2.477   3.395  0.00  0.00    +0.121 A 
ATOM     36  N   UNL     1       0.027  -2.949   2.178  0.00  0.00    -0.226 NA
ATOM     37  C   UNL     1      -0.040  -0.102  -2.538  0.00  0.00    +0.052 C 
ENDBRANCH  24  35
ENDBRANCH  23  24
ENDBRANCH  21  23
ENDBRANCH   1  21
TORSDOF 7
