REMARK  Name = ZINC22734360
REMARK  8 active torsions:
REMARK  status: ('A' for Active; 'I' for Inactive)
REMARK    1  A    between atoms: C_1  and  N_2
REMARK    2  A    between atoms: N_5  and  C_8
REMARK    3  A    between atoms: C_8  and  C_10
REMARK    4  A    between atoms: C_8  and  C_25
REMARK    5  A    between atoms: C_10  and  N_11
REMARK    6  A    between atoms: C_12  and  C_14
REMARK    7  A    between atoms: N_16  and  C_17
REMARK    8  A    between atoms: N_33  and  C_34
REMARK                            x       y       z     vdW  Elec       q    Type
REMARK                         _______ _______ _______ _____ _____    ______ ____
ROOT
ATOM      1  C   UNL     1       1.681   1.173   1.092  0.00  0.00    +0.104 C 
ENDROOT
BRANCH   1   2
ATOM      2  C   UNL     1       2.550   2.198   0.410  0.00  0.00    -0.028 A 
ATOM      3  C   UNL     1       2.541   2.309  -0.968  0.00  0.00    +0.007 A 
ATOM      4  C   UNL     1       3.336   3.244  -1.596  0.00  0.00    +0.024 A 
ATOM      5  C   UNL     1       4.156   4.085  -0.845  0.00  0.00    +0.033 A 
ATOM      6  C   UNL     1       4.155   3.969   0.540  0.00  0.00    -0.025 A 
ATOM      7  C   UNL     1       3.355   3.034   1.163  0.00  0.00    +0.010 A 
ATOM      8  C   UNL     1       5.118   4.999   1.096  0.00  0.00    +0.056 C 
ATOM      9  C   UNL     1       5.327   5.955  -0.102  0.00  0.00    +0.109 C 
ATOM     10  N   UNL     1       5.043   5.085  -1.263  0.00  0.00    -0.332 N 
ATOM     11  C   UNL     1       4.476   5.860  -2.375  0.00  0.00    +0.129 C 
ENDBRANCH   1   2
BRANCH   1  16
ATOM     12  C   UNL     1       4.814  -3.361  -0.146  0.00  0.00    -0.096 C 
ATOM     13  N   UNL     1       4.240  -2.023   0.051  0.00  0.00    +0.379 N 
ATOM     14  C   UNL     1       2.986  -1.872  -0.701  0.00  0.00    -0.064 C 
ATOM     15  C   UNL     1       2.463  -0.443  -0.533  0.00  0.00    +0.066 C 
ATOM     16  N   UNL     1       2.255  -0.165   0.894  0.00  0.00    -0.297 NA
ATOM     17  C   UNL     1       3.508  -0.316   1.646  0.00  0.00    +0.066 C 
ATOM     18  C   UNL     1       4.031  -1.745   1.479  0.00  0.00    -0.064 C 
ATOM     19  H   UNL     1       4.960  -1.287  -0.337  0.00  0.00    -0.082 HD
ENDBRANCH   1  16
BRANCH   1  20
ATOM     20  C   UNL     1       0.274   1.218   0.492  0.00  0.00    +0.128 C 
BRANCH  20  21
ATOM     21  N   UNL     1      -0.551   0.172   1.102  0.00  0.00    -0.306 N 
ATOM     22  C   UNL     1      -1.822  -0.007   0.693  0.00  0.00    +0.299 C 
ATOM     23  O   UNL     1      -2.286   0.701  -0.177  0.00  0.00    -0.265 OA
ATOM     24  H   UNL     1      -0.132  -0.466   1.893  0.00  0.00    +0.149 HD
BRANCH  22  25
ATOM     25  C   UNL     1      -2.661  -1.077   1.310  0.00  0.00    +0.303 C 
ATOM     26  O   UNL     1      -2.198  -1.786   2.180  0.00  0.00    -0.265 OA
ATOM     27  N   UNL     1      -3.933  -1.257   0.901  0.00  0.00    -0.275 N 
ATOM     28  H   UNL     1      -4.324  -0.679   0.051  0.00  0.00    +0.155 HD
BRANCH  27  29
ATOM     29  C   UNL     1      -4.755  -2.178   1.558  0.00  0.00    +0.072 A 
ATOM     30  C   UNL     1      -4.440  -2.598   2.844  0.00  0.00    +0.064 A 
ATOM     31  C   UNL     1      -5.258  -3.506   3.493  0.00  0.00    +0.125 A 
ATOM     32  C   UNL     1      -6.384  -4.002   2.857  0.00  0.00    +0.041 A 
ATOM     33  C   UNL     1      -6.697  -3.590   1.576  0.00  0.00    +0.043 A 
ATOM     34  C   UNL     1      -5.887  -2.679   0.923  0.00  0.00    +0.145 A 
ATOM     35  F   UNL     1      -6.194  -2.276  -0.329  0.00  0.00    -0.204 F 
ATOM     36  F   UNL     1      -4.955  -3.912   4.745  0.00  0.00    -0.205 F 
ENDBRANCH  27  29
ENDBRANCH  22  25
ENDBRANCH  20  21
ENDBRANCH   1  20
TORSDOF 6
