REMARK  Name = ZINC17058256
REMARK  6 active torsions:
REMARK  status: ('A' for Active; 'I' for Inactive)
REMARK    1  A    between atoms: C_1  and  C_2
REMARK    2  A    between atoms: C_5  and  N_8
REMARK    3  A    between atoms: C_12  and  C_13
REMARK    4  A    between atoms: C_15  and  O_21
REMARK    5  A    between atoms: C_16  and  O_20
REMARK    6  A    between atoms: O_21  and  C_22
REMARK                            x       y       z     vdW  Elec       q    Type
REMARK                         _______ _______ _______ _____ _____    ______ ____
ROOT
ATOM      1  N   UNL     1      -0.328  -4.220  -0.009  0.00  0.00    -0.188 N 
ATOM      2  C   UNL     1       0.040  -4.866   1.119  0.00  0.00    +0.264 C 
ATOM      3  O   UNL     1       0.438  -4.255   2.092  0.00  0.00    -0.269 OA
ATOM      4  C   UNL     1      -0.059  -6.339   1.131  0.00  0.00    +0.102 C 
ATOM      5  C   UNL     1       0.298  -7.080   2.246  0.00  0.00    +0.026 C 
ATOM      6  C   UNL     1      -0.553  -6.985  -0.096  0.00  0.00    +0.276 C 
ATOM      7  O   UNL     1      -0.673  -8.327  -0.169  0.00  0.00    -0.268 OA
ATOM      8  N   UNL     1      -0.876  -6.220  -1.124  0.00  0.00    -0.123 NA
ATOM      9  C   UNL     1      -0.773  -4.894  -1.079  0.00  0.00    +0.340 C 
ATOM     10  O   UNL     1      -1.095  -4.258  -2.067  0.00  0.00    -0.250 OA
ENDROOT
BRANCH   1  15
ATOM     11  C   UNL     1      -0.007   1.442  -0.209  0.00  0.00    +0.044 C 
ATOM     12  C   UNL     1      -0.092  -0.061  -0.156  0.00  0.00    -0.050 A 
ATOM     13  C   UNL     1      -1.328  -0.683  -0.151  0.00  0.00    +0.005 A 
ATOM     14  C   UNL     1      -1.409  -2.061  -0.103  0.00  0.00    +0.024 A 
ATOM     15  C   UNL     1      -0.249  -2.822  -0.059  0.00  0.00    +0.046 A 
ATOM     16  C   UNL     1       0.990  -2.195  -0.064  0.00  0.00    +0.024 A 
ATOM     17  C   UNL     1       1.065  -0.817  -0.117  0.00  0.00    +0.005 A 
ENDBRANCH   1  15
BRANCH   5  18
ATOM     18  C   UNL     1       0.420  -8.533   2.150  0.00  0.00    -0.019 A 
ATOM     19  C   UNL     1      -0.175  -9.356   3.120  0.00  0.00    +0.057 A 
ATOM     20  C   UNL     1      -0.057 -10.726   3.023  0.00  0.00    +0.163 A 
ATOM     21  C   UNL     1       0.654 -11.293   1.963  0.00  0.00    +0.177 A 
ATOM     22  C   UNL     1       1.244 -10.480   1.001  0.00  0.00    +0.087 A 
ATOM     23  C   UNL     1       1.128  -9.111   1.085  0.00  0.00    +0.031 A 
ATOM     24 CL   UNL     1       2.126 -11.195  -0.313  0.00  0.00    -0.080 Cl
BRANCH  21  25
ATOM     25  O   UNL     1       0.769 -12.642   1.871  0.00  0.00    -0.502 OA
ATOM     26  H   UNL     1       0.061 -13.064   1.364  0.00  0.00    +0.292 HD
ENDBRANCH  21  25
BRANCH  20  27
ATOM     27  O   UNL     1      -0.631 -11.526   3.960  0.00  0.00    -0.491 OA
ATOM     28  C   UNL     1      -1.343 -10.879   5.017  0.00  0.00    +0.277 C 
ENDBRANCH  20  27
ENDBRANCH   5  18
TORSDOF 4
