REMARK  Name = ZINC13476153
REMARK  8 active torsions:
REMARK  status: ('A' for Active; 'I' for Inactive)
REMARK    1  A    between atoms: C_1  and  C_2
REMARK    2  A    between atoms: C_5  and  N_9
REMARK    3  A    between atoms: C_7  and  C_8
REMARK    4  A    between atoms: N_9  and  C_10
REMARK    5  A    between atoms: C_12  and  O_24
REMARK    6  A    between atoms: C_14  and  O_23
REMARK    7  A    between atoms: C_16  and  O_22
REMARK    8  A    between atoms: C_18  and  C_21
REMARK                            x       y       z     vdW  Elec       q    Type
REMARK                         _______ _______ _______ _____ _____    ______ ____
ROOT
ATOM      1  C   UNL     1       0.037  -4.235  -2.422  0.00  0.00    +0.235 C 
ATOM      2  C   UNL     1      -0.794  -4.753  -3.599  0.00  0.00    +0.192 C 
ATOM      3  C   UNL     1      -0.719  -6.283  -3.633  0.00  0.00    +0.178 C 
ATOM      4  C   UNL     1       0.750  -6.708  -3.727  0.00  0.00    +0.174 C 
ATOM      5  C   UNL     1       1.521  -6.115  -2.546  0.00  0.00    +0.149 C 
ATOM      6  O   UNL     1       1.385  -4.693  -2.555  0.00  0.00    -0.351 OA
ATOM      7  C   UNL     1       3.001  -6.486  -2.665  0.00  0.00    +0.041 C 
ENDROOT
BRANCH   1   8
ATOM      8  N   UNL     1       0.017  -2.770  -2.417  0.00  0.00    -0.317 N 
ATOM      9  H   UNL     1       0.002  -2.283  -3.255  0.00  0.00    +0.149 HD
BRANCH   8  14
ATOM     10  C   UNL     1       0.025   0.048   2.504  0.00  0.00    +0.044 C 
ATOM     11  C   UNL     1       0.023  -0.701   1.196  0.00  0.00    -0.047 A 
ATOM     12  C   UNL     1       0.042  -2.084   1.193  0.00  0.00    +0.005 A 
ATOM     13  C   UNL     1       0.040  -2.773  -0.004  0.00  0.00    +0.023 A 
ATOM     14  C   UNL     1       0.019  -2.076  -1.205  0.00  0.00    +0.029 A 
ATOM     15  C   UNL     1      -0.006  -0.688  -1.198  0.00  0.00    +0.026 A 
ATOM     16  C   UNL     1       0.002  -0.004   0.002  0.00  0.00    -0.046 A 
ATOM     17  C   UNL     1      -0.018   1.503   0.010  0.00  0.00    +0.044 C 
ENDBRANCH   8  14
ENDBRANCH   1   8
BRANCH   4  18
ATOM     18  O   UNL     1       0.837  -8.134  -3.686  0.00  0.00    -0.387 OA
ATOM     19  H   UNL     1       1.740  -8.475  -3.742  0.00  0.00    +0.210 HD
ENDBRANCH   4  18
BRANCH   3  20
ATOM     20  O   UNL     1      -1.432  -6.771  -4.771  0.00  0.00    -0.386 OA
ATOM     21  H   UNL     1      -2.369  -6.532  -4.780  0.00  0.00    +0.210 HD
ENDBRANCH   3  20
BRANCH   2  22
ATOM     22  O   UNL     1      -0.277  -4.222  -4.820  0.00  0.00    -0.385 OA
ATOM     23  H   UNL     1      -0.289  -3.256  -4.866  0.00  0.00    +0.210 HD
ENDBRANCH   2  22
TORSDOF 5
