REMARK  Name = ZINC14806331
REMARK  3 active torsions:
REMARK  status: ('A' for Active; 'I' for Inactive)
REMARK    1  A    between atoms: N_7  and  C_11
REMARK    2  A    between atoms: C_13  and  O_26
REMARK    3  A    between atoms: P_22  and  O_25
REMARK                            x       y       z     vdW  Elec       q    Type
REMARK                         _______ _______ _______ _____ _____    ______ ____
ROOT
ATOM      1  C   UNL     1       1.316  -0.459   0.356  0.00  0.00    +0.255 C 
ATOM      2  C   UNL     1       2.353   0.584  -0.118  0.00  0.00    +0.196 C 
ATOM      3  C   UNL     1       1.570   1.907  -0.014  0.00  0.00    +0.191 C 
ATOM      4  C   UNL     1       0.114   1.522   0.012  0.00  0.00    +0.179 C 
ATOM      5  O   UNL     1       0.034   0.084   0.011  0.00  0.00    -0.346 OA
ATOM      6  C   UNL     1      -0.784   2.066  -1.075  0.00  0.00    +0.204 C 
ATOM      7  O   UNL     1      -0.423   3.390  -1.481  0.00  0.00    -0.308 OA
ATOM      8  P   UNL     1       1.099   3.642  -1.991  0.00  0.00    +0.306 P 
ATOM      9  S   UNL     1       1.491   5.464  -1.987  0.00  0.00    +0.022 S 
ATOM     10  O   UNL     1       2.032   2.865  -0.923  0.00  0.00    -0.302 OA
ENDROOT
BRANCH   1  17
ATOM     11  C   UNL     1       0.278   2.124   3.878  0.00  0.00    +0.225 A 
ATOM     12  N   UNL     1       0.517   1.590   5.063  0.00  0.00    -0.219 NA
ATOM     13  C   UNL     1       1.030   0.370   5.176  0.00  0.00    +0.147 A 
ATOM     14  C   UNL     1       1.317  -0.348   4.003  0.00  0.00    +0.149 A 
ATOM     15  C   UNL     1       1.045   0.263   2.768  0.00  0.00    +0.169 A 
ATOM     16  N   UNL     1       0.531   1.489   2.753  0.00  0.00    -0.216 NA
ATOM     17  N   UNL     1       1.413  -0.644   1.806  0.00  0.00    -0.270 N 
ATOM     18  C   UNL     1       1.880  -1.753   2.448  0.00  0.00    +0.208 A 
ATOM     19  N   UNL     1       1.827  -1.575   3.738  0.00  0.00    -0.212 NA
ATOM     20 CL   UNL     1       2.463  -3.188   1.663  0.00  0.00    -0.043 Cl
ATOM     21  N   UNL     1       1.277  -0.181   6.422  0.00  0.00    -0.341 N 
ATOM     22  H   UNL     1       1.928   0.394   6.918  0.00  0.00    +0.144 HD
ATOM     23  H   UNL     1       1.652  -1.073   6.492  0.00  0.00    +0.144 HD
ENDBRANCH   1  17
BRANCH   8  24
ATOM     24  O   UNL     1       1.305   3.027  -3.465  0.00  0.00    -0.327 OA
ATOM     25  H   UNL     1       0.770   3.455  -4.148  0.00  0.00    +0.219 HD
ENDBRANCH   8  24
BRANCH   2  26
ATOM     26  O   UNL     1       2.744   0.332  -1.470  0.00  0.00    -0.385 OA
ATOM     27  H   UNL     1       3.167  -0.528  -1.603  0.00  0.00    +0.210 HD
ENDBRANCH   2  26
TORSDOF 3
