REMARK  Name = ZINC06464382
REMARK  8 active torsions:
REMARK  status: ('A' for Active; 'I' for Inactive)
REMARK    1  A    between atoms: C_1  and  C_2
REMARK    2  A    between atoms: C_2  and  O_3
REMARK    3  A    between atoms: O_3  and  C_4
REMARK    4  A    between atoms: C_6  and  C_12
REMARK    5  A    between atoms: C_9  and  O_10
REMARK    6  A    between atoms: N_13  and  N_14
REMARK    7  A    between atoms: C_18  and  S_21
REMARK    8  A    between atoms: N_19  and  N_20
REMARK                            x       y       z     vdW  Elec       q    Type
REMARK                         _______ _______ _______ _____ _____    ______ ____
ROOT
ATOM      1  C   UNL     1       7.043   3.218  -1.740  0.00  0.00    +0.139 C 
ATOM      2  N   UNL     1       6.035   2.945  -0.968  0.00  0.00    -0.187 NA
ENDROOT
BRANCH   1   5
ATOM      3  C   UNL     1      10.661   4.171  -1.422  0.00  0.00    +0.162 A 
ATOM      4  C   UNL     1       9.437   3.852  -1.980  0.00  0.00    +0.060 A 
ATOM      5  C   UNL     1       8.351   3.558  -1.151  0.00  0.00    +0.017 A 
ATOM      6  C   UNL     1       8.506   3.593   0.238  0.00  0.00    +0.053 A 
ATOM      7  C   UNL     1       9.733   3.908   0.786  0.00  0.00    +0.069 A 
ATOM      8  C   UNL     1      10.811   4.199  -0.037  0.00  0.00    +0.160 A 
ATOM      9 CL   UNL     1       7.159   3.236   1.272  0.00  0.00    -0.083 Cl
BRANCH   8  10
ATOM     10  O   UNL     1      12.016   4.513   0.508  0.00  0.00    -0.503 OA
ATOM     11  H   UNL     1      12.139   5.457   0.673  0.00  0.00    +0.292 HD
ENDBRANCH   8  10
BRANCH   3  12
ATOM     12  O   UNL     1      11.720   4.457  -2.226  0.00  0.00    -0.489 OA
BRANCH  12  14
ATOM     13  C   UNL     1      12.792   4.756  -4.371  0.00  0.00    +0.048 C 
ATOM     14  C   UNL     1      11.496   4.409  -3.637  0.00  0.00    +0.226 C 
ENDBRANCH  12  14
ENDBRANCH   3  12
ENDBRANCH   1   5
BRANCH   2  15
ATOM     15  N   UNL     1       4.792   2.622  -1.528  0.00  0.00    -0.204 N 
ATOM     16  C   UNL     1       3.715   2.330  -0.704  0.00  0.00    +0.254 A 
ATOM     17  N   UNL     1       3.727   2.324   0.607  0.00  0.00    -0.109 NA
ATOM     18  N   UNL     1       2.442   1.987   1.051  0.00  0.00    -0.119 NA
ATOM     19  C   UNL     1       1.688   1.790  -0.004  0.00  0.00    +0.207 A 
ATOM     20  N   UNL     1       2.453   2.001  -1.116  0.00  0.00    -0.211 N 
ATOM     21  H   UNL     1       4.684   2.602  -2.492  0.00  0.00    +0.177 HD
BRANCH  20  22
ATOM     22  N   UNL     1       2.033   1.900  -2.412  0.00  0.00    -0.294 N 
ATOM     23  H   UNL     1       1.681   2.785  -2.748  0.00  0.00    +0.163 HD
ATOM     24  H   UNL     1       2.772   1.555  -3.006  0.00  0.00    +0.163 HD
ENDBRANCH  20  22
BRANCH  19  25
ATOM     25  S   UNL     1      -0.016   1.341   0.009  0.00  0.00    -0.102 S 
ATOM     26  H   UNL     1       0.002  -0.004   0.002  0.00  0.00    +0.110 HD
ENDBRANCH  19  25
ENDBRANCH   2  15
TORSDOF 7
