REMARK  Name = ZINC10056601
REMARK  6 active torsions:
REMARK  status: ('A' for Active; 'I' for Inactive)
REMARK    1  A    between atoms: C_1  and  C_2
REMARK    2  A    between atoms: C_9  and  C_11
REMARK    3  A    between atoms: C_11  and  N_12
REMARK    4  A    between atoms: C_13  and  C_15
REMARK    5  A    between atoms: C_15  and  N_16
REMARK    6  A    between atoms: C_17  and  C_19
REMARK                            x       y       z     vdW  Elec       q    Type
REMARK                         _______ _______ _______ _____ _____    ______ ____
ROOT
ATOM      1  N   UNL     1       3.585  -4.792  -0.369  0.00  0.00    -0.305 N 
ATOM      2  C   UNL     1       3.796  -6.117  -0.489  0.00  0.00    +0.231 C 
ATOM      3  O   UNL     1       2.856  -6.883  -0.502  0.00  0.00    -0.274 OA
ATOM      4  H   UNL     1       4.337  -4.179  -0.358  0.00  0.00    +0.149 HD
ENDROOT
BRANCH   1   5
ATOM      5  C   UNL     1       2.219  -4.275  -0.256  0.00  0.00    +0.200 C 
BRANCH   5  14
ATOM      6  C   UNL     1      -1.284   2.223   0.018  0.00  0.00    +0.044 C 
ATOM      7  C   UNL     1      -0.013   1.413   0.004  0.00  0.00    -0.046 A 
ATOM      8  C   UNL     1       1.226   2.038  -0.006  0.00  0.00    +0.023 A 
ATOM      9  C   UNL     1       2.372   1.267  -0.019  0.00  0.00    +0.113 A 
ATOM     10  N   UNL     1       2.301  -0.051  -0.023  0.00  0.00    -0.240 NA
ATOM     11  C   UNL     1       1.138  -0.683  -0.014  0.00  0.00    +0.125 A 
ATOM     12  C   UNL     1      -0.056   0.030  -0.001  0.00  0.00    +0.047 A 
ATOM     13  N   UNL     1       1.110  -2.077  -0.019  0.00  0.00    -0.269 N 
ATOM     14  C   UNL     1       2.258  -2.773  -0.136  0.00  0.00    +0.235 C 
ATOM     15  O   UNL     1       3.322  -2.192  -0.143  0.00  0.00    -0.274 OA
ATOM     16  H   UNL     1       0.264  -2.545   0.061  0.00  0.00    +0.156 HD
ENDBRANCH   5  14
ENDBRANCH   1   5
BRANCH   2  17
ATOM     17  C   UNL     1       5.202  -6.649  -0.605  0.00  0.00    +0.200 C 
BRANCH  17  18
ATOM     18  N   UNL     1       5.164  -8.108  -0.722  0.00  0.00    -0.303 N 
ATOM     19  C   UNL     1       6.312  -8.805  -0.839  0.00  0.00    +0.246 C 
ATOM     20  O   UNL     1       7.378  -8.222  -0.846  0.00  0.00    -0.270 OA
ATOM     21  H   UNL     1       4.313  -8.573  -0.716  0.00  0.00    +0.150 HD
BRANCH  19  22
ATOM     22  C   UNL     1       6.273 -10.277  -0.957  0.00  0.00    +0.055 A 
ATOM     23  C   UNL     1       5.049 -10.950  -0.949  0.00  0.00    +0.016 A 
ATOM     24  C   UNL     1       5.020 -12.323  -1.060  0.00  0.00    +0.021 A 
ATOM     25  C   UNL     1       6.201 -13.038  -1.180  0.00  0.00    +0.042 A 
ATOM     26  C   UNL     1       7.418 -12.378  -1.189  0.00  0.00    +0.040 A 
ATOM     27  C   UNL     1       7.461 -11.002  -1.084  0.00  0.00    +0.054 A 
ATOM     28 CL   UNL     1       8.988 -10.175  -1.102  0.00  0.00    -0.083 Cl
ATOM     29 CL   UNL     1       6.155 -14.767  -1.319  0.00  0.00    -0.083 Cl
ENDBRANCH  19  22
ENDBRANCH  17  18
ENDBRANCH   2  17
TORSDOF 5
