REMARK  Name = ZINC03991475
REMARK  4 active torsions:
REMARK  status: ('A' for Active; 'I' for Inactive)
REMARK    1  A    between atoms: C_1  and  C_2
REMARK    2  A    between atoms: C_9  and  C_11
REMARK    3  A    between atoms: C_13  and  N_26
REMARK    4  A    between atoms: C_16  and  C_20
REMARK                            x       y       z     vdW  Elec       q    Type
REMARK                         _______ _______ _______ _____ _____    ______ ____
ROOT
ATOM      1  C   UNL     1      -0.665   5.934   0.013  0.00  0.00    +0.057 A 
ATOM      2  C   UNL     1       0.406   5.764  -0.896  0.00  0.00    +0.041 A 
ATOM      3  C   UNL     1       1.080   4.579  -0.923  0.00  0.00    +0.070 A 
ATOM      4  C   UNL     1       0.698   3.541  -0.040  0.00  0.00    +0.177 A 
ATOM      5  N   UNL     1       1.163   2.314   0.150  0.00  0.00    -0.202 NA
ATOM      6  C   UNL     1       0.460   1.711   1.111  0.00  0.00    +0.218 A 
ATOM      7  N   UNL     1      -0.474   2.536   1.552  0.00  0.00    -0.142 NA
ATOM      8  N   UNL     1      -0.339   3.731   0.829  0.00  0.00    -0.217 N 
ATOM      9  C   UNL     1      -1.014   4.907   0.860  0.00  0.00    +0.128 A 
ENDROOT
BRANCH   1  17
ATOM     10  C   UNL     1      -1.587  11.776   1.589  0.00  0.00    +0.009 C 
ATOM     11  C   UNL     1      -0.942  10.390   1.518  0.00  0.00    +0.003 C 
ATOM     12  C   UNL     1       0.578  10.540   1.419  0.00  0.00    +0.006 C 
ATOM     13  C   UNL     1       1.227   9.154   1.381  0.00  0.00    +0.019 C 
ATOM     14  C   UNL     1       0.734   8.398   0.143  0.00  0.00    +0.108 C 
ATOM     15  N   UNL     1      -0.735   8.376   0.156  0.00  0.00    -0.297 N 
ATOM     16  C   UNL     1      -1.459   9.649   0.276  0.00  0.00    +0.111 C 
ATOM     17  C   UNL     1      -1.405   7.211   0.055  0.00  0.00    +0.248 C 
ATOM     18  O   UNL     1      -2.620   7.212  -0.003  0.00  0.00    -0.270 OA
ENDBRANCH   1  17
BRANCH   6  19
ATOM     19  C   UNL     1       0.685   0.335   1.600  0.00  0.00    +0.175 A 
ATOM     20  C   UNL     1      -0.024  -0.291   2.577  0.00  0.00    +0.054 A 
ATOM     21  C   UNL     1       0.527  -1.579   2.717  0.00  0.00    +0.057 A 
ATOM     22  C   UNL     1       1.536  -1.677   1.827  0.00  0.00    +0.171 A 
ATOM     23  O   UNL     1       1.625  -0.520   1.151  0.00  0.00    -0.445 OA
ATOM     24 BR   UNL     1       2.638  -3.192   1.570  0.00  0.00    -0.008 Br
ENDBRANCH   6  19
BRANCH   3  25
ATOM     25  N   UNL     1       2.140   4.392  -1.814  0.00  0.00    -0.355 N 
ATOM     26  H   UNL     1       2.617   3.548  -1.829  0.00  0.00    +0.142 HD
ATOM     27  H   UNL     1       2.398   5.106  -2.417  0.00  0.00    +0.142 HD
ENDBRANCH   3  25
TORSDOF 3
