REMARK  Name = ZINC04087202
REMARK  4 active torsions:
REMARK  status: ('A' for Active; 'I' for Inactive)
REMARK    1  A    between atoms: C_1  and  N_36
REMARK    2  A    between atoms: C_7  and  N_12
REMARK    3  A    between atoms: C_8  and  C_9
REMARK    4  A    between atoms: C_13  and  C_15
REMARK                            x       y       z     vdW  Elec       q    Type
REMARK                         _______ _______ _______ _____ _____    ______ ____
ROOT
ATOM      1  C   UNL     1       7.677  -2.233  -0.305  0.00  0.00    -0.096 C 
ATOM      2  C   UNL     1       7.044   0.003   0.377  0.00  0.00    -0.074 C 
ATOM      3  C   UNL     1       6.216   1.219  -0.047  0.00  0.00    +0.018 C 
ATOM      4  C   UNL     1       4.745   0.819  -0.038  0.00  0.00    -0.027 A 
ATOM      5  C   UNL     1       4.397  -0.488  -0.043  0.00  0.00    -0.021 A 
ATOM      6  S   UNL     1       2.629  -0.484  -0.018  0.00  0.00    -0.079 S 
ATOM      7  C   UNL     1       2.352   1.227  -0.014  0.00  0.00    +0.085 A 
ATOM      8  C   UNL     1       3.637   1.756  -0.023  0.00  0.00    +0.068 A 
ATOM      9  C   UNL     1       5.333  -1.656  -0.061  0.00  0.00    -0.036 C 
ATOM     10  N   UNL     1       6.672  -1.158  -0.458  0.00  0.00    +0.381 N 
ATOM     11  H   UNL     1       6.643  -0.866  -1.442  0.00  0.00    -0.082 HD
ENDROOT
BRANCH   8  12
ATOM     12  C   UNL     1       3.864   3.204  -0.018  0.00  0.00    +0.244 C 
ATOM     13  O   UNL     1       3.968   3.799   1.039  0.00  0.00    -0.270 OA
ATOM     14  N   UNL     1       3.958   3.876  -1.182  0.00  0.00    -0.325 N 
ATOM     15  H   UNL     1       3.875   3.401  -2.024  0.00  0.00    +0.145 HD
ATOM     16  H   UNL     1       4.108   4.834  -1.178  0.00  0.00    +0.145 HD
ENDBRANCH   8  12
BRANCH   7  17
ATOM     17  N   UNL     1       1.143   1.903   0.001  0.00  0.00    -0.275 N 
ATOM     18  C   UNL     1      -0.014   1.213   0.009  0.00  0.00    +0.255 C 
ATOM     19  O   UNL     1       0.002  -0.004   0.002  0.00  0.00    -0.269 OA
ATOM     20  H   UNL     1       1.130   2.873   0.007  0.00  0.00    +0.156 HD
BRANCH  18  21
ATOM     21  C   UNL     1      -1.292   1.928   0.019  0.00  0.00    +0.076 A 
ATOM     22  C   UNL     1      -2.581   1.415   0.022  0.00  0.00    +0.022 A 
ATOM     23  C   UNL     1      -3.613   2.318   0.033  0.00  0.00    +0.028 A 
ATOM     24  C   UNL     1      -3.330   3.649   0.039  0.00  0.00    +0.079 A 
ATOM     25  S   UNL     1      -1.597   3.686   0.038  0.00  0.00    -0.072 S 
ATOM     26 CL   UNL     1      -4.437   4.987   0.054  0.00  0.00    -0.076 Cl
ENDBRANCH  18  21
ENDBRANCH   7  17
TORSDOF 3
