REMARK  Name = ZINC39677208
REMARK  8 active torsions:
REMARK  status: ('A' for Active; 'I' for Inactive)
REMARK    1  A    between atoms: C_1  and  C_2
REMARK    2  A    between atoms: C_6  and  C_7
REMARK    3  A    between atoms: C_7  and  N_8
REMARK    4  A    between atoms: C_9  and  C_11
REMARK    5  A    between atoms: C_22  and  C_24
REMARK    6  A    between atoms: C_24  and  C_26
REMARK    7  A    between atoms: C_24  and  O_27
REMARK    8  A    between atoms: O_27  and  C_28
REMARK                            x       y       z     vdW  Elec       q    Type
REMARK                         _______ _______ _______ _____ _____    ______ ____
ROOT
ATOM      1  C   UNL     1      -3.279   0.579   5.609  0.00  0.00    +0.100 C 
ATOM      2  C   UNL     1      -3.878   1.514   4.535  0.00  0.00    +0.121 C 
ATOM      3  N   UNL     1      -4.668   2.506   5.301  0.00  0.00    -0.297 N 
ATOM      4  C   UNL     1      -3.842   2.789   6.500  0.00  0.00    +0.115 C 
ATOM      5  C   UNL     1      -3.256   1.419   6.896  0.00  0.00    -0.004 C 
ATOM      6  C   UNL     1      -1.824   1.584   7.395  0.00  0.00    -0.010 C 
ATOM      7  C   UNL     1      -1.833   2.373   8.708  0.00  0.00    -0.082 C 
ATOM      8  N   UNL     1      -2.640   1.659   9.704  0.00  0.00    +0.379 N 
ATOM      9  C   UNL     1      -4.037   1.587   9.258  0.00  0.00    -0.082 C 
ATOM     10  C   UNL     1      -4.121   0.765   7.969  0.00  0.00    -0.010 C 
ATOM     11  C   UNL     1      -5.867   3.032   4.981  0.00  0.00    +0.256 C 
ATOM     12  O   UNL     1      -6.391   3.841   5.718  0.00  0.00    -0.272 OA
ATOM     13  H   UNL     1      -2.278   0.725   9.823  0.00  0.00    -0.086 HD
ATOM     14  H   UNL     1      -2.595   2.149  10.585  0.00  0.00    -0.086 HD
ENDROOT
BRANCH   1  16
ATOM     15  N   UNL     1      -1.381  -1.007   5.657  0.00  0.00    -0.310 N 
ATOM     16  C   UNL     1      -1.880   0.168   5.226  0.00  0.00    +0.218 C 
ATOM     17  O   UNL     1      -1.204   0.896   4.529  0.00  0.00    -0.275 OA
ATOM     18  H   UNL     1      -1.922  -1.589   6.213  0.00  0.00    +0.149 HD
BRANCH  15  19
ATOM     19  C   UNL     1      -0.021  -1.406   5.284  0.00  0.00    +0.147 C 
BRANCH  19  25
ATOM     20  C   UNL     1      -0.520  -4.154   4.005  0.00  0.00    +0.044 C 
ATOM     21  C   UNL     1       0.093  -3.987   5.371  0.00  0.00    -0.039 A 
ATOM     22  C   UNL     1       0.467  -5.092   6.112  0.00  0.00    +0.011 A 
ATOM     23  C   UNL     1       1.016  -4.907   7.338  0.00  0.00    +0.046 A 
ATOM     24  S   UNL     1       1.018  -3.127   7.476  0.00  0.00    -0.100 S 
ATOM     25  C   UNL     1       0.291  -2.750   5.889  0.00  0.00    +0.010 A 
ENDBRANCH  19  25
ENDBRANCH  15  19
ENDBRANCH   1  16
BRANCH  11  26
ATOM     26  C   UNL     1      -6.557   2.616   3.708  0.00  0.00    +0.256 C 
ATOM     27  C   UNL     1      -5.729   3.073   2.506  0.00  0.00    +0.062 C 
BRANCH  26  28
ATOM     28  O   UNL     1      -7.853   3.216   3.650  0.00  0.00    -0.480 OA
BRANCH  28  29
ATOM     29  C   UNL     1      -8.792   2.585   2.898  0.00  0.00    +0.122 A 
ATOM     30  C   UNL     1      -8.448   1.468   2.151  0.00  0.00    +0.045 A 
ATOM     31  C   UNL     1      -9.405   0.827   1.387  0.00  0.00    +0.004 A 
ATOM     32  C   UNL     1     -10.705   1.299   1.367  0.00  0.00    +0.000 A 
ATOM     33  C   UNL     1     -11.050   2.413   2.111  0.00  0.00    +0.004 A 
ATOM     34  C   UNL     1     -10.098   3.053   2.881  0.00  0.00    +0.045 A 
ENDBRANCH  28  29
ENDBRANCH  26  28
ENDBRANCH  11  26
TORSDOF 6
