REMARK  Name = ZINC12364679
REMARK  4 active torsions:
REMARK  status: ('A' for Active; 'I' for Inactive)
REMARK    1  A    between atoms: C_1  and  N_2
REMARK    2  A    between atoms: C_6  and  S_12
REMARK    3  A    between atoms: S_12  and  N_15
REMARK    4  A    between atoms: N_15  and  C_16
REMARK                            x       y       z     vdW  Elec       q    Type
REMARK                         _______ _______ _______ _____ _____    ______ ____
ROOT
ATOM      1  S   UNL     1      -2.210   0.744   1.548  0.00  0.00    +0.059 S 
ATOM      2  O   UNL     1      -3.116   1.622   2.201  0.00  0.00    -0.153 OA
ATOM      3  O   UNL     1      -2.638  -0.235   0.611  0.00  0.00    -0.153 OA
ENDROOT
BRANCH   1   9
ATOM      4  C   UNL     1       1.359  -3.164   6.174  0.00  0.00    +0.156 C 
ATOM      5  N   UNL     1       0.628  -1.909   5.981  0.00  0.00    -0.277 N 
ATOM      6  C   UNL     1       0.021  -1.481   4.801  0.00  0.00    +0.090 A 
ATOM      7  C   UNL     1      -0.091  -2.033   3.534  0.00  0.00    +0.031 A 
ATOM      8  C   UNL     1      -0.777  -1.353   2.547  0.00  0.00    +0.031 A 
ATOM      9  C   UNL     1      -1.342  -0.119   2.816  0.00  0.00    +0.109 A 
ATOM     10  C   UNL     1      -1.234   0.438   4.075  0.00  0.00    +0.077 A 
ATOM     11  C   UNL     1      -0.552  -0.240   5.074  0.00  0.00    +0.159 A 
ATOM     12  O   UNL     1      -0.288   0.048   6.372  0.00  0.00    -0.407 OA
ATOM     13  C   UNL     1       0.420  -0.956   6.912  0.00  0.00    +0.421 A 
ATOM     14  O   UNL     1       0.814  -1.000   8.062  0.00  0.00    -0.223 OA
ENDBRANCH   1   9
BRANCH   1  15
ATOM     15  N   UNL     1      -1.108   1.699   0.764  0.00  0.00    -0.186 NA
ATOM     16  H   UNL     1      -1.187   2.665   0.804  0.00  0.00    +0.148 HD
BRANCH  15  17
ATOM     17  C   UNL     1      -0.013   1.086   0.008  0.00  0.00    +0.083 C 
ATOM     18  C   UNL     1       1.340   1.815  -0.001  0.00  0.00    +0.013 C 
ATOM     19  C   UNL     1       0.468   1.804  -1.247  0.00  0.00    +0.013 C 
ATOM     20  C   UNL     1       0.891   0.997  -2.465  0.00  0.00    +0.005 C 
ATOM     21  C   UNL     1       1.873  -0.104  -2.063  0.00  0.00    +0.000 C 
ATOM     22  C   UNL     1       3.048   0.538  -1.317  0.00  0.00    +0.000 C 
ATOM     23  C   UNL     1       2.580   0.927   0.086  0.00  0.00    +0.005 C 
ENDBRANCH  15  17
ENDBRANCH   1  15
TORSDOF 3
