REMARK  Name = ZINC36491317
REMARK  10 active torsions:
REMARK  status: ('A' for Active; 'I' for Inactive)
REMARK    1  A    between atoms: C_1  and  C_2
REMARK    2  A    between atoms: C_2  and  C_3
REMARK    3  A    between atoms: C_3  and  C_4
REMARK    4  A    between atoms: C_5  and  C_6
REMARK    5  A    between atoms: C_6  and  C_8
REMARK    6  A    between atoms: C_6  and  N_17
REMARK    7  A    between atoms: N_10  and  C_11
REMARK    8  A    between atoms: N_17  and  C_18
REMARK    9  A    between atoms: C_24  and  C_26
REMARK   10  A    between atoms: C_26  and  C_28
REMARK                            x       y       z     vdW  Elec       q    Type
REMARK                         _______ _______ _______ _____ _____    ______ ____
ROOT
ATOM      1  C   UNL     1      -1.365  -4.125   0.716  0.00  0.00    +0.185 C 
ENDROOT
BRANCH   1   2
ATOM      2  C   UNL     1      -1.565  -4.616   2.127  0.00  0.00    +0.238 C 
ATOM      3  O   UNL     1      -0.606  -4.907   2.809  0.00  0.00    -0.273 OA
ATOM      4  N   UNL     1      -2.810  -4.731   2.631  0.00  0.00    -0.311 N 
ATOM      5  H   UNL     1      -3.577  -4.498   2.085  0.00  0.00    +0.149 HD
BRANCH   4   6
ATOM      6  C   UNL     1      -3.004  -5.209   4.002  0.00  0.00    +0.073 C 
ATOM      7  C   UNL     1      -3.016  -6.739   4.012  0.00  0.00    +0.022 C 
ATOM      8  C   UNL     1      -3.219  -7.238   5.444  0.00  0.00    +0.002 C 
ATOM      9  C   UNL     1      -4.551  -6.713   5.983  0.00  0.00    +0.000 C 
ATOM     10  C   UNL     1      -4.540  -5.184   5.973  0.00  0.00    +0.002 C 
ATOM     11  C   UNL     1      -4.337  -4.685   4.540  0.00  0.00    +0.022 C 
ENDBRANCH   4   6
ENDBRANCH   1   2
BRANCH   1  12
ATOM     12  N   UNL     1       0.031  -3.720   0.533  0.00  0.00    -0.280 N 
ATOM     13  C   UNL     1       0.513  -2.647   1.191  0.00  0.00    +0.243 C 
ATOM     14  O   UNL     1       1.703  -2.397   1.156  0.00  0.00    -0.270 OA
BRANCH  12  15
ATOM     15  C   UNL     1       0.902  -4.482  -0.365  0.00  0.00    +0.077 C 
ATOM     16  C   UNL     1       2.089  -5.036   0.425  0.00  0.00    +0.022 C 
ATOM     17  C   UNL     1       2.999  -5.832  -0.513  0.00  0.00    +0.002 C 
ATOM     18  C   UNL     1       3.511  -4.915  -1.626  0.00  0.00    +0.000 C 
ATOM     19  C   UNL     1       2.324  -4.361  -2.416  0.00  0.00    +0.002 C 
ATOM     20  C   UNL     1       1.413  -3.566  -1.478  0.00  0.00    +0.022 C 
ENDBRANCH  12  15
BRANCH  13  21
ATOM     21  C   UNL     1      -0.399  -1.779   1.951  0.00  0.00    +0.004 C 
ATOM     22  C   UNL     1      -0.265  -0.457   1.888  0.00  0.00    +0.017 C 
ATOM     23  C   UNL     1      -1.484  -2.387   2.801  0.00  0.00    +0.048 C 
ENDBRANCH  13  21
ENDBRANCH   1  12
BRANCH   1  25
ATOM     24  C   UNL     1      -1.802  -1.884  -0.150  0.00  0.00    -0.029 C 
ATOM     25  C   UNL     1      -2.268  -2.944   0.463  0.00  0.00    +0.000 C 
BRANCH  24  26
ATOM     26  C   UNL     1      -2.705  -0.704  -0.403  0.00  0.00    +0.027 C 
BRANCH  26  28
ATOM     27  C   UNL     1      -2.986   1.757  -0.072  0.00  0.00    +0.004 C 
ATOM     28  C   UNL     1      -2.071   0.558   0.185  0.00  0.00    +0.001 C 
ENDBRANCH  26  28
ENDBRANCH  24  26
ENDBRANCH   1  25
TORSDOF 8
