REMARK  Name = ZINC18103214
REMARK  13 active torsions:
REMARK  status: ('A' for Active; 'I' for Inactive)
REMARK    1  A    between atoms: C_1  and  C_2
REMARK    2  A    between atoms: C_6  and  O_9
REMARK    3  A    between atoms: C_7  and  C_8
REMARK    4  A    between atoms: O_9  and  C_10
REMARK    5  A    between atoms: C_10  and  C_12
REMARK    6  A    between atoms: C_10  and  C_13
REMARK    7  A    between atoms: N_15  and  N_16
REMARK    8  A    between atoms: C_17  and  C_19
REMARK    9  A    between atoms: C_21  and  C_31
REMARK   10  A    between atoms: C_22  and  C_30
REMARK   11  A    between atoms: C_23  and  S_25
REMARK   12  A    between atoms: S_25  and  N_28
REMARK   13  A    between atoms: N_28  and  C_29
REMARK                            x       y       z     vdW  Elec       q    Type
REMARK                         _______ _______ _______ _____ _____    ______ ____
ROOT
ATOM      1  N   UNL     1       2.186   4.941  -0.543  0.00  0.00    -0.230 N 
ATOM      2  C   UNL     1       1.295   3.963  -0.287  0.00  0.00    +0.260 C 
ATOM      3  O   UNL     1       0.253   4.224   0.282  0.00  0.00    -0.269 OA
ATOM      4  H   UNL     1       3.018   4.733  -0.997  0.00  0.00    +0.173 HD
ENDROOT
BRANCH   2   5
ATOM      5  C   UNL     1       1.584   2.573  -0.699  0.00  0.00    +0.040 A 
ATOM      6  C   UNL     1       2.780   2.270  -1.351  0.00  0.00    +0.016 A 
ATOM      7  C   UNL     1       3.044   0.971  -1.732  0.00  0.00    -0.045 A 
ATOM      8  C   UNL     1       2.127  -0.031  -1.469  0.00  0.00    -0.021 A 
ATOM      9  C   UNL     1       0.940   0.263  -0.822  0.00  0.00    +0.109 A 
ATOM     10  C   UNL     1       0.663   1.558  -0.435  0.00  0.00    +0.042 A 
ATOM     11  C   UNL     1       2.422  -1.448  -1.887  0.00  0.00    +0.046 C 
ATOM     12  C   UNL     1       4.335   0.641  -2.438  0.00  0.00    +0.044 C 
BRANCH   9  13
ATOM     13  S   UNL     1      -0.222  -1.020  -0.491  0.00  0.00    +0.058 S 
ATOM     14  O   UNL     1      -1.310  -0.416   0.194  0.00  0.00    -0.153 OA
ATOM     15  O   UNL     1      -0.391  -1.739  -1.705  0.00  0.00    -0.153 OA
BRANCH  13  16
ATOM     16  N   UNL     1       0.491  -2.062   0.580  0.00  0.00    -0.193 NA
ATOM     17  C   UNL     1       0.855  -1.599   1.922  0.00  0.00    +0.127 C 
ATOM     18  H   UNL     1       0.668  -2.980   0.320  0.00  0.00    +0.148 HD
ENDBRANCH  13  16
ENDBRANCH   9  13
ENDBRANCH   2   5
BRANCH   1  21
ATOM     19  C   UNL     1       2.803   7.237  -0.408  0.00  0.00    +0.270 C 
ATOM     20  O   UNL     1       3.843   6.976  -0.976  0.00  0.00    -0.270 OA
ATOM     21  N   UNL     1       1.912   6.258  -0.153  0.00  0.00    -0.231 N 
ATOM     22  H   UNL     1       1.080   6.467   0.301  0.00  0.00    +0.173 HD
BRANCH  19  23
ATOM     23  C   UNL     1       2.508   8.653   0.011  0.00  0.00    +0.257 C 
ATOM     24  C   UNL     1       1.227   9.132  -0.675  0.00  0.00    +0.062 C 
BRANCH  23  25
ATOM     25  O   UNL     1       3.596   9.499  -0.368  0.00  0.00    -0.480 OA
BRANCH  25  31
ATOM     26  C   UNL     1       6.228  13.501   0.568  0.00  0.00    +0.044 C 
ATOM     27  C   UNL     1       5.037  12.617   0.832  0.00  0.00    -0.044 A 
ATOM     28  C   UNL     1       4.118  12.967   1.804  0.00  0.00    +0.004 A 
ATOM     29  C   UNL     1       3.025  12.158   2.049  0.00  0.00    +0.004 A 
ATOM     30  C   UNL     1       2.844  10.999   1.319  0.00  0.00    +0.046 A 
ATOM     31  C   UNL     1       3.768  10.642   0.347  0.00  0.00    +0.125 A 
ATOM     32  C   UNL     1       4.865  11.456   0.104  0.00  0.00    -0.006 A 
ATOM     33  C   UNL     1       5.867  11.074  -0.954  0.00  0.00    +0.048 C 
ENDBRANCH  25  31
ENDBRANCH  23  25
ENDBRANCH  19  23
ENDBRANCH   1  21
TORSDOF 7
