REMARK  Name = ZINC05741043
REMARK  4 active torsions:
REMARK  status: ('A' for Active; 'I' for Inactive)
REMARK    1  A    between atoms: C_4  and  C_7
REMARK    2  A    between atoms: C_7  and  C_8
REMARK    3  A    between atoms: N_10  and  C_21
REMARK    4  A    between atoms: C_13  and  N_54
REMARK                            x       y       z     vdW  Elec       q    Type
REMARK                         _______ _______ _______ _____ _____    ______ ____
ROOT
ATOM      1  C   UNL     1      -1.617   4.011  -4.387  0.00  0.00    +0.031 C 
ATOM      2  C   UNL     1      -1.012   4.334  -3.010  0.00  0.00    +0.120 C 
ATOM      3  N   UNL     1      -1.862   3.496  -2.111  0.00  0.00    -0.297 N 
ATOM      4  C   UNL     1      -3.095   3.307  -2.692  0.00  0.00    +0.222 C 
ATOM      5  O   UNL     1      -3.983   2.584  -2.292  0.00  0.00    -0.275 OA
ATOM      6  C   UNL     1      -3.121   4.148  -3.881  0.00  0.00    +0.084 C 
ATOM      7  N   UNL     1      -3.784   4.109  -5.138  0.00  0.00    -0.346 N 
ATOM      8  C   UNL     1      -3.029   5.053  -5.896  0.00  0.00    +0.030 A 
ATOM      9  C   UNL     1      -1.702   5.091  -5.426  0.00  0.00    -0.018 A 
ATOM     10  C   UNL     1      -0.807   5.977  -5.974  0.00  0.00    +0.006 A 
ATOM     11  C   UNL     1      -1.195   6.809  -7.010  0.00  0.00    +0.000 A 
ATOM     12  C   UNL     1      -2.487   6.750  -7.500  0.00  0.00    +0.002 A 
ATOM     13  C   UNL     1      -3.401   5.875  -6.945  0.00  0.00    +0.023 A 
ATOM     14  H   UNL     1      -4.551   3.580  -5.409  0.00  0.00    +0.145 HD
ENDROOT
BRANCH   3  15
ATOM     15  C   UNL     1      -1.448   2.963  -0.811  0.00  0.00    +0.076 C 
ATOM     16  C   UNL     1      -1.530   1.436  -0.836  0.00  0.00    +0.022 C 
ATOM     17  C   UNL     1      -1.098   0.879   0.522  0.00  0.00    +0.002 C 
ATOM     18  C   UNL     1      -2.023   1.422   1.613  0.00  0.00    +0.000 C 
ATOM     19  C   UNL     1      -1.942   2.950   1.638  0.00  0.00    +0.002 C 
ATOM     20  C   UNL     1      -2.374   3.506   0.280  0.00  0.00    +0.022 C 
ENDBRANCH   3  15
BRANCH   6  23
ATOM     21  H   UNL     1      -3.310   6.174  -4.190  0.00  0.00    -0.086 HD
ATOM     22  H   UNL     1      -3.877   5.664  -2.712  0.00  0.00    -0.086 HD
ATOM     23  N   UNL     1      -3.143   5.543  -3.408  0.00  0.00    +0.398 N 
ATOM     24  H   UNL     1      -2.236   5.770  -2.982  0.00  0.00    -0.086 HD
ENDBRANCH   6  23
BRANCH   1  25
ATOM     25  C   UNL     1      -1.226   2.643  -4.947  0.00  0.00    +0.049 C 
BRANCH  25  29
ATOM     26  C   UNL     1       2.864   2.725  -6.178  0.00  0.00    +0.000 A 
ATOM     27  C   UNL     1       2.539   2.361  -4.885  0.00  0.00    +0.000 A 
ATOM     28  C   UNL     1       1.215   2.334  -4.487  0.00  0.00    +0.003 A 
ATOM     29  C   UNL     1       0.217   2.672  -5.381  0.00  0.00    -0.046 A 
ATOM     30  C   UNL     1       0.542   3.031  -6.676  0.00  0.00    +0.003 A 
ATOM     31  C   UNL     1       1.866   3.062  -7.073  0.00  0.00    +0.000 A 
ENDBRANCH  25  29
ENDBRANCH   1  25
TORSDOF 4
