REMARK  Name = ZINC35368389
REMARK  4 active torsions:
REMARK  status: ('A' for Active; 'I' for Inactive)
REMARK    1  A    between atoms: C_5  and  C_6
REMARK    2  A    between atoms: C_6  and  N_7
REMARK    3  A    between atoms: N_10  and  C_13
REMARK    4  A    between atoms: C_18  and  N_19
REMARK                            x       y       z     vdW  Elec       q    Type
REMARK                         _______ _______ _______ _____ _____    ______ ____
ROOT
ATOM      1  N   UNL     1      -1.546  -1.275  -1.374  0.00  0.00    -0.295 NA
ATOM      2  C   UNL     1      -2.079  -0.083  -2.047  0.00  0.00    +0.103 C 
ATOM      3  C   UNL     1      -2.303  -0.395  -3.530  0.00  0.00    +0.120 C 
ATOM      4  N   UNL     1      -3.146  -1.596  -3.633  0.00  0.00    -0.326 N 
ATOM      5  C   UNL     1      -2.749  -2.791  -2.874  0.00  0.00    +0.120 C 
ATOM      6  C   UNL     1      -2.507  -2.385  -1.417  0.00  0.00    +0.103 C 
ENDROOT
BRANCH   4   7
ATOM      7  C   UNL     1      -4.292  -1.601  -4.429  0.00  0.00    +0.053 A 
ATOM      8  C   UNL     1      -4.231  -1.984  -5.766  0.00  0.00    +0.042 A 
ATOM      9  C   UNL     1      -5.387  -1.976  -6.520  0.00  0.00    +0.084 A 
ATOM     10  N   UNL     1      -6.540  -1.612  -5.993  0.00  0.00    -0.365 N 
ATOM     11  C   UNL     1      -6.644  -1.240  -4.730  0.00  0.00    +0.107 A 
ATOM     12  C   UNL     1      -5.534  -1.225  -3.903  0.00  0.00    +0.062 A 
ATOM     13  H   UNL     1      -7.335  -1.617  -6.549  0.00  0.00    +0.165 HD
BRANCH  12  14
ATOM     14  N   UNL     1      -5.651  -0.836  -2.562  0.00  0.00    -0.355 N 
ATOM     15  H   UNL     1      -4.867  -0.825  -1.990  0.00  0.00    +0.142 HD
ATOM     16  H   UNL     1      -6.515  -0.578  -2.206  0.00  0.00    +0.142 HD
ENDBRANCH  12  14
ENDBRANCH   4   7
BRANCH   1  17
ATOM     17  C   UNL     1      -1.156  -0.969   0.009  0.00  0.00    +0.127 C 
BRANCH  17  22
ATOM     18  C   UNL     1      -0.016   1.351   0.009  0.00  0.00    +0.013 A 
ATOM     19  C   UNL     1       1.183   2.038   0.002  0.00  0.00    +0.023 A 
ATOM     20  C   UNL     1       2.343   1.335  -0.013  0.00  0.00    +0.055 A 
ATOM     21  S   UNL     1       1.753  -0.350  -0.017  0.00  0.00    -0.085 S 
ATOM     22  C   UNL     1       0.002  -0.004   0.002  0.00  0.00    +0.005 A 
ATOM     23 BR   UNL     1       4.123   1.974  -0.027  0.00  0.00    -0.043 Br
ENDBRANCH  17  22
ENDBRANCH   1  17
TORSDOF 4
