REMARK  Name = ZINC35668118
REMARK  13 active torsions:
REMARK  status: ('A' for Active; 'I' for Inactive)
REMARK    1  A    between atoms: C_1  and  C_2
REMARK    2  A    between atoms: C_2  and  C_3
REMARK    3  A    between atoms: C_3  and  N_4
REMARK    4  A    between atoms: C_12  and  O_29
REMARK    5  A    between atoms: C_13  and  O_27
REMARK    6  A    between atoms: C_16  and  C_18
REMARK    7  A    between atoms: C_18  and  N_19
REMARK    8  A    between atoms: N_22  and  C_23
REMARK    9  A    between atoms: C_23  and  C_24
REMARK   10  A    between atoms: C_23  and  C_25
REMARK   11  A    between atoms: C_23  and  C_26
REMARK   12  A    between atoms: O_27  and  C_28
REMARK   13  A    between atoms: O_29  and  C_30
REMARK                            x       y       z     vdW  Elec       q    Type
REMARK                         _______ _______ _______ _____ _____    ______ ____
ROOT
ATOM      1  N   UNL     1       1.948  -1.971   3.244  0.00  0.00    -0.299 N 
ATOM      2  C   UNL     1       1.364  -2.647   2.235  0.00  0.00    +0.303 C 
ATOM      3  O   UNL     1       0.743  -2.046   1.379  0.00  0.00    -0.253 OA
ATOM      4  N   UNL     1       1.469  -3.989   2.174  0.00  0.00    -0.277 N 
ATOM      5  C   UNL     1       0.942  -4.747   1.027  0.00  0.00    +0.114 C 
ATOM      6  C   UNL     1       2.124  -5.409   0.320  0.00  0.00    +0.054 C 
ATOM      7  C   UNL     1       3.024  -6.099   1.311  0.00  0.00    -0.037 A 
ATOM      8  C   UNL     1       3.877  -7.085   0.826  0.00  0.00    +0.053 A 
ATOM      9  C   UNL     1       4.737  -7.752   1.678  0.00  0.00    +0.162 A 
ATOM     10  C   UNL     1       4.751  -7.432   3.033  0.00  0.00    +0.162 A 
ATOM     11  C   UNL     1       3.899  -6.454   3.511  0.00  0.00    +0.055 A 
ATOM     12  C   UNL     1       3.033  -5.790   2.652  0.00  0.00    -0.019 A 
ATOM     13  C   UNL     1       2.118  -4.753   3.245  0.00  0.00    +0.125 C 
ATOM     14  H   UNL     1       2.380  -2.454   3.966  0.00  0.00    +0.150 HD
ENDROOT
BRANCH  10  15
ATOM     15  O   UNL     1       5.596  -8.078   3.880  0.00  0.00    -0.491 OA
ATOM     16  C   UNL     1       5.553  -7.696   5.256  0.00  0.00    +0.277 C 
ENDBRANCH  10  15
BRANCH   9  17
ATOM     17  O   UNL     1       5.566  -8.715   1.195  0.00  0.00    -0.491 OA
ATOM     18  C   UNL     1       5.496  -8.989  -0.206  0.00  0.00    +0.277 C 
ENDBRANCH   9  17
BRANCH   1  19
ATOM     19  C   UNL     1       1.930  -0.506   3.251  0.00  0.00    +0.105 C 
BRANCH  19  21
ATOM     20  C   UNL     1       2.636   1.537   4.505  0.00  0.00    +0.005 C 
ATOM     21  C   UNL     1       2.655   0.007   4.497  0.00  0.00    +0.015 C 
ENDBRANCH  19  21
ENDBRANCH   1  19
BRANCH  13  22
ATOM     22  C   UNL     1       1.050  -5.447   4.093  0.00  0.00    +0.133 C 
BRANCH  22  23
ATOM     23  N   UNL     1       0.092  -4.453   4.582  0.00  0.00    -0.297 N 
ATOM     24  C   UNL     1      -0.943  -4.837   5.356  0.00  0.00    +0.300 C 
ATOM     25  O   UNL     1      -1.081  -6.009   5.648  0.00  0.00    -0.253 OA
ATOM     26  N   UNL     1      -1.824  -3.922   5.806  0.00  0.00    -0.295 N 
ATOM     27  H   UNL     1       0.202  -3.518   4.349  0.00  0.00    +0.150 HD
ATOM     28  H   UNL     1      -1.714  -2.987   5.573  0.00  0.00    +0.151 HD
BRANCH  26  29
ATOM     29  C   UNL     1      -2.948  -4.340   6.647  0.00  0.00    +0.028 C 
ATOM     30  C   UNL     1      -2.415  -4.997   7.921  0.00  0.00    +0.031 C 
ATOM     31  C   UNL     1      -3.790  -3.117   7.018  0.00  0.00    +0.031 C 
ATOM     32  C   UNL     1      -3.814  -5.341   5.880  0.00  0.00    +0.031 C 
ENDBRANCH  26  29
ENDBRANCH  22  23
ENDBRANCH  13  22
TORSDOF 7
