REMARK  Name = ZINC58982845
REMARK  9 active torsions:
REMARK  status: ('A' for Active; 'I' for Inactive)
REMARK    1  A    between atoms: C_1  and  C_2
REMARK    2  A    between atoms: C_2  and  C_28
REMARK    3  A    between atoms: C_3  and  C_4
REMARK    4  A    between atoms: C_6  and  C_11
REMARK    5  A    between atoms: C_8  and  C_9
REMARK    6  A    between atoms: C_8  and  C_10
REMARK    7  A    between atoms: N_13  and  C_14
REMARK    8  A    between atoms: C_18  and  C_20
REMARK    9  A    between atoms: C_20  and  C_27
REMARK                            x       y       z     vdW  Elec       q    Type
REMARK                         _______ _______ _______ _____ _____    ______ ____
ROOT
ATOM      1  C   UNL     1       5.638  -0.017   4.169  0.00  0.00    +0.034 A 
ATOM      2  C   UNL     1       6.689  -0.834   4.565  0.00  0.00    +0.023 A 
ATOM      3  C   UNL     1       7.784  -0.285   5.204  0.00  0.00    +0.002 A 
ATOM      4  C   UNL     1       7.834   1.075   5.450  0.00  0.00    +0.006 A 
ATOM      5  C   UNL     1       6.789   1.890   5.057  0.00  0.00    -0.014 A 
ATOM      6  C   UNL     1       5.694   1.349   4.411  0.00  0.00    +0.029 A 
ENDROOT
BRANCH   5   7
ATOM      7  C   UNL     1       6.847   3.372   5.327  0.00  0.00    +0.135 C 
ATOM      8  C   UNL     1       6.923   4.148   4.027  0.00  0.00    +0.248 C 
ATOM      9  O   UNL     1       6.102   4.166   3.135  0.00  0.00    -0.273 OA
ATOM     10  N   UNL     1       8.094   4.814   4.069  0.00  0.00    -0.238 N 
ATOM     11  C   UNL     1       8.761   4.570   5.202  0.00  0.00    +0.307 C 
ATOM     12  O   UNL     1       9.841   5.058   5.469  0.00  0.00    -0.252 OA
ATOM     13  N   UNL     1       8.101   3.724   6.014  0.00  0.00    -0.282 N 
ATOM     14  C   UNL     1       5.637   3.815   6.152  0.00  0.00    +0.047 C 
ATOM     15  H   UNL     1       8.413   5.399   3.364  0.00  0.00    +0.159 HD
ATOM     16  H   UNL     1       8.394   3.408   6.883  0.00  0.00    +0.152 HD
ENDBRANCH   5   7
BRANCH   1  19
ATOM     17  C   UNL     1       3.298  -0.061   3.739  0.00  0.00    +0.221 C 
ATOM     18  O   UNL     1       3.164   0.926   4.432  0.00  0.00    -0.275 OA
ATOM     19  N   UNL     1       4.527  -0.569   3.521  0.00  0.00    -0.285 N 
ATOM     20  H   UNL     1       4.642  -1.318   2.915  0.00  0.00    +0.155 HD
BRANCH  17  22
ATOM     21  C   UNL     1       0.715  -0.163   3.498  0.00  0.00    +0.030 C 
ATOM     22  C   UNL     1       2.091  -0.719   3.123  0.00  0.00    +0.089 C 
ATOM     23  C   UNL     1       1.169  -1.516   4.050  0.00  0.00    -0.016 C 
ATOM     24  C   UNL     1       1.545  -1.584   5.532  0.00  0.00    +0.012 C 
ATOM     25  C   UNL     1       0.506  -2.771   3.479  0.00  0.00    +0.012 C 
BRANCH  21  28
ATOM     26  C   UNL     1      -1.730   1.162   3.946  0.00  0.00    +0.038 C 
ATOM     27  C   UNL     1      -1.488   0.448   2.642  0.00  0.00    -0.079 C 
ATOM     28  C   UNL     1      -0.351  -0.169   2.433  0.00  0.00    -0.023 C 
ATOM     29  C   UNL     1      -2.555   0.442   1.577  0.00  0.00    +0.038 C 
ENDBRANCH  21  28
ENDBRANCH  17  22
ENDBRANCH   1  19
TORSDOF 4
