REMARK  Name = ZINC12051080
REMARK  7 active torsions:
REMARK  status: ('A' for Active; 'I' for Inactive)
REMARK    1  A    between atoms: C_1  and  C_2
REMARK    2  A    between atoms: N_11  and  S_12
REMARK    3  A    between atoms: S_12  and  C_15
REMARK    4  A    between atoms: C_19  and  C_21
REMARK    5  A    between atoms: N_23  and  C_24
REMARK    6  A    between atoms: C_24  and  C_26
REMARK    7  A    between atoms: C_24  and  C_32
REMARK                            x       y       z     vdW  Elec       q    Type
REMARK                         _______ _______ _______ _____ _____    ______ ____
ROOT
ATOM      1  C   UNL     1      -0.761  -1.546   3.229  0.00  0.00    +0.109 A 
ATOM      2  C   UNL     1      -2.127  -1.419   3.051  0.00  0.00    +0.029 A 
ATOM      3  C   UNL     1      -2.978  -2.442   3.429  0.00  0.00    +0.003 A 
ATOM      4  C   UNL     1      -2.469  -3.596   3.987  0.00  0.00    +0.013 A 
ATOM      5  C   UNL     1      -1.092  -3.731   4.170  0.00  0.00    +0.039 A 
ATOM      6  C   UNL     1      -0.238  -2.697   3.781  0.00  0.00    +0.041 A 
ENDROOT
BRANCH   5   7
ATOM      7  C   UNL     1      -0.539  -4.965   4.768  0.00  0.00    +0.245 C 
ATOM      8  O   UNL     1       0.661  -5.079   4.926  0.00  0.00    -0.270 OA
ATOM      9  N   UNL     1      -1.365  -5.963   5.138  0.00  0.00    -0.296 N 
ATOM     10  H   UNL     1      -2.323  -5.872   5.012  0.00  0.00    +0.150 HD
BRANCH   9  11
ATOM     11  C   UNL     1      -0.818  -7.186   5.730  0.00  0.00    +0.189 C 
BRANCH  11  12
ATOM     12  C   UNL     1      -1.868  -7.843   6.588  0.00  0.00    -0.018 A 
ATOM     13  C   UNL     1      -3.183  -7.882   6.162  0.00  0.00    +0.006 A 
ATOM     14  C   UNL     1      -4.147  -8.485   6.949  0.00  0.00    +0.000 A 
ATOM     15  C   UNL     1      -3.796  -9.048   8.161  0.00  0.00    +0.000 A 
ATOM     16  C   UNL     1      -2.481  -9.010   8.587  0.00  0.00    +0.000 A 
ATOM     17  C   UNL     1      -1.517  -8.411   7.798  0.00  0.00    +0.006 A 
ENDBRANCH  11  12
BRANCH  11  18
ATOM     18  C   UNL     1      -0.401  -8.132   4.634  0.00  0.00    +0.235 C 
ATOM     19  O   UNL     1      -0.546  -7.816   3.472  0.00  0.00    -0.274 OA
ATOM     20  N   UNL     1       0.135  -9.329   4.945  0.00  0.00    -0.328 N 
ATOM     21  H   UNL     1       0.251  -9.582   5.874  0.00  0.00    +0.145 HD
ATOM     22  H   UNL     1       0.403  -9.938   4.239  0.00  0.00    +0.145 HD
ENDBRANCH  11  18
ENDBRANCH   9  11
ENDBRANCH   5   7
BRANCH   1  23
ATOM     23  S   UNL     1       0.314  -0.237   2.744  0.00  0.00    +0.075 S 
ATOM     24  O   UNL     1       1.501  -0.380   3.512  0.00  0.00    -0.150 OA
ATOM     25  O   UNL     1      -0.463   0.953   2.758  0.00  0.00    -0.150 OA
BRANCH  23  35
ATOM     26  C   UNL     1      -0.019   1.526   0.010  0.00  0.00    +0.030 C 
ATOM     27  C   UNL     1       0.002  -0.004   0.002  0.00  0.00    +0.099 C 
ATOM     28  C   UNL     1       0.778  -0.520  -1.221  0.00  0.00    +0.061 C 
ATOM     29  C   UNL     1       1.931  -1.304  -0.635  0.00  0.00    -0.023 A 
ATOM     30  C   UNL     1       2.960  -1.995  -1.246  0.00  0.00    +0.005 A 
ATOM     31  C   UNL     1       3.911  -2.644  -0.481  0.00  0.00    +0.000 A 
ATOM     32  C   UNL     1       3.831  -2.599   0.899  0.00  0.00    +0.002 A 
ATOM     33  C   UNL     1       2.807  -1.911   1.513  0.00  0.00    +0.025 A 
ATOM     34  C   UNL     1       1.842  -1.253   0.747  0.00  0.00    +0.055 A 
ATOM     35  N   UNL     1       0.735  -0.509   1.166  0.00  0.00    -0.200 N 
ENDBRANCH  23  35
ENDBRANCH   1  23
TORSDOF 6
