REMARK  Name = ZINC11441251
REMARK  12 active torsions:
REMARK  status: ('A' for Active; 'I' for Inactive)
REMARK    1  A    between atoms: C_1  and  C_2
REMARK    2  A    between atoms: C_6  and  C_31
REMARK    3  A    between atoms: C_7  and  N_8
REMARK    4  A    between atoms: C_9  and  C_11
REMARK    5  A    between atoms: C_11  and  O_12
REMARK    6  A    between atoms: O_12  and  C_13
REMARK    7  A    between atoms: C_13  and  C_15
REMARK    8  A    between atoms: C_15  and  C_16
REMARK    9  A    between atoms: C_16  and  N_17
REMARK   10  A    between atoms: N_20  and  C_21
REMARK   11  A    between atoms: C_31  and  C_32
REMARK   12  A    between atoms: C_31  and  C_33
REMARK                            x       y       z     vdW  Elec       q    Type
REMARK                         _______ _______ _______ _____ _____    ______ ____
ROOT
ATOM      1  C   UNL     1      -9.252  -0.212   4.476  0.00  0.00    +0.309 C 
ATOM      2  O   UNL     1      -8.964   0.910   4.819  0.00  0.00    -0.251 OA
ENDROOT
BRANCH   1   3
ATOM      3  O   UNL     1     -10.539  -0.590   4.425  0.00  0.00    -0.455 OA
BRANCH   3   4
ATOM      4  C   UNL     1     -11.532   0.402   4.796  0.00  0.00    +0.328 C 
BRANCH   4   6
ATOM      5  N   UNL     1     -13.995   0.544   4.975  0.00  0.00    -0.282 N 
ATOM      6  C   UNL     1     -12.909  -0.198   4.678  0.00  0.00    +0.255 C 
ATOM      7  O   UNL     1     -13.041  -1.348   4.317  0.00  0.00    -0.272 OA
ATOM      8  H   UNL     1     -13.888   1.446   5.314  0.00  0.00    +0.155 HD
BRANCH   5  15
ATOM      9  C   UNL     1     -14.640  -0.573   2.438  0.00  0.00    +0.045 C 
ATOM     10  C   UNL     1     -15.633  -0.543   3.572  0.00  0.00    -0.029 A 
ATOM     11  C   UNL     1     -16.897  -1.073   3.398  0.00  0.00    +0.005 A 
ATOM     12  C   UNL     1     -17.810  -1.040   4.435  0.00  0.00    +0.001 A 
ATOM     13  C   UNL     1     -17.460  -0.483   5.652  0.00  0.00    +0.006 A 
ATOM     14  C   UNL     1     -16.196   0.043   5.834  0.00  0.00    -0.023 A 
ATOM     15  C   UNL     1     -15.276   0.012   4.793  0.00  0.00    +0.040 A 
BRANCH  14  16
ATOM     16  C   UNL     1     -15.815   0.649   7.160  0.00  0.00    +0.015 C 
ATOM     17  C   UNL     1     -16.750   1.819   7.473  0.00  0.00    +0.012 C 
ATOM     18  C   UNL     1     -15.937  -0.409   8.258  0.00  0.00    +0.012 C 
ENDBRANCH  14  16
ENDBRANCH   5  15
ENDBRANCH   4   6
ENDBRANCH   3   4
ENDBRANCH   1   3
BRANCH   1  19
ATOM     19  C   UNL     1      -8.165  -1.188   4.104  0.00  0.00    +0.139 C 
BRANCH  19  20
ATOM     20  C   UNL     1      -6.800  -0.510   4.247  0.00  0.00    +0.117 C 
BRANCH  20  21
ATOM     21  N   UNL     1      -5.744  -1.459   3.886  0.00  0.00    -0.299 N 
ATOM     22  C   UNL     1      -4.452  -1.080   3.938  0.00  0.00    +0.300 C 
ATOM     23  O   UNL     1      -4.163   0.049   4.284  0.00  0.00    -0.253 OA
ATOM     24  N   UNL     1      -3.480  -1.952   3.606  0.00  0.00    -0.294 N 
ATOM     25  H   UNL     1      -5.974  -2.360   3.610  0.00  0.00    +0.150 HD
ATOM     26  H   UNL     1      -3.710  -2.853   3.330  0.00  0.00    +0.151 HD
BRANCH  24  27
ATOM     27  C   UNL     1      -2.075  -1.540   3.662  0.00  0.00    +0.037 C 
ATOM     28  C   UNL     1      -1.183  -2.709   3.239  0.00  0.00    +0.029 C 
ATOM     29  C   UNL     1       0.284  -2.279   3.297  0.00  0.00    -0.008 C 
ATOM     30  C   UNL     1       0.636  -1.860   4.726  0.00  0.00    +0.007 C 
ATOM     31  C   UNL     1      -0.256  -0.691   5.148  0.00  0.00    -0.008 C 
ATOM     32  C   UNL     1      -1.723  -1.121   5.090  0.00  0.00    +0.029 C 
ATOM     33  C   UNL     1      -0.032   0.490   4.201  0.00  0.00    +0.007 C 
ATOM     34  C   UNL     1      -0.385   0.070   2.772  0.00  0.00    -0.008 C 
ATOM     35  C   UNL     1       0.507  -1.099   2.349  0.00  0.00    +0.007 C 
ATOM     36  C   UNL     1      -1.852  -0.360   2.714  0.00  0.00    +0.029 C 
ENDBRANCH  24  27
ENDBRANCH  20  21
ENDBRANCH  19  20
ENDBRANCH   1  19
TORSDOF 9
