REMARK  Name = ZINC45698596
REMARK  8 active torsions:
REMARK  status: ('A' for Active; 'I' for Inactive)
REMARK    1  A    between atoms: C_1  and  C_2
REMARK    2  A    between atoms: N_5  and  C_11
REMARK    3  A    between atoms: C_7  and  C_9
REMARK    4  A    between atoms: C_7  and  C_10
REMARK    5  A    between atoms: C_11  and  C_12
REMARK    6  A    between atoms: C_16  and  C_19
REMARK    7  A    between atoms: C_17  and  O_18
REMARK    8  A    between atoms: C_19  and  C_21
REMARK                            x       y       z     vdW  Elec       q    Type
REMARK                         _______ _______ _______ _____ _____    ______ ____
ROOT
ATOM      1  C   UNL     1       0.552  -2.207  -3.626  0.00  0.00    +0.010 A 
ATOM      2  C   UNL     1      -0.261  -3.204  -4.129  0.00  0.00    +0.028 A 
ATOM      3  C   UNL     1      -1.081  -2.958  -5.220  0.00  0.00    +0.042 A 
ATOM      4  C   UNL     1      -1.095  -1.714  -5.813  0.00  0.00    +0.035 A 
ATOM      5  C   UNL     1      -0.277  -0.694  -5.314  0.00  0.00    +0.060 A 
ATOM      6  C   UNL     1       0.548  -0.947  -4.206  0.00  0.00    +0.132 A 
ATOM      7 CL   UNL     1      -2.095  -4.223  -5.840  0.00  0.00    -0.084 Cl
ENDROOT
BRANCH   5   8
ATOM      8  C   UNL     1      -0.286   0.633  -5.941  0.00  0.00    +0.164 C 
ATOM      9  O   UNL     1       0.424   1.514  -5.504  0.00  0.00    -0.292 OA
ATOM     10  C   UNL     1      -1.177   0.901  -7.126  0.00  0.00    +0.092 C 
ENDBRANCH   5   8
BRANCH   6  11
ATOM     11  O   UNL     1       1.342   0.034  -3.709  0.00  0.00    -0.506 OA
ATOM     12  H   UNL     1       2.221   0.069  -4.110  0.00  0.00    +0.292 HD
ENDBRANCH   6  11
BRANCH   1  13
ATOM     13  C   UNL     1       1.439  -2.486  -2.440  0.00  0.00    +0.123 C 
BRANCH  13  17
ATOM     14  C   UNL     1      -0.019   1.526   0.010  0.00  0.00    +0.039 C 
ATOM     15  C   UNL     1       0.002  -0.004   0.002  0.00  0.00    +0.130 C 
ATOM     16  C   UNL     1       0.720  -0.499  -1.256  0.00  0.00    +0.116 C 
ATOM     17  N   UNL     1       0.805  -1.966  -1.221  0.00  0.00    -0.293 NA
ATOM     18  C   UNL     1       1.523  -2.417  -0.020  0.00  0.00    +0.119 C 
ATOM     19  C   UNL     1       0.797  -1.904   1.226  0.00  0.00    +0.077 C 
ATOM     20  O   UNL     1       0.695  -0.479   1.159  0.00  0.00    -0.368 OA
ATOM     21  C   UNL     1      -0.605  -2.513   1.287  0.00  0.00    +0.042 C 
ATOM     22  C   UNL     1       1.583  -2.302   2.476  0.00  0.00    +0.042 C 
ENDBRANCH  13  17
ENDBRANCH   1  13
TORSDOF 4
