REMARK  Name = ZINC09968328
REMARK  8 active torsions:
REMARK  status: ('A' for Active; 'I' for Inactive)
REMARK    1  A    between atoms: C_1  and  C_2
REMARK    2  A    between atoms: C_3  and  N_9
REMARK    3  A    between atoms: C_10  and  C_25
REMARK    4  A    between atoms: C_13  and  S_14
REMARK    5  A    between atoms: S_14  and  C_15
REMARK    6  A    between atoms: C_15  and  C_17
REMARK    7  A    between atoms: C_15  and  C_18
REMARK    8  A    between atoms: N_23  and  C_24
REMARK                            x       y       z     vdW  Elec       q    Type
REMARK                         _______ _______ _______ _____ _____    ______ ____
ROOT
ATOM      1  N   UNL     1       3.392  -5.448  -1.063  0.00  0.00    -0.270 N 
ATOM      2  C   UNL     1       2.718  -6.643  -0.937  0.00  0.00    +0.169 A 
ATOM      3  N   UNL     1       1.513  -6.362  -0.498  0.00  0.00    -0.128 NA
ATOM      4  N   UNL     1       1.389  -5.093  -0.338  0.00  0.00    -0.122 NA
ATOM      5  C   UNL     1       2.506  -4.483  -0.673  0.00  0.00    +0.197 A 
ENDROOT
BRANCH   1   8
ATOM      6  C   UNL     1       3.847  -5.060  -3.846  0.00  0.00    +0.047 C 
ATOM      7  C   UNL     1       4.976  -5.067  -2.848  0.00  0.00    -0.008 A 
ATOM      8  C   UNL     1       4.711  -5.260  -1.499  0.00  0.00    +0.055 A 
ATOM      9  C   UNL     1       5.754  -5.262  -0.583  0.00  0.00    +0.026 A 
ATOM     10  C   UNL     1       7.053  -5.082  -1.016  0.00  0.00    +0.003 A 
ATOM     11  C   UNL     1       7.316  -4.890  -2.360  0.00  0.00    +0.020 A 
ATOM     12  C   UNL     1       6.278  -4.883  -3.276  0.00  0.00    +0.046 A 
ATOM     13 CL   UNL     1       6.611  -4.642  -4.962  0.00  0.00    -0.083 Cl
ENDBRANCH   1   8
BRANCH   2  14
ATOM     14  C   UNL     1       3.251  -7.988  -1.238  0.00  0.00    +0.022 A 
ATOM     15  C   UNL     1       4.422  -8.146  -1.991  0.00  0.00    +0.031 A 
ATOM     16  C   UNL     1       4.885  -9.420  -2.245  0.00  0.00    +0.111 A 
ATOM     17  N   UNL     1       4.237 -10.479  -1.799  0.00  0.00    -0.263 NA
ATOM     18  C   UNL     1       3.128 -10.375  -1.091  0.00  0.00    +0.111 A 
ATOM     19  C   UNL     1       2.596  -9.140  -0.785  0.00  0.00    +0.031 A 
ENDBRANCH   2  14
BRANCH   5  20
ATOM     20  S   UNL     1       2.805  -2.747  -0.623  0.00  0.00    -0.073 S 
BRANCH  20  21
ATOM     21  C   UNL     1       1.199  -2.169  -0.021  0.00  0.00    +0.137 C 
ATOM     22  C   UNL     1       0.969  -2.690   1.399  0.00  0.00    +0.029 C 
BRANCH  21  23
ATOM     23  C   UNL     1       1.178  -0.662  -0.013  0.00  0.00    +0.233 C 
ATOM     24  O   UNL     1       2.220  -0.042  -0.019  0.00  0.00    -0.274 OA
ATOM     25  N   UNL     1       0.002  -0.004   0.002  0.00  0.00    -0.239 N 
ATOM     26  C   UNL     1      -0.016   1.344   0.009  0.00  0.00    +0.306 C 
ATOM     27  O   UNL     1       1.028   1.966   0.003  0.00  0.00    -0.252 OA
ATOM     28  N   UNL     1      -1.192   2.002   0.019  0.00  0.00    -0.302 N 
ATOM     29  C   UNL     1      -1.212   3.466   0.027  0.00  0.00    +0.129 C 
ATOM     30  H   UNL     1      -0.831  -0.500   0.007  0.00  0.00    +0.159 HD
ATOM     31  H   UNL     1      -2.026   1.505   0.020  0.00  0.00    +0.150 HD
ENDBRANCH  21  23
ENDBRANCH  20  21
ENDBRANCH   5  20
TORSDOF 5
