REMARK  Name = ZINC16145532
REMARK  13 active torsions:
REMARK  status: ('A' for Active; 'I' for Inactive)
REMARK    1  A    between atoms: C_1  and  C_2
REMARK    2  A    between atoms: C_4  and  S_26
REMARK    3  A    between atoms: C_6  and  N_9
REMARK    4  A    between atoms: C_7  and  C_8
REMARK    5  A    between atoms: C_10  and  C_12
REMARK    6  A    between atoms: C_12  and  C_13
REMARK    7  A    between atoms: C_13  and  C_14
REMARK    8  A    between atoms: C_15  and  C_25
REMARK    9  A    between atoms: C_16  and  C_23
REMARK   10  A    between atoms: C_21  and  C_22
REMARK   11  A    between atoms: S_26  and  N_29
REMARK   12  A    between atoms: N_29  and  C_30
REMARK   13  A    between atoms: N_29  and  C_31
REMARK                            x       y       z     vdW  Elec       q    Type
REMARK                         _______ _______ _______ _____ _____    ______ ____
ROOT
ATOM      1  N   UNL     1       4.806   5.586   2.587  0.00  0.00    -0.285 N 
ATOM      2  C   UNL     1       3.871   5.794   1.639  0.00  0.00    +0.218 C 
ATOM      3  O   UNL     1       4.050   6.636   0.784  0.00  0.00    -0.275 OA
ATOM      4  H   UNL     1       4.629   4.971   3.316  0.00  0.00    +0.155 HD
ENDROOT
BRANCH   1  10
ATOM      5  C   UNL     1       8.780   7.374   4.862  0.00  0.00    +0.044 C 
ATOM      6  C   UNL     1       7.979   7.138   3.608  0.00  0.00    -0.044 A 
ATOM      7  C   UNL     1       8.454   7.588   2.390  0.00  0.00    +0.032 A 
ATOM      8  C   UNL     1       7.721   7.374   1.237  0.00  0.00    +0.107 A 
ATOM      9  C   UNL     1       6.511   6.711   1.299  0.00  0.00    +0.052 A 
ATOM     10  C   UNL     1       6.031   6.258   2.521  0.00  0.00    +0.038 A 
ATOM     11  C   UNL     1       6.767   6.480   3.678  0.00  0.00    -0.026 A 
ATOM     12  C   UNL     1       6.246   5.996   5.007  0.00  0.00    +0.046 C 
BRANCH   8  13
ATOM     13  S   UNL     1       8.332   7.949  -0.313  0.00  0.00    +0.060 S 
ATOM     14  O   UNL     1       9.742   8.057  -0.179  0.00  0.00    -0.153 OA
ATOM     15  O   UNL     1       7.721   7.145  -1.313  0.00  0.00    -0.153 OA
BRANCH  13  16
ATOM     16  N   UNL     1       7.757   9.487  -0.526  0.00  0.00    -0.183 NA
ATOM     17  C   UNL     1       8.532  10.632  -0.042  0.00  0.00    +0.131 C 
ATOM     18  C   UNL     1       6.473   9.703  -1.198  0.00  0.00    +0.131 C 
ENDBRANCH  13  16
ENDBRANCH   8  13
ENDBRANCH   1  10
BRANCH   2  19
ATOM     19  C   UNL     1       2.603   4.980   1.639  0.00  0.00    +0.101 C 
BRANCH  19  20
ATOM     20  C   UNL     1       1.719   5.411   0.467  0.00  0.00    +0.046 C 
BRANCH  20  21
ATOM     21  C   UNL     1       0.451   4.597   0.468  0.00  0.00    -0.024 A 
ATOM     22  C   UNL     1       0.427   3.345  -0.148  0.00  0.00    -0.023 A 
ATOM     23  C   UNL     1      -0.755   2.609  -0.135  0.00  0.00    +0.119 A 
ATOM     24  C   UNL     1      -1.898   3.162   0.500  0.00  0.00    +0.267 A 
ATOM     25  O   UNL     1      -2.946   2.540   0.521  0.00  0.00    -0.266 OA
ATOM     26  N   UNL     1      -1.819   4.373   1.084  0.00  0.00    -0.325 N 
ATOM     27  H   UNL     1      -2.602   4.744   1.520  0.00  0.00    +0.169 HD
ATOM     28  C   UNL     1      -0.665   5.083   1.067  0.00  0.00    +0.019 A 
ATOM     29  C   UNL     1      -0.620   6.437   1.728  0.00  0.00    +0.063 C 
ATOM     30  C   UNL     1       1.662   2.797  -0.816  0.00  0.00    +0.045 C 
BRANCH  23  31
ATOM     31  C   UNL     1      -0.819   1.321  -0.757  0.00  0.00    +0.105 C 
ATOM     32  N   UNL     1      -0.869   0.299  -1.250  0.00  0.00    -0.191 NA
ENDBRANCH  23  31
ENDBRANCH  20  21
ENDBRANCH  19  20
ENDBRANCH   2  19
TORSDOF 7
