REMARK  Name = ZINC15464480
REMARK  6 active torsions:
REMARK  status: ('A' for Active; 'I' for Inactive)
REMARK    1  A    between atoms: C_1  and  C_2
REMARK    2  A    between atoms: C_5  and  C_26
REMARK    3  A    between atoms: C_6  and  N_8
REMARK    4  A    between atoms: C_10  and  C_15
REMARK    5  A    between atoms: N_17  and  C_18
REMARK    6  A    between atoms: C_21  and  C_24
REMARK                            x       y       z     vdW  Elec       q    Type
REMARK                         _______ _______ _______ _____ _____    ______ ____
ROOT
ATOM      1  N   UNL     1       8.366  -0.349   0.352  0.00  0.00    -0.270 N 
ATOM      2  C   UNL     1       7.264   0.282  -0.383  0.00  0.00    +0.127 C 
ATOM      3  C   UNL     1       6.078  -0.702  -0.273  0.00  0.00    +0.102 C 
ATOM      4  C   UNL     1       6.417  -1.459   1.032  0.00  0.00    +0.110 C 
ATOM      5  C   UNL     1       7.918  -1.327   1.159  0.00  0.00    +0.221 C 
ATOM      6  O   UNL     1       8.617  -2.004   1.883  0.00  0.00    -0.275 OA
ENDROOT
BRANCH   1  12
ATOM      7  C   UNL     1      12.148   2.423   1.831  0.00  0.00    +0.044 C 
ATOM      8  C   UNL     1      11.570   1.360   0.932  0.00  0.00    -0.049 A 
ATOM      9  C   UNL     1      12.369   0.747  -0.015  0.00  0.00    +0.004 A 
ATOM     10  C   UNL     1      11.842  -0.230  -0.841  0.00  0.00    +0.005 A 
ATOM     11  C   UNL     1      10.515  -0.595  -0.722  0.00  0.00    -0.029 A 
ATOM     12  C   UNL     1       9.710   0.019   0.229  0.00  0.00    +0.039 A 
ATOM     13  C   UNL     1      10.241   1.003   1.052  0.00  0.00    +0.027 A 
ATOM     14  C   UNL     1       9.942  -1.659  -1.622  0.00  0.00    +0.045 C 
ENDBRANCH   1  12
BRANCH   3  15
ATOM     15  C   UNL     1       4.772   0.039  -0.144  0.00  0.00    +0.222 C 
ATOM     16  O   UNL     1       4.762   1.252  -0.137  0.00  0.00    -0.275 OA
ATOM     17  N   UNL     1       3.617  -0.646  -0.035  0.00  0.00    -0.285 N 
ATOM     18  H   UNL     1       3.631  -1.613   0.037  0.00  0.00    +0.155 HD
BRANCH  17  19
ATOM     19  C   UNL     1       2.400   0.037  -0.026  0.00  0.00    +0.033 A 
ATOM     20  C   UNL     1       2.251   1.200  -0.774  0.00  0.00    +0.024 A 
ATOM     21  C   UNL     1       1.051   1.876  -0.768  0.00  0.00    +0.020 A 
ATOM     22  C   UNL     1      -0.018   1.392  -0.008  0.00  0.00    +0.052 A 
ATOM     23  C   UNL     1       0.136   0.223   0.743  0.00  0.00    +0.020 A 
ATOM     24  C   UNL     1       1.338  -0.447   0.732  0.00  0.00    +0.024 A 
BRANCH  22  25
ATOM     25  C   UNL     1      -1.265   2.095   0.005  0.00  0.00    +0.099 C 
ATOM     26  N   UNL     1      -2.255   2.653   0.016  0.00  0.00    -0.191 NA
ENDBRANCH  22  25
ENDBRANCH  17  19
ENDBRANCH   3  15
TORSDOF 4
