REMARK  Name = ZINC46871878
REMARK  6 active torsions:
REMARK  status: ('A' for Active; 'I' for Inactive)
REMARK    1  A    between atoms: C_1  and  C_2
REMARK    2  A    between atoms: C_5  and  C_8
REMARK    3  A    between atoms: C_8  and  N_9
REMARK    4  A    between atoms: N_12  and  C_13
REMARK    5  A    between atoms: C_13  and  C_15
REMARK    6  A    between atoms: C_13  and  C_16
REMARK                            x       y       z     vdW  Elec       q    Type
REMARK                         _______ _______ _______ _____ _____    ______ ____
ROOT
ATOM      1  N   UNL     1       1.447  -4.699   0.089  0.00  0.00    -0.295 N 
ATOM      2  C   UNL     1       1.711  -6.020   0.137  0.00  0.00    +0.300 C 
ATOM      3  O   UNL     1       0.798  -6.822   0.171  0.00  0.00    -0.253 OA
ATOM      4  N   UNL     1       2.988  -6.452   0.148  0.00  0.00    -0.293 N 
ATOM      5  H   UNL     1       2.176  -4.059   0.062  0.00  0.00    +0.151 HD
ATOM      6  H   UNL     1       3.716  -5.812   0.121  0.00  0.00    +0.151 HD
ENDROOT
BRANCH   4   7
ATOM      7  C   UNL     1       3.275  -7.888   0.200  0.00  0.00    +0.102 C 
ATOM      8  C   UNL     1       3.258  -8.358   1.656  0.00  0.00    +0.033 C 
BRANCH   7   9
ATOM      9  C   UNL     1       4.633  -8.150  -0.397  0.00  0.00    -0.025 A 
ATOM     10  C   UNL     1       5.680  -7.286  -0.135  0.00  0.00    +0.009 A 
ATOM     11  C   UNL     1       6.930  -7.521  -0.678  0.00  0.00    +0.048 A 
ATOM     12  C   UNL     1       7.134  -8.625  -1.487  0.00  0.00    +0.142 A 
ATOM     13  C   UNL     1       6.078  -9.495  -1.752  0.00  0.00    +0.076 A 
ATOM     14  C   UNL     1       4.830  -9.258  -1.201  0.00  0.00    +0.032 A 
ATOM     15  N   UNL     1       6.298 -10.609  -2.576  0.00  0.00    -0.280 N 
ATOM     16  C   UNL     1       7.567 -10.991  -2.835  0.00  0.00    +0.255 C 
ATOM     17  O   UNL     1       7.782 -11.932  -3.570  0.00  0.00    -0.272 OA
ATOM     18  C   UNL     1       8.716 -10.244  -2.207  0.00  0.00    +0.325 C 
ATOM     19  O   UNL     1       8.357  -8.872  -2.029  0.00  0.00    -0.481 OA
ATOM     20  H   UNL     1       5.550 -11.097  -2.954  0.00  0.00    +0.155 HD
ENDBRANCH   7   9
ENDBRANCH   4   7
BRANCH   1  21
ATOM     21  C   UNL     1       0.059  -4.229   0.077  0.00  0.00    +0.142 C 
BRANCH  21  26
ATOM     22  C   UNL     1      -0.018   1.503   0.010  0.00  0.00    +0.065 C 
ATOM     23  C   UNL     1       0.002  -0.004   0.002  0.00  0.00    +0.038 A 
ATOM     24  C   UNL     1       0.005  -0.681  -1.203  0.00  0.00    +0.023 A 
ATOM     25  C   UNL     1       0.024  -2.067  -1.200  0.00  0.00    +0.008 A 
ATOM     26  C   UNL     1       0.039  -2.724   0.021  0.00  0.00    -0.012 A 
ATOM     27  C   UNL     1       0.035  -1.980   1.186  0.00  0.00    +0.116 A 
ATOM     28  N   UNL     1       0.022  -0.662   1.145  0.00  0.00    -0.260 NA
ENDBRANCH  21  26
ENDBRANCH   1  21
TORSDOF 4
