REMARK  Name = ZINC09117603
REMARK  6 active torsions:
REMARK  status: ('A' for Active; 'I' for Inactive)
REMARK    1  A    between atoms: C_1  and  C_2
REMARK    2  A    between atoms: C_6  and  C_22
REMARK    3  A    between atoms: C_8  and  S_12
REMARK    4  A    between atoms: S_12  and  C_13
REMARK    5  A    between atoms: C_13  and  C_15
REMARK    6  A    between atoms: C_13  and  C_16
REMARK                            x       y       z     vdW  Elec       q    Type
REMARK                         _______ _______ _______ _____ _____    ______ ____
ROOT
ATOM      1  C   UNL     1      -0.013   1.086   0.008  0.00  0.00    +0.044 C 
ATOM      2  C   UNL     1      -0.718   1.572   1.248  0.00  0.00    -0.048 A 
ATOM      3  C   UNL     1      -2.094   1.787   1.214  0.00  0.00    +0.004 A 
ATOM      4  C   UNL     1      -2.760   2.222   2.320  0.00  0.00    +0.010 A 
ATOM      5  C   UNL     1      -2.051   2.466   3.506  0.00  0.00    +0.003 A 
ATOM      6  C   UNL     1      -2.706   2.921   4.669  0.00  0.00    -0.039 A 
ATOM      7  C   UNL     1      -1.960   3.139   5.787  0.00  0.00    +0.038 A 
ATOM      8  C   UNL     1      -0.576   2.909   5.759  0.00  0.00    +0.099 A 
ATOM      9  N   UNL     1       0.030   2.484   4.669  0.00  0.00    -0.240 NA
ATOM     10  C   UNL     1      -0.652   2.252   3.542  0.00  0.00    +0.073 A 
ATOM     11  C   UNL     1       0.000   1.799   2.382  0.00  0.00    +0.031 A 
ATOM     12  C   UNL     1      -4.194   3.161   4.675  0.00  0.00    +0.044 C 
ENDROOT
BRANCH   8  13
ATOM     13  S   UNL     1       0.374   3.196   7.216  0.00  0.00    -0.093 S 
BRANCH  13  14
ATOM     14  C   UNL     1       2.020   2.750   6.610  0.00  0.00    +0.136 C 
ATOM     15  C   UNL     1       2.446   3.734   5.519  0.00  0.00    +0.029 C 
BRANCH  14  16
ATOM     16  C   UNL     1       3.006   2.805   7.749  0.00  0.00    +0.233 C 
ATOM     17  O   UNL     1       2.745   3.442   8.746  0.00  0.00    -0.274 OA
ATOM     18  N   UNL     1       4.178   2.145   7.658  0.00  0.00    -0.239 N 
ATOM     19  C   UNL     1       5.059   2.194   8.676  0.00  0.00    +0.303 C 
ATOM     20  O   UNL     1       4.798   2.833   9.677  0.00  0.00    -0.253 OA
ATOM     21  N   UNL     1       6.231   1.534   8.586  0.00  0.00    -0.313 N 
ATOM     22  H   UNL     1       4.386   1.635   6.860  0.00  0.00    +0.159 HD
ATOM     23  H   UNL     1       6.439   1.024   7.787  0.00  0.00    +0.146 HD
ATOM     24  H   UNL     1       6.865   1.569   9.319  0.00  0.00    +0.146 HD
ENDBRANCH  14  16
ENDBRANCH  13  14
ENDBRANCH   8  13
TORSDOF 3
