REMARK  Name = ZINC12999790
REMARK  15 active torsions:
REMARK  status: ('A' for Active; 'I' for Inactive)
REMARK    1  A    between atoms: C_1  and  C_2
REMARK    2  A    between atoms: C_2  and  C_3
REMARK    3  A    between atoms: C_3  and  C_4
REMARK    4  A    between atoms: C_4  and  N_5
REMARK    5  A    between atoms: C_6  and  N_32
REMARK    6  A    between atoms: C_7  and  N_14
REMARK    7  A    between atoms: N_14  and  C_15
REMARK    8  A    between atoms: C_15  and  C_16
REMARK    9  A    between atoms: C_16  and  C_17
REMARK   10  A    between atoms: C_17  and  C_18
REMARK   11  A    between atoms: C_17  and  C_19
REMARK   12  A    between atoms: C_20  and  C_22
REMARK   13  A    between atoms: C_22  and  C_23
REMARK   14  A    between atoms: C_23  and  N_24
REMARK   15  A    between atoms: C_25  and  C_27
REMARK                            x       y       z     vdW  Elec       q    Type
REMARK                         _______ _______ _______ _____ _____    ______ ____
ROOT
ATOM      1  N   UNL     1      -0.039   1.262   0.078  0.00  0.00    -0.264 N 
ATOM      2  C   UNL     1       0.026  -0.068   0.297  0.00  0.00    +0.221 C 
ATOM      3  O   UNL     1      -0.973  -0.680   0.613  0.00  0.00    -0.275 OA
ENDROOT
BRANCH   1   6
ATOM      4  N   UNL     1      -3.478   2.272  -0.730  0.00  0.00    -0.280 N 
ATOM      5  C   UNL     1      -2.274   1.610  -0.793  0.00  0.00    +0.127 A 
ATOM      6  C   UNL     1      -1.285   1.924   0.117  0.00  0.00    +0.140 A 
ATOM      7  C   UNL     1      -1.542   2.910   1.087  0.00  0.00    +0.277 A 
ATOM      8  O   UNL     1      -0.687   3.204   1.906  0.00  0.00    -0.266 OA
ATOM      9  N   UNL     1      -2.737   3.533   1.101  0.00  0.00    -0.273 N 
ATOM     10  H   UNL     1      -2.917   4.240   1.785  0.00  0.00    +0.173 HD
ATOM     11  C   UNL     1      -3.689   3.214   0.207  0.00  0.00    +0.331 A 
ATOM     12  O   UNL     1      -4.760   3.788   0.245  0.00  0.00    -0.246 OA
BRANCH   5  13
ATOM     13  N   UNL     1      -2.058   0.648  -1.750  0.00  0.00    -0.343 N 
ATOM     14  H   UNL     1      -1.175   0.263  -1.861  0.00  0.00    +0.144 HD
ATOM     15  H   UNL     1      -2.790   0.353  -2.315  0.00  0.00    +0.144 HD
ENDBRANCH   5  13
BRANCH   4  16
ATOM     16  C   UNL     1      -4.537   1.949  -1.690  0.00  0.00    +0.128 C 
BRANCH  16  17
ATOM     17  C   UNL     1      -5.413   0.829  -1.125  0.00  0.00    +0.021 C 
BRANCH  17  19
ATOM     18  C   UNL     1      -7.395  -0.628  -1.561  0.00  0.00    +0.004 C 
ATOM     19  C   UNL     1      -6.519   0.492  -2.126  0.00  0.00    -0.002 C 
ENDBRANCH  17  19
ENDBRANCH  16  17
ENDBRANCH   4  16
ENDBRANCH   1   6
BRANCH   1  20
ATOM     20  C   UNL     1       1.184   2.019  -0.205  0.00  0.00    +0.114 C 
BRANCH  20  21
ATOM     21  C   UNL     1       1.397   2.096  -1.718  0.00  0.00    +0.022 C 
BRANCH  21  22
ATOM     22  C   UNL     1       2.673   2.885  -2.014  0.00  0.00    -0.016 C 
ATOM     23  C   UNL     1       3.883   2.120  -1.473  0.00  0.00    +0.007 C 
ATOM     24  C   UNL     1       2.820   3.070  -3.525  0.00  0.00    +0.007 C 
ENDBRANCH  21  22
ENDBRANCH  20  21
ENDBRANCH   1  20
BRANCH   2  25
ATOM     25  C   UNL     1       1.339  -0.793   0.148  0.00  0.00    +0.115 C 
BRANCH  25  26
ATOM     26  C   UNL     1       1.138  -2.279   0.450  0.00  0.00    +0.113 C 
BRANCH  26  27
ATOM     27  N   UNL     1       2.414  -2.984   0.306  0.00  0.00    -0.311 N 
ATOM     28  C   UNL     1       2.479  -4.312   0.524  0.00  0.00    +0.245 C 
ATOM     29  O   UNL     1       1.478  -4.926   0.841  0.00  0.00    -0.270 OA
ATOM     30  H   UNL     1       3.212  -2.494   0.053  0.00  0.00    +0.149 HD
BRANCH  28  31
ATOM     31  C   UNL     1       3.761  -5.020   0.379  0.00  0.00    +0.044 A 
ATOM     32  C   UNL     1       3.868  -6.439   0.610  0.00  0.00    +0.020 A 
ATOM     33  C   UNL     1       5.083  -6.997   0.447  0.00  0.00    +0.046 A 
ATOM     34  S   UNL     1       6.106  -5.611  -0.009  0.00  0.00    -0.104 S 
ATOM     35  C   UNL     1       4.915  -4.354   0.021  0.00  0.00    +0.058 A 
ENDBRANCH  28  31
ENDBRANCH  26  27
ENDBRANCH  25  26
ENDBRANCH   2  25
TORSDOF 12
