REMARK  Name = ZINC45147787
REMARK  7 active torsions:
REMARK  status: ('A' for Active; 'I' for Inactive)
REMARK    1  A    between atoms: C_1  and  C_2
REMARK    2  A    between atoms: C_2  and  N_3
REMARK    3  A    between atoms: N_3  and  C_4
REMARK    4  A    between atoms: N_3  and  S_11
REMARK    5  A    between atoms: C_8  and  C_10
REMARK    6  A    between atoms: S_11  and  C_14
REMARK    7  A    between atoms: C_15  and  N_21
REMARK                            x       y       z     vdW  Elec       q    Type
REMARK                         _______ _______ _______ _____ _____    ______ ____
ROOT
ATOM      1  S   UNL     1       2.452  -0.613   1.016  0.00  0.00    +0.079 S 
ATOM      2  O   UNL     1       2.851  -1.391   2.137  0.00  0.00    -0.150 OA
ATOM      3  O   UNL     1       2.772  -0.980  -0.318  0.00  0.00    -0.150 OA
ENDROOT
BRANCH   1   4
ATOM      4  C   UNL     1       3.108   1.003   1.266  0.00  0.00    +0.164 A 
ATOM      5  C   UNL     1       4.472   1.229   1.129  0.00  0.00    +0.054 A 
ATOM      6  C   UNL     1       4.985   2.504   1.326  0.00  0.00    +0.025 A 
ATOM      7  C   UNL     1       4.140   3.545   1.657  0.00  0.00    +0.005 A 
ATOM      8  C   UNL     1       2.783   3.319   1.794  0.00  0.00    +0.040 A 
ATOM      9  C   UNL     1       2.265   2.050   1.593  0.00  0.00    +0.152 A 
ATOM     10  F   UNL     1       0.938   1.834   1.721  0.00  0.00    -0.203 F 
BRANCH   5  11
ATOM     11  N   UNL     1       5.325   0.175   0.794  0.00  0.00    -0.356 N 
ATOM     12  H   UNL     1       4.959  -0.699   0.588  0.00  0.00    +0.142 HD
ATOM     13  H   UNL     1       6.284   0.317   0.769  0.00  0.00    +0.142 HD
ENDBRANCH   5  11
ENDBRANCH   1   4
BRANCH   1  14
ATOM     14  N   UNL     1       0.802  -0.488   1.090  0.00  0.00    -0.203 N 
BRANCH  14  15
ATOM     15  C   UNL     1       0.154  -0.514   2.327  0.00  0.00    +0.051 A 
ATOM     16  C   UNL     1       0.827  -0.112   3.474  0.00  0.00    +0.025 A 
ATOM     17  C   UNL     1       0.183  -0.138   4.695  0.00  0.00    +0.002 A 
ATOM     18  C   UNL     1      -1.130  -0.565   4.778  0.00  0.00    +0.003 A 
ATOM     19  C   UNL     1      -1.802  -0.967   3.638  0.00  0.00    -0.049 A 
ATOM     20  C   UNL     1      -1.166  -0.937   2.413  0.00  0.00    +0.028 A 
ATOM     21  C   UNL     1      -3.232  -1.433   3.733  0.00  0.00    +0.044 C 
ENDBRANCH  14  15
BRANCH  14  23
ATOM     22  C   UNL     1      -0.287   1.128  -0.388  0.00  0.00    +0.026 C 
ATOM     23  C   UNL     1       0.022  -0.350  -0.143  0.00  0.00    +0.128 C 
ENDBRANCH  14  23
ENDBRANCH   1  14
TORSDOF 5
