REMARK  Name = ZINC42525831
REMARK  6 active torsions:
REMARK  status: ('A' for Active; 'I' for Inactive)
REMARK    1  A    between atoms: C_3  and  N_11
REMARK    2  A    between atoms: C_4  and  N_8
REMARK    3  A    between atoms: N_11  and  C_12
REMARK    4  A    between atoms: N_11  and  C_15
REMARK    5  A    between atoms: C_12  and  C_13
REMARK    6  A    between atoms: C_13  and  O_14
REMARK                            x       y       z     vdW  Elec       q    Type
REMARK                         _______ _______ _______ _____ _____    ______ ____
ROOT
ATOM      1  N   UNL     1       3.763   2.390   0.028  0.00  0.00    -0.323 N 
ENDROOT
BRANCH   1   4
ATOM      2  C   UNL     1       0.171   1.621   0.150  0.00  0.00    +0.017 A 
ATOM      3  C   UNL     1       1.351   2.317  -0.026  0.00  0.00    +0.026 A 
ATOM      4  C   UNL     1       2.567   1.688   0.205  0.00  0.00    +0.061 A 
ATOM      5  C   UNL     1       2.594   0.360   0.612  0.00  0.00    +0.148 A 
ATOM      6  C   UNL     1       1.411  -0.330   0.786  0.00  0.00    +0.050 A 
ATOM      7  C   UNL     1       0.200   0.299   0.555  0.00  0.00    +0.020 A 
ATOM      8 BR   UNL     1      -1.418  -0.650   0.795  0.00  0.00    -0.050 Br
BRANCH   5   9
ATOM      9  N   UNL     1       3.888  -0.314   0.858  0.00  0.00    +0.058 N 
ATOM     10  O   UNL     1       3.916  -1.496   1.110  0.00  0.00    -0.126 OA
ATOM     11  O   UNL     1       4.918   0.318   0.806  0.00  0.00    -0.126 OA
ENDBRANCH   5   9
ENDBRANCH   1   4
BRANCH   1  12
ATOM     12  C   UNL     1       4.337   2.532  -1.313  0.00  0.00    +0.074 C 
ATOM     13  C   UNL     1       4.372   4.012  -1.698  0.00  0.00    +0.022 C 
ATOM     14  C   UNL     1       4.971   4.161  -3.098  0.00  0.00    +0.002 C 
ATOM     15  C   UNL     1       6.394   3.598  -3.106  0.00  0.00    +0.000 C 
ATOM     16  C   UNL     1       6.359   2.118  -2.721  0.00  0.00    +0.002 C 
ATOM     17  C   UNL     1       5.759   1.969  -1.321  0.00  0.00    +0.022 C 
ENDBRANCH   1  12
BRANCH   1  18
ATOM     18  C   UNL     1       4.442   2.983   1.182  0.00  0.00    +0.133 C 
BRANCH  18  19
ATOM     19  C   UNL     1       3.838   4.357   1.479  0.00  0.00    +0.174 C 
BRANCH  19  20
ATOM     20  O   UNL     1       2.478   4.201   1.886  0.00  0.00    -0.393 OA
ATOM     21  H   UNL     1       2.030   5.034   2.091  0.00  0.00    +0.209 HD
ENDBRANCH  19  20
ENDBRANCH  18  19
ENDBRANCH   1  18
TORSDOF 6
