REMARK  Name = ZINC64499556
REMARK  11 active torsions:
REMARK  status: ('A' for Active; 'I' for Inactive)
REMARK    1  A    between atoms: C_1  and  C_2
REMARK    2  A    between atoms: C_5  and  C_8
REMARK    3  A    between atoms: C_8  and  C_27
REMARK    4  A    between atoms: N_11  and  C_15
REMARK    5  A    between atoms: C_15  and  C_16
REMARK    6  A    between atoms: N_18  and  C_19
REMARK    7  A    between atoms: C_19  and  C_20
REMARK    8  A    between atoms: N_22  and  C_23
REMARK    9  A    between atoms: C_23  and  C_24
REMARK   10  A    between atoms: C_24  and  C_25
REMARK   11  A    between atoms: C_24  and  C_26
REMARK                            x       y       z     vdW  Elec       q    Type
REMARK                         _______ _______ _______ _____ _____    ______ ____
ROOT
ATOM      1  C   UNL     1       0.059  -4.275  -0.021  0.00  0.00    +0.135 C 
ATOM      2  C   UNL     1       0.874  -4.805   1.142  0.00  0.00    +0.251 C 
ATOM      3  O   UNL     1       0.656  -4.640   2.324  0.00  0.00    -0.272 OA
ATOM      4  N   UNL     1       1.890  -5.497   0.591  0.00  0.00    -0.215 N 
ATOM      5  C   UNL     1       1.832  -5.479  -0.746  0.00  0.00    +0.310 C 
ATOM      6  O   UNL     1       2.639  -6.033  -1.465  0.00  0.00    -0.252 OA
ATOM      7  N   UNL     1       0.779  -4.778  -1.205  0.00  0.00    -0.281 N 
ATOM      8  C   UNL     1      -1.366  -4.831   0.018  0.00  0.00    +0.047 C 
ATOM      9  H   UNL     1       0.540  -4.632  -2.133  0.00  0.00    +0.152 HD
ENDROOT
BRANCH   1  14
ATOM     10  C   UNL     1      -0.018   1.503   0.010  0.00  0.00    +0.044 C 
ATOM     11  C   UNL     1       0.002  -0.004   0.002  0.00  0.00    -0.050 A 
ATOM     12  C   UNL     1       0.006  -0.689  -1.199  0.00  0.00    +0.004 A 
ATOM     13  C   UNL     1       0.025  -2.071  -1.206  0.00  0.00    +0.006 A 
ATOM     14  C   UNL     1       0.040  -2.768  -0.013  0.00  0.00    -0.015 A 
ATOM     15  C   UNL     1       0.037  -2.084   1.188  0.00  0.00    +0.006 A 
ATOM     16  C   UNL     1       0.023  -0.702   1.195  0.00  0.00    +0.004 A 
ENDBRANCH   1  14
BRANCH   4  17
ATOM     17  C   UNL     1       2.931  -6.184   1.360  0.00  0.00    +0.213 C 
BRANCH  17  18
ATOM     18  C   UNL     1       2.495  -7.598   1.643  0.00  0.00    +0.231 C 
ATOM     19  O   UNL     1       1.421  -7.994   1.242  0.00  0.00    -0.274 OA
ATOM     20  N   UNL     1       3.299  -8.424   2.342  0.00  0.00    -0.305 N 
ATOM     21  H   UNL     1       4.158  -8.107   2.663  0.00  0.00    +0.149 HD
BRANCH  20  22
ATOM     22  C   UNL     1       2.876  -9.799   2.617  0.00  0.00    +0.200 C 
BRANCH  22  23
ATOM     23  C   UNL     1       3.947 -10.505   3.408  0.00  0.00    +0.230 C 
ATOM     24  O   UNL     1       4.963  -9.918   3.712  0.00  0.00    -0.274 OA
ATOM     25  N   UNL     1       3.774 -11.790   3.778  0.00  0.00    -0.314 N 
ATOM     26  H   UNL     1       2.961 -12.260   3.535  0.00  0.00    +0.149 HD
BRANCH  25  27
ATOM     27  C   UNL     1       4.815 -12.477   4.547  0.00  0.00    +0.107 C 
BRANCH  27  28
ATOM     28  C   UNL     1       4.373 -13.913   4.834  0.00  0.00    -0.000 C 
ATOM     29  C   UNL     1       4.265 -14.686   3.518  0.00  0.00    +0.009 C 
ATOM     30  C   UNL     1       5.401 -14.591   5.742  0.00  0.00    +0.009 C 
ENDBRANCH  27  28
ENDBRANCH  25  27
ENDBRANCH  22  23
ENDBRANCH  20  22
ENDBRANCH  17  18
ENDBRANCH   4  17
TORSDOF 7
