REMARK  Name = ZINC08580784
REMARK  11 active torsions:
REMARK  status: ('A' for Active; 'I' for Inactive)
REMARK    1  A    between atoms: C_1  and  C_2
REMARK    2  A    between atoms: C_5  and  C_17
REMARK    3  A    between atoms: C_7  and  S_8
REMARK    4  A    between atoms: S_8  and  N_11
REMARK    5  A    between atoms: C_17  and  O_19
REMARK    6  A    between atoms: O_19  and  C_20
REMARK    7  A    between atoms: C_20  and  C_21
REMARK    8  A    between atoms: C_21  and  C_22
REMARK    9  A    between atoms: C_22  and  C_23
REMARK   10  A    between atoms: C_25  and  N_26
REMARK   11  A    between atoms: C_25  and  C_27
REMARK                            x       y       z     vdW  Elec       q    Type
REMARK                         _______ _______ _______ _____ _____    ______ ____
ROOT
ATOM      1  C   UNL     1       2.743   1.881  -0.060  0.00  0.00    +0.046 C 
ATOM      2  C   UNL     1       2.427   0.407  -0.057  0.00  0.00    -0.024 A 
ATOM      3  C   UNL     1       1.690  -0.141  -1.092  0.00  0.00    +0.006 A 
ATOM      4  C   UNL     1       1.397  -1.489  -1.095  0.00  0.00    +0.015 A 
ATOM      5  C   UNL     1       1.847  -2.300  -0.052  0.00  0.00    +0.061 A 
ATOM      6  C   UNL     1       2.591  -1.741   0.988  0.00  0.00    +0.043 A 
ATOM      7  C   UNL     1       2.881  -0.392   0.977  0.00  0.00    +0.109 A 
ENDROOT
BRANCH   7   8
ATOM      8  S   UNL     1       3.825   0.315   2.285  0.00  0.00    +0.061 S 
ATOM      9  O   UNL     1       3.159   1.511   2.667  0.00  0.00    -0.153 OA
ATOM     10  O   UNL     1       4.094  -0.734   3.205  0.00  0.00    -0.153 OA
BRANCH   8  11
ATOM     11  N   UNL     1       5.284   0.769   1.646  0.00  0.00    -0.177 NA
ATOM     12  C   UNL     1       6.410  -0.174   1.605  0.00  0.00    +0.109 C 
ATOM     13  C   UNL     1       6.931  -0.258   0.168  0.00  0.00    +0.017 C 
ATOM     14  C   UNL     1       7.272   1.149  -0.330  0.00  0.00    +0.003 C 
ATOM     15  C   UNL     1       6.009   2.014  -0.324  0.00  0.00    +0.017 C 
ATOM     16  C   UNL     1       5.475   2.121   1.103  0.00  0.00    +0.109 C 
ENDBRANCH   8  11
ENDBRANCH   7   8
BRANCH   5  17
ATOM     17  C   UNL     1       1.537  -3.745  -0.049  0.00  0.00    +0.340 C 
ATOM     18  O   UNL     1       1.929  -4.448   0.860  0.00  0.00    -0.245 OA
BRANCH  17  19
ATOM     19  O   UNL     1       0.818  -4.282  -1.054  0.00  0.00    -0.453 OA
BRANCH  19  20
ATOM     20  C   UNL     1       0.556  -5.685  -0.987  0.00  0.00    +0.312 C 
BRANCH  20  21
ATOM     21  C   UNL     1      -0.254  -6.103  -2.187  0.00  0.00    +0.212 C 
ATOM     22  O   UNL     1      -0.575  -5.279  -3.019  0.00  0.00    -0.288 OA
BRANCH  21  23
ATOM     23  C   UNL     1      -0.640  -7.456  -2.344  0.00  0.00    +0.114 C 
ATOM     24  C   UNL     1      -1.493  -7.817  -3.372  0.00  0.00    +0.019 C 
ATOM     25  C   UNL     1      -1.773  -9.273  -3.643  0.00  0.00    +0.061 C 
BRANCH  24  26
ATOM     26  N   UNL     1      -2.073  -6.865  -4.133  0.00  0.00    -0.360 N 
ATOM     27  H   UNL     1      -1.942  -5.928  -3.921  0.00  0.00    +0.142 HD
ATOM     28  H   UNL     1      -2.620  -7.119  -4.893  0.00  0.00    +0.142 HD
ENDBRANCH  24  26
BRANCH  23  29
ATOM     29  C   UNL     1      -0.149  -8.450  -1.439  0.00  0.00    +0.104 C 
ATOM     30  N   UNL     1       0.241  -9.239  -0.721  0.00  0.00    -0.191 NA
ENDBRANCH  23  29
ENDBRANCH  21  23
ENDBRANCH  20  21
ENDBRANCH  19  20
ENDBRANCH  17  19
ENDBRANCH   5  17
TORSDOF 9
