REMARK  Name = ZINC19883278
REMARK  7 active torsions:
REMARK  status: ('A' for Active; 'I' for Inactive)
REMARK    1  A    between atoms: C_1  and  N_2
REMARK    2  A    between atoms: N_2  and  C_3
REMARK    3  A    between atoms: N_2  and  C_4
REMARK    4  A    between atoms: C_4  and  C_5
REMARK    5  A    between atoms: C_5  and  N_6
REMARK    6  A    between atoms: C_14  and  C_17
REMARK    7  A    between atoms: C_17  and  N_18
REMARK                            x       y       z     vdW  Elec       q    Type
REMARK                         _______ _______ _______ _____ _____    ______ ____
ROOT
ATOM      1  N   UNL     1      -0.020   1.094   2.454  0.00  0.00    -0.310 N 
ATOM      2  C   UNL     1       0.988   1.858   3.003  0.00  0.00    +0.055 A 
ATOM      3  C   UNL     1       1.341   3.082   2.447  0.00  0.00    +0.064 A 
ATOM      4  C   UNL     1       2.354   3.826   3.018  0.00  0.00    +0.125 A 
ATOM      5  C   UNL     1       3.025   3.363   4.144  0.00  0.00    +0.039 A 
ATOM      6  C   UNL     1       2.694   2.164   4.706  0.00  0.00    +0.013 A 
ATOM      7  C   UNL     1       1.670   1.393   4.144  0.00  0.00    -0.001 A 
ATOM      8  C   UNL     1       1.290   0.104   4.721  0.00  0.00    +0.020 A 
ATOM      9  C   UNL     1       0.290  -0.600   4.134  0.00  0.00    +0.032 A 
ATOM     10  C   UNL     1      -0.366  -0.087   2.995  0.00  0.00    +0.256 A 
ATOM     11  O   UNL     1      -1.265  -0.734   2.486  0.00  0.00    -0.267 OA
ATOM     12  F   UNL     1       2.697   5.016   2.476  0.00  0.00    -0.205 F 
ENDROOT
BRANCH   1  13
ATOM     13  C   UNL     1      -0.729   1.579   1.267  0.00  0.00    +0.107 C 
BRANCH  13  14
ATOM     14  C   UNL     1      -0.013   1.086   0.008  0.00  0.00    -0.058 C 
BRANCH  14  16
ATOM     15  C   UNL     1       0.059   1.323  -2.401  0.00  0.00    -0.097 C 
ATOM     16  N   UNL     1      -0.723   1.572  -1.182  0.00  0.00    +0.377 N 
ATOM     17  C   UNL     1      -2.059   0.969  -1.281  0.00  0.00    -0.097 C 
ATOM     18  H   UNL     1      -0.850   2.660  -1.079  0.00  0.00    -0.083 HD
ENDBRANCH  14  16
ENDBRANCH  13  14
ENDBRANCH   1  13
BRANCH   9  19
ATOM     19  C   UNL     1      -0.126  -1.932   4.704  0.00  0.00    +0.125 C 
BRANCH  19  20
ATOM     20  N   UNL     1      -1.266  -1.741   5.610  0.00  0.00    -0.295 NA
ATOM     21  C   UNL     1      -0.873  -0.965   6.795  0.00  0.00    +0.103 C 
ATOM     22  C   UNL     1      -2.103  -0.721   7.673  0.00  0.00    +0.122 C 
ATOM     23  N   UNL     1      -2.687  -2.012   8.063  0.00  0.00    -0.314 N 
ATOM     24  C   UNL     1      -3.080  -2.788   6.878  0.00  0.00    +0.122 C 
ATOM     25  C   UNL     1      -1.850  -3.032   6.000  0.00  0.00    +0.103 C 
ATOM     26  C   UNL     1      -3.766  -1.832   8.921  0.00  0.00    +0.099 A 
ATOM     27  C   UNL     1      -3.595  -1.119  10.103  0.00  0.00    +0.042 A 
ATOM     28  C   UNL     1      -4.676  -0.948  10.947  0.00  0.00    +0.005 A 
ATOM     29  C   UNL     1      -5.898  -1.497  10.580  0.00  0.00    +0.018 A 
ATOM     30  C   UNL     1      -5.996  -2.193   9.392  0.00  0.00    +0.084 A 
ATOM     31  N   UNL     1      -4.948  -2.336   8.603  0.00  0.00    -0.350 N 
ATOM     32  H   UNL     1      -5.075  -2.890   7.661  0.00  0.00    +0.166 HD
ENDBRANCH  19  20
ENDBRANCH   9  19
TORSDOF 5
