REMARK  Name = ZINC37969330
REMARK  4 active torsions:
REMARK  status: ('A' for Active; 'I' for Inactive)
REMARK    1  A    between atoms: C_6  and  O_7
REMARK    2  A    between atoms: C_10  and  C_11
REMARK    3  A    between atoms: C_10  and  N_13
REMARK    4  A    between atoms: N_13  and  C_14
REMARK                            x       y       z     vdW  Elec       q    Type
REMARK                         _______ _______ _______ _____ _____    ______ ____
ROOT
ATOM      1  C   UNL     1       4.263   6.620  -0.243  0.00  0.00    +0.046 A 
ATOM      2  C   UNL     1       4.551   5.267  -0.272  0.00  0.00    +0.014 A 
ATOM      3  C   UNL     1       3.571   4.348   0.033  0.00  0.00    +0.032 A 
ATOM      4  C   UNL     1       2.290   4.758   0.379  0.00  0.00    +0.130 A 
ATOM      5  C   UNL     1       2.003   6.120   0.403  0.00  0.00    +0.091 A 
ATOM      6  C   UNL     1       2.986   7.044   0.093  0.00  0.00    +0.120 A 
ATOM      7  O   UNL     1       1.491   3.693   0.662  0.00  0.00    -0.488 OA
ATOM      8  C   UNL     1       2.066   2.505   0.093  0.00  0.00    +0.271 C 
ATOM      9  C   UNL     1       3.578   2.832   0.076  0.00  0.00    +0.170 C 
ENDROOT
BRANCH   6  10
ATOM     10  O   UNL     1       2.698   8.372   0.119  0.00  0.00    -0.507 OA
ATOM     11  H   UNL     1       2.380   8.722  -0.725  0.00  0.00    +0.292 HD
ENDBRANCH   6  10
BRANCH   9  12
ATOM     12  C   UNL     1       4.223   2.274  -1.125  0.00  0.00    +0.093 C 
ATOM     13  N   UNL     1       4.720   1.844  -2.051  0.00  0.00    -0.194 NA
ENDBRANCH   9  12
BRANCH   9  14
ATOM     14  N   UNL     1       4.235   2.344   1.296  0.00  0.00    -0.290 NA
ATOM     15  H   UNL     1       3.771   2.694   2.121  0.00  0.00    +0.124 HD
BRANCH  14  16
ATOM     16  C   UNL     1       5.661   2.697   1.304  0.00  0.00    +0.055 C 
ATOM     17  C   UNL     1       6.501   1.423   1.418  0.00  0.00    +0.019 C 
ATOM     18  C   UNL     1       7.986   1.791   1.426  0.00  0.00    +0.002 C 
ATOM     19  C   UNL     1       8.279   2.704   2.619  0.00  0.00    +0.000 C 
ATOM     20  C   UNL     1       7.439   3.977   2.505  0.00  0.00    +0.002 C 
ATOM     21  C   UNL     1       5.954   3.610   2.496  0.00  0.00    +0.019 C 
ENDBRANCH  14  16
ENDBRANCH   9  14
TORSDOF 4
