REMARK  Name = ZINC01930673
REMARK  9 active torsions:
REMARK  status: ('A' for Active; 'I' for Inactive)
REMARK    1  A    between atoms: C_1  and  C_2
REMARK    2  A    between atoms: C_2  and  O_3
REMARK    3  A    between atoms: O_3  and  C_4
REMARK    4  A    between atoms: C_4  and  C_6
REMARK    5  A    between atoms: C_10  and  N_11
REMARK    6  A    between atoms: C_12  and  C_14
REMARK    7  A    between atoms: C_14  and  N_15
REMARK    8  A    between atoms: N_15  and  C_16
REMARK    9  A    between atoms: C_23  and  C_27
REMARK                            x       y       z     vdW  Elec       q    Type
REMARK                         _______ _______ _______ _____ _____    ______ ____
ROOT
ATOM      1  C   UNL     1       1.258  -4.096  -0.085  0.00  0.00    +0.091 A 
ATOM      2  C   UNL     1       0.941  -2.684   0.053  0.00  0.00    -0.021 A 
ATOM      3  C   UNL     1       1.008  -1.966  -1.089  0.00  0.00    -0.004 A 
ATOM      4  S   UNL     1       1.484  -3.133  -2.332  0.00  0.00    -0.077 S 
ATOM      5  C   UNL     1       1.592  -4.558  -1.351  0.00  0.00    +0.086 A 
ATOM      6  C   UNL     1       0.736  -0.502  -1.252  0.00  0.00    +0.046 C 
ATOM      7  C   UNL     1       0.002  -0.004   0.002  0.00  0.00    -0.009 C 
ATOM      8  C   UNL     1       0.742  -0.514   1.242  0.00  0.00    +0.008 C 
ATOM      9  C   UNL     1       0.557  -2.027   1.373  0.00  0.00    +0.037 C 
ATOM     10  C   UNL     1      -0.019   1.526   0.010  0.00  0.00    +0.008 C 
ENDROOT
BRANCH   5  11
ATOM     11  N   UNL     1       1.930  -5.845  -1.738  0.00  0.00    -0.281 N 
ATOM     12  C   UNL     1       2.227  -6.106  -3.026  0.00  0.00    +0.201 C 
ATOM     13  O   UNL     1       2.199  -5.214  -3.848  0.00  0.00    -0.278 OA
ATOM     14  H   UNL     1       1.956  -6.654  -0.992  0.00  0.00    +0.155 HD
BRANCH  12  15
ATOM     15  C   UNL     1       2.594  -7.506  -3.446  0.00  0.00    +0.016 C 
BRANCH  15  16
ATOM     16  N   UNL     1       2.871  -7.528  -4.888  0.00  0.00    +0.387 N 
ATOM     17  H   UNL     1       1.976  -7.203  -5.439  0.00  0.00    -0.085 HD
ATOM     18  H   UNL     1       3.706  -6.847  -5.112  0.00  0.00    -0.085 HD
BRANCH  16  19
ATOM     19  C   UNL     1       3.234  -8.880  -5.335  0.00  0.00    -0.071 C 
ATOM     20  C   UNL     1       4.730  -9.107  -5.110  0.00  0.00    -0.016 C 
ATOM     21  C   UNL     1       5.107 -10.515  -5.575  0.00  0.00    -0.002 C 
ATOM     22  C   UNL     1       4.786 -10.664  -7.064  0.00  0.00    -0.000 C 
ATOM     23  C   UNL     1       3.290 -10.437  -7.288  0.00  0.00    -0.002 C 
ATOM     24  C   UNL     1       2.913  -9.029  -6.823  0.00  0.00    -0.016 C 
ENDBRANCH  16  19
ENDBRANCH  15  16
ENDBRANCH  12  15
ENDBRANCH   5  11
BRANCH   1  25
ATOM     25  C   UNL     1       1.226  -4.998   1.068  0.00  0.00    +0.342 C 
ATOM     26  O   UNL     1       0.198  -5.582   1.355  0.00  0.00    -0.245 OA
BRANCH  25  27
ATOM     27  O   UNL     1       2.336  -5.182   1.812  0.00  0.00    -0.461 OA
BRANCH  27  29
ATOM     28  C   UNL     1       3.579  -6.170   3.658  0.00  0.00    +0.048 C 
ATOM     29  C   UNL     1       2.231  -6.090   2.940  0.00  0.00    +0.229 C 
ENDBRANCH  27  29
ENDBRANCH  25  27
ENDBRANCH   1  25
TORSDOF 7
