REMARK  Name = ZINC07737864
REMARK  8 active torsions:
REMARK  status: ('A' for Active; 'I' for Inactive)
REMARK    1  A    between atoms: C_1  and  C_2
REMARK    2  A    between atoms: C_2  and  C_4
REMARK    3  A    between atoms: C_2  and  O_14
REMARK    4  A    between atoms: N_6  and  C_7
REMARK    5  A    between atoms: N_6  and  C_8
REMARK    6  A    between atoms: O_14  and  C_15
REMARK    7  A    between atoms: C_15  and  C_17
REMARK    8  A    between atoms: C_20  and  O_24
REMARK                            x       y       z     vdW  Elec       q    Type
REMARK                         _______ _______ _______ _____ _____    ______ ____
ROOT
ATOM      1  O   UNL     1       1.113   1.839  -0.118  0.00  0.00    -0.449 OA
ENDROOT
BRANCH   1   3
ATOM      2  C   UNL     1       2.755   0.960   1.452  0.00  0.00    +0.062 C 
ATOM      3  C   UNL     1       2.373   1.123  -0.021  0.00  0.00    +0.259 C 
BRANCH   3   4
ATOM      4  C   UNL     1       3.448   1.900  -0.736  0.00  0.00    +0.256 C 
ATOM      5  O   UNL     1       3.265   3.063  -1.026  0.00  0.00    -0.272 OA
ATOM      6  N   UNL     1       4.614   1.302  -1.052  0.00  0.00    -0.298 N 
ATOM      7  C   UNL     1       4.792  -0.131  -0.808  0.00  0.00    +0.132 C 
BRANCH   6   8
ATOM      8  C   UNL     1       5.703   2.086  -1.641  0.00  0.00    +0.076 C 
ATOM      9  C   UNL     1       6.055   1.517  -3.017  0.00  0.00    +0.022 C 
ATOM     10  C   UNL     1       7.193   2.336  -3.631  0.00  0.00    +0.002 C 
ATOM     11  C   UNL     1       8.421   2.265  -2.721  0.00  0.00    +0.000 C 
ATOM     12  C   UNL     1       8.069   2.834  -1.345  0.00  0.00    +0.002 C 
ATOM     13  C   UNL     1       6.931   2.015  -0.731  0.00  0.00    +0.022 C 
ENDBRANCH   6   8
ENDBRANCH   3   4
ENDBRANCH   1   3
BRANCH   1  14
ATOM     14  C   UNL     1      -0.013   1.099  -0.120  0.00  0.00    +0.340 C 
ATOM     15  O   UNL     1       0.056  -0.112  -0.042  0.00  0.00    -0.245 OA
BRANCH  14  16
ATOM     16  C   UNL     1      -1.328   1.758  -0.221  0.00  0.00    +0.062 A 
ATOM     17  C   UNL     1      -1.409   3.151  -0.304  0.00  0.00    +0.038 A 
ATOM     18  C   UNL     1      -2.640   3.762  -0.405  0.00  0.00    +0.085 A 
ATOM     19  C   UNL     1      -3.801   2.996  -0.412  0.00  0.00    +0.153 A 
ATOM     20  C   UNL     1      -3.724   1.610  -0.324  0.00  0.00    +0.085 A 
ATOM     21  C   UNL     1      -2.497   0.991  -0.229  0.00  0.00    +0.038 A 
ATOM     22 CL   UNL     1      -5.176   0.659  -0.334  0.00  0.00    -0.080 Cl
ATOM     23 CL   UNL     1      -2.743   5.492  -0.517  0.00  0.00    -0.080 Cl
BRANCH  19  24
ATOM     24  O   UNL     1      -5.012   3.602  -0.506  0.00  0.00    -0.504 OA
ATOM     25  H   UNL     1      -5.404   3.832   0.348  0.00  0.00    +0.292 HD
ENDBRANCH  19  24
ENDBRANCH  14  16
ENDBRANCH   1  14
TORSDOF 6
