REMARK  Name = ZINC63406017
REMARK  6 active torsions:
REMARK  status: ('A' for Active; 'I' for Inactive)
REMARK    1  A    between atoms: C_1  and  C_2
REMARK    2  A    between atoms: C_2  and  C_3
REMARK    3  A    between atoms: C_12  and  C_14
REMARK    4  A    between atoms: N_16  and  N_17
REMARK    5  A    between atoms: C_18  and  C_20
REMARK    6  A    between atoms: C_20  and  C_21
REMARK                            x       y       z     vdW  Elec       q    Type
REMARK                         _______ _______ _______ _____ _____    ______ ____
ROOT
ATOM      1  C   UNL     1      -0.832  -6.284  -1.583  0.00  0.00    +0.260 C 
ATOM      2  O   UNL     1      -0.563  -7.391  -1.159  0.00  0.00    -0.269 OA
ATOM      3  N   UNL     1      -1.516  -6.152  -2.737  0.00  0.00    -0.230 N 
ATOM      4  H   UNL     1      -1.730  -5.269  -3.075  0.00  0.00    +0.173 HD
ENDROOT
BRANCH   1  14
ATOM      5  C   UNL     1       0.731  -0.503   1.223  0.00  0.00    +0.220 C 
ATOM      6  O   UNL     1       1.189   0.287   2.021  0.00  0.00    -0.275 OA
ATOM      7  N   UNL     1       0.874  -1.828   1.428  0.00  0.00    -0.271 N 
ATOM      8  C   UNL     1       1.555  -2.430   2.576  0.00  0.00    +0.118 C 
ATOM      9  C   UNL     1       1.454  -3.948   2.356  0.00  0.00    +0.056 C 
ATOM     10  C   UNL     1       0.697  -4.092   1.055  0.00  0.00    -0.024 A 
ATOM     11  C   UNL     1       0.390  -2.823   0.580  0.00  0.00    +0.040 A 
ATOM     12  C   UNL     1      -0.320  -2.694  -0.618  0.00  0.00    +0.024 A 
ATOM     13  C   UNL     1      -0.715  -3.809  -1.318  0.00  0.00    +0.015 A 
ATOM     14  C   UNL     1      -0.408  -5.084  -0.835  0.00  0.00    +0.039 A 
ATOM     15  C   UNL     1       0.309  -5.214   0.357  0.00  0.00    +0.018 A 
BRANCH   5  17
ATOM     16  C   UNL     1      -0.019   1.526   0.010  0.00  0.00    +0.013 C 
ATOM     17  C   UNL     1       0.002  -0.004   0.002  0.00  0.00    +0.093 C 
ENDBRANCH   5  17
ENDBRANCH   1  14
BRANCH   3  18
ATOM     18  N   UNL     1      -1.917  -7.291  -3.447  0.00  0.00    -0.234 N 
ATOM     19  C   UNL     1      -2.602  -7.159  -4.601  0.00  0.00    +0.233 C 
ATOM     20  O   UNL     1      -2.870  -6.055  -5.024  0.00  0.00    -0.274 OA
ATOM     21  H   UNL     1      -1.703  -8.174  -3.108  0.00  0.00    +0.173 HD
BRANCH  19  22
ATOM     22  C   UNL     1      -3.033  -8.384  -5.364  0.00  0.00    +0.130 C 
BRANCH  22  23
ATOM     23  C   UNL     1      -3.775  -7.966  -6.608  0.00  0.00    -0.033 C 
ATOM     24  C   UNL     1      -3.262  -7.821  -7.851  0.00  0.00    -0.001 A 
ATOM     25  C   UNL     1      -1.911  -8.001  -8.396  0.00  0.00    +0.010 A 
ATOM     26  C   UNL     1      -1.700  -7.774  -9.713  0.00  0.00    +0.001 A 
ATOM     27  C   UNL     1      -2.736  -7.372 -10.567  0.00  0.00    +0.002 A 
ATOM     28  C   UNL     1      -4.002  -7.185 -10.139  0.00  0.00    +0.026 A 
ATOM     29  C   UNL     1      -4.338  -7.396  -8.774  0.00  0.00    +0.043 A 
ATOM     30  N   UNL     1      -5.473  -7.282  -8.127  0.00  0.00    -0.380 N 
ATOM     31  C   UNL     1      -5.245  -7.629  -6.719  0.00  0.00    +0.145 C 
ATOM     32  H   UNL     1      -6.322  -7.018  -8.514  0.00  0.00    +0.160 HD
ENDBRANCH  22  23
ENDBRANCH  19  22
ENDBRANCH   3  18
TORSDOF 5
