REMARK  Name = ZINC53576763
REMARK  7 active torsions:
REMARK  status: ('A' for Active; 'I' for Inactive)
REMARK    1  A    between atoms: C_1  and  C_2
REMARK    2  A    between atoms: C_2  and  C_3
REMARK    3  A    between atoms: C_2  and  C_4
REMARK    4  A    between atoms: C_2  and  C_20
REMARK    5  A    between atoms: C_4  and  N_5
REMARK    6  A    between atoms: N_10  and  C_11
REMARK    7  A    between atoms: N_18  and  C_19
REMARK                            x       y       z     vdW  Elec       q    Type
REMARK                         _______ _______ _______ _____ _____    ______ ____
ROOT
ATOM      1  N   UNL     1      -2.119  -0.061   1.218  0.00  0.00    -0.314 N 
ATOM      2  C   UNL     1      -3.430  -0.413   1.447  0.00  0.00    +0.198 A 
ATOM      3  N   UNL     1      -4.163  -1.171   0.657  0.00  0.00    -0.196 NA
ATOM      4  C   UNL     1      -5.386  -1.315   1.171  0.00  0.00    +0.170 A 
ATOM      5  C   UNL     1      -5.426  -0.600   2.364  0.00  0.00    +0.152 A 
ATOM      6  N   UNL     1      -4.167  -0.037   2.525  0.00  0.00    -0.309 N 
ATOM      7  C   UNL     1      -3.721   0.803   3.639  0.00  0.00    +0.152 C 
ATOM      8  C   UNL     1      -6.614  -0.585   3.115  0.00  0.00    +0.280 A 
ATOM      9  O   UNL     1      -6.673   0.035   4.163  0.00  0.00    -0.265 OA
ATOM     10  N   UNL     1      -7.689  -1.264   2.664  0.00  0.00    -0.273 N 
ATOM     11  H   UNL     1      -8.511  -1.256   3.180  0.00  0.00    +0.173 HD
ATOM     12  C   UNL     1      -7.640  -1.952   1.510  0.00  0.00    +0.331 A 
ATOM     13  O   UNL     1      -8.628  -2.552   1.135  0.00  0.00    -0.246 OA
ATOM     14  N   UNL     1      -6.522  -1.992   0.760  0.00  0.00    -0.280 N 
ATOM     15  C   UNL     1      -6.508  -2.753  -0.491  0.00  0.00    +0.155 C 
ATOM     16  H   UNL     1      -1.649   0.499   1.855  0.00  0.00    +0.149 HD
ENDROOT
BRANCH   1  17
ATOM     17  C   UNL     1      -1.433  -0.534   0.013  0.00  0.00    +0.115 C 
BRANCH  17  19
ATOM     18  C   UNL     1      -0.019   1.526   0.010  0.00  0.00    +0.017 C 
ATOM     19  C   UNL     1       0.002  -0.004   0.002  0.00  0.00    +0.006 C 
ATOM     20  C   UNL     1       0.742  -0.511   1.242  0.00  0.00    +0.017 C 
BRANCH  19  21
ATOM     21  C   UNL     1       0.707  -0.490  -1.238  0.00  0.00    -0.040 A 
ATOM     22  C   UNL     1       0.036  -1.284  -2.148  0.00  0.00    +0.005 A 
ATOM     23  C   UNL     1       0.682  -1.730  -3.286  0.00  0.00    +0.020 A 
ATOM     24  C   UNL     1       2.002  -1.382  -3.513  0.00  0.00    +0.041 A 
ATOM     25  C   UNL     1       2.673  -0.587  -2.601  0.00  0.00    +0.020 A 
ATOM     26  C   UNL     1       2.024  -0.137  -1.467  0.00  0.00    +0.005 A 
ATOM     27 CL   UNL     1       2.814  -1.942  -4.941  0.00  0.00    -0.084 Cl
ENDBRANCH  19  21
ENDBRANCH  17  19
ENDBRANCH   1  17
TORSDOF 3
