REMARK  Name = ZINC14623578
REMARK  13 active torsions:
REMARK  status: ('A' for Active; 'I' for Inactive)
REMARK    1  A    between atoms: C_1  and  C_2
REMARK    2  A    between atoms: C_2  and  C_3
REMARK    3  A    between atoms: C_3  and  C_4
REMARK    4  A    between atoms: C_4  and  N_5
REMARK    5  A    between atoms: C_6  and  N_29
REMARK    6  A    between atoms: C_7  and  N_14
REMARK    7  A    between atoms: N_14  and  C_15
REMARK    8  A    between atoms: C_15  and  C_16
REMARK    9  A    between atoms: C_16  and  C_17
REMARK   10  A    between atoms: C_17  and  C_18
REMARK   11  A    between atoms: C_17  and  C_19
REMARK   12  A    between atoms: C_20  and  C_22
REMARK   13  A    between atoms: C_25  and  C_28
REMARK                            x       y       z     vdW  Elec       q    Type
REMARK                         _______ _______ _______ _____ _____    ______ ____
ROOT
ATOM      1  N   UNL     1      -0.904   2.166  -0.620  0.00  0.00    -0.280 N 
ATOM      2  C   UNL     1       0.251   2.873  -0.861  0.00  0.00    +0.127 A 
ATOM      3  C   UNL     1       1.129   3.104   0.179  0.00  0.00    +0.140 A 
ATOM      4  C   UNL     1       0.813   2.607   1.458  0.00  0.00    +0.277 A 
ATOM      5  O   UNL     1       1.570   2.797   2.395  0.00  0.00    -0.266 OA
ATOM      6  N   UNL     1      -0.332   1.920   1.640  0.00  0.00    -0.273 N 
ATOM      7  H   UNL     1      -0.559   1.570   2.549  0.00  0.00    +0.173 HD
ATOM      8  C   UNL     1      -1.173   1.700   0.614  0.00  0.00    +0.331 A 
ATOM      9  O   UNL     1      -2.197   1.073   0.805  0.00  0.00    -0.246 OA
ENDROOT
BRANCH   3  10
ATOM     10  N   UNL     1       2.320   3.826  -0.035  0.00  0.00    -0.259 N 
ATOM     11  C   UNL     1       2.268   5.141  -0.326  0.00  0.00    +0.271 C 
ATOM     12  O   UNL     1       3.289   5.744  -0.596  0.00  0.00    -0.268 OA
BRANCH  11  13
ATOM     13  C   UNL     1       0.969   5.851  -0.317  0.00  0.00    +0.144 A 
ATOM     14  C   UNL     1       0.895   7.180  -0.732  0.00  0.00    +0.144 A 
ATOM     15  N   UNL     1      -0.267   7.807  -0.727  0.00  0.00    -0.256 NA
ATOM     16  C   UNL     1      -1.356   7.180  -0.318  0.00  0.00    +0.056 A 
ATOM     17  C   UNL     1      -1.286   5.860   0.101  0.00  0.00    +0.134 A 
ATOM     18  N   UNL     1      -0.131   5.224   0.093  0.00  0.00    -0.247 NA
ATOM     19  C   UNL     1      -2.679   7.901  -0.308  0.00  0.00    +0.067 C 
ENDBRANCH  11  13
BRANCH  10  20
ATOM     20  C   UNL     1       3.615   3.146   0.058  0.00  0.00    +0.114 C 
BRANCH  20  21
ATOM     21  C   UNL     1       4.064   2.712  -1.339  0.00  0.00    +0.022 C 
BRANCH  21  22
ATOM     22  C   UNL     1       5.416   2.002  -1.242  0.00  0.00    -0.016 C 
ATOM     23  C   UNL     1       5.806   1.458  -2.618  0.00  0.00    +0.007 C 
ATOM     24  C   UNL     1       6.479   2.994  -0.765  0.00  0.00    +0.007 C 
ENDBRANCH  21  22
ENDBRANCH  20  21
ENDBRANCH  10  20
ENDBRANCH   3  10
BRANCH   2  25
ATOM     25  N   UNL     1       0.527   3.344  -2.122  0.00  0.00    -0.343 N 
ATOM     26  H   UNL     1       1.380   3.769  -2.304  0.00  0.00    +0.144 HD
ATOM     27  H   UNL     1      -0.130   3.251  -2.829  0.00  0.00    +0.144 HD
ENDBRANCH   2  25
BRANCH   1  28
ATOM     28  C   UNL     1      -1.845   1.913  -1.714  0.00  0.00    +0.128 C 
BRANCH  28  29
ATOM     29  C   UNL     1      -1.484   0.595  -2.403  0.00  0.00    +0.021 C 
BRANCH  29  31
ATOM     30  C   UNL     1      -2.105  -0.987  -4.234  0.00  0.00    +0.004 C 
ATOM     31  C   UNL     1      -2.466   0.331  -3.546  0.00  0.00    -0.002 C 
ENDBRANCH  29  31
ENDBRANCH  28  29
ENDBRANCH   1  28
TORSDOF 9
