REMARK  Name = ZINC48406838
REMARK  8 active torsions:
REMARK  status: ('A' for Active; 'I' for Inactive)
REMARK    1  A    between atoms: C_1  and  C_2
REMARK    2  A    between atoms: C_2  and  C_4
REMARK    3  A    between atoms: C_2  and  N_13
REMARK    4  A    between atoms: N_16  and  C_17
REMARK    5  A    between atoms: C_17  and  C_19
REMARK    6  A    between atoms: C_17  and  C_20
REMARK    7  A    between atoms: C_20  and  C_21
REMARK    8  A    between atoms: C_20  and  C_22
REMARK                            x       y       z     vdW  Elec       q    Type
REMARK                         _______ _______ _______ _____ _____    ______ ____
ROOT
ATOM      1  C   UNL     1      -0.019   1.526   0.010  0.00  0.00    +0.036 C 
ATOM      2  C   UNL     1       0.002  -0.004   0.002  0.00  0.00    +0.137 C 
ENDROOT
BRANCH   2   3
ATOM      3  C   UNL     1      -1.412  -0.526   0.013  0.00  0.00    +0.126 A 
ATOM      4  C   UNL     1      -2.074  -0.969  -1.064  0.00  0.00    +0.055 A 
ATOM      5  C   UNL     1      -3.402  -1.375  -0.590  0.00  0.00    +0.020 A 
ATOM      6  C   UNL     1      -4.536  -1.907  -1.202  0.00  0.00    +0.011 A 
ATOM      7  C   UNL     1      -5.646  -2.180  -0.453  0.00  0.00    +0.001 A 
ATOM      8  C   UNL     1      -5.651  -1.931   0.912  0.00  0.00    +0.004 A 
ATOM      9  C   UNL     1      -4.540  -1.404   1.535  0.00  0.00    +0.047 A 
ATOM     10  C   UNL     1      -3.401  -1.120   0.792  0.00  0.00    +0.135 A 
ATOM     11  O   UNL     1      -2.189  -0.619   1.105  0.00  0.00    -0.458 OA
ENDBRANCH   2   3
BRANCH   2  12
ATOM     12  N   UNL     1       0.711  -0.489   1.189  0.00  0.00    -0.290 N 
ATOM     13  C   UNL     1       2.054  -0.600   1.174  0.00  0.00    +0.300 C 
ATOM     14  O   UNL     1       2.677  -0.297   0.175  0.00  0.00    -0.253 OA
ATOM     15  N   UNL     1       2.706  -1.046   2.266  0.00  0.00    -0.297 N 
ATOM     16  H   UNL     1       0.213  -0.731   1.986  0.00  0.00    +0.151 HD
ATOM     17  H   UNL     1       2.208  -1.288   3.062  0.00  0.00    +0.151 HD
BRANCH  15  18
ATOM     18  C   UNL     1       4.166  -1.166   2.249  0.00  0.00    +0.074 C 
ATOM     19  C   UNL     1       4.560  -2.515   1.643  0.00  0.00    +0.028 C 
BRANCH  18  20
ATOM     20  C   UNL     1       4.701  -1.074   3.679  0.00  0.00    +0.003 C 
ATOM     21  C   UNL     1       4.205  -2.275   4.488  0.00  0.00    +0.009 C 
ATOM     22  C   UNL     1       6.231  -1.074   3.652  0.00  0.00    +0.009 C 
ENDBRANCH  18  20
ENDBRANCH  15  18
ENDBRANCH   2  12
TORSDOF 4
