REMARK  Name = ZINC00753148
REMARK  8 active torsions:
REMARK  status: ('A' for Active; 'I' for Inactive)
REMARK    1  A    between atoms: C_1  and  C_2
REMARK    2  A    between atoms: C_2  and  C_3
REMARK    3  A    between atoms: C_4  and  C_22
REMARK    4  A    between atoms: C_16  and  C_20
REMARK    5  A    between atoms: C_17  and  N_19
REMARK    6  A    between atoms: C_22  and  O_24
REMARK    7  A    between atoms: O_24  and  C_25
REMARK    8  A    between atoms: C_25  and  C_26
REMARK                            x       y       z     vdW  Elec       q    Type
REMARK                         _______ _______ _______ _____ _____    ______ ____
ROOT
ATOM      1  C   UNL     1      -0.083  -3.614   1.133  0.00  0.00    +0.119 C 
ATOM      2  C   UNL     1       1.178  -3.159   1.151  0.00  0.00    +0.099 C 
ATOM      3  C   UNL     1       1.780  -2.519  -0.066  0.00  0.00    +0.148 C 
ATOM      4  C   UNL     1       1.885  -1.026   0.121  0.00  0.00    -0.000 A 
ATOM      5  C   UNL     1       0.951  -0.037   0.330  0.00  0.00    +0.022 A 
ATOM      6  C   UNL     1       1.357   1.279   0.469  0.00  0.00    +0.018 A 
ATOM      7  C   UNL     1       2.702   1.595   0.395  0.00  0.00    +0.017 A 
ATOM      8  C   UNL     1       3.640   0.606   0.185  0.00  0.00    +0.025 A 
ATOM      9  C   UNL     1       3.239  -0.721   0.045  0.00  0.00    +0.038 A 
ATOM     10  N   UNL     1       3.984  -1.882  -0.172  0.00  0.00    -0.284 N 
ATOM     11  C   UNL     1       3.208  -2.977  -0.250  0.00  0.00    +0.238 C 
ATOM     12  O   UNL     1       3.582  -4.116  -0.433  0.00  0.00    -0.274 OA
ATOM     13 BR   UNL     1       0.077   2.642   0.748  0.00  0.00    -0.050 Br
ATOM     14  C   UNL     1       0.965  -2.840  -1.286  0.00  0.00    +0.110 C 
ATOM     15  C   UNL     1      -0.297  -3.320  -1.160  0.00  0.00    +0.199 C 
ATOM     16  O   UNL     1      -0.860  -3.521   0.044  0.00  0.00    -0.445 OA
ATOM     17  H   UNL     1       4.951  -1.896  -0.257  0.00  0.00    +0.155 HD
ENDROOT
BRANCH  15  18
ATOM     18  N   UNL     1      -1.019  -3.609  -2.292  0.00  0.00    -0.328 N 
ATOM     19  H   UNL     1      -0.625  -3.469  -3.167  0.00  0.00    +0.145 HD
ATOM     20  H   UNL     1      -1.922  -3.953  -2.216  0.00  0.00    +0.145 HD
ENDBRANCH  15  18
BRANCH   1  22
ATOM     21  C   UNL     1      -0.211  -5.718   2.440  0.00  0.00    +0.012 C 
ATOM     22  C   UNL     1      -0.645  -4.252   2.377  0.00  0.00    +0.071 C 
ENDBRANCH   1  22
BRANCH  14  23
ATOM     23  C   UNL     1       1.524  -2.637  -2.588  0.00  0.00    +0.102 C 
ATOM     24  N   UNL     1       1.967  -2.477  -3.622  0.00  0.00    -0.191 NA
ENDBRANCH  14  23
BRANCH   2  25
ATOM     25  C   UNL     1       1.950  -3.284   2.332  0.00  0.00    +0.340 C 
ATOM     26  O   UNL     1       1.513  -3.905   3.282  0.00  0.00    -0.245 OA
BRANCH  25  27
ATOM     27  O   UNL     1       3.171  -2.714   2.403  0.00  0.00    -0.462 OA
BRANCH  27  28
ATOM     28  C   UNL     1       3.895  -2.880   3.624  0.00  0.00    +0.229 C 
ATOM     29  C   UNL     1       5.246  -2.170   3.516  0.00  0.00    +0.048 C 
ENDBRANCH  27  28
ENDBRANCH  25  27
ENDBRANCH   2  25
TORSDOF 6
