REMARK  Name = ZINC14755699
REMARK  13 active torsions:
REMARK  status: ('A' for Active; 'I' for Inactive)
REMARK    1  A    between atoms: C_1  and  C_2
REMARK    2  A    between atoms: C_2  and  C_4
REMARK    3  A    between atoms: C_2  and  N_9
REMARK    4  A    between atoms: C_4  and  C_5
REMARK    5  A    between atoms: N_9  and  C_10
REMARK    6  A    between atoms: C_13  and  N_31
REMARK    7  A    between atoms: C_14  and  C_27
REMARK    8  A    between atoms: N_15  and  C_19
REMARK    9  A    between atoms: C_19  and  C_20
REMARK   10  A    between atoms: C_20  and  C_21
REMARK   11  A    between atoms: C_27  and  O_29
REMARK   12  A    between atoms: O_29  and  C_30
REMARK   13  A    between atoms: C_32  and  C_34
REMARK                            x       y       z     vdW  Elec       q    Type
REMARK                         _______ _______ _______ _____ _____    ______ ____
ROOT
ATOM      1  C   UNL     1      -0.015   1.533   0.888  0.00  0.00    +0.046 A 
ATOM      2  C   UNL     1       1.172   2.221   0.682  0.00  0.00    +0.038 A 
ATOM      3  C   UNL     1       1.095   3.564   0.300  0.00  0.00    +0.043 A 
ATOM      4  C   UNL     1       2.096   4.589   0.000  0.00  0.00    +0.075 A 
ATOM      5  C   UNL     1       1.400   5.736  -0.320  0.00  0.00    +0.151 A 
ATOM      6  N   UNL     1       0.040   5.476  -0.234  0.00  0.00    -0.318 N 
ATOM      7  C   UNL     1      -0.166   4.169   0.139  0.00  0.00    +0.143 A 
ATOM      8  N   UNL     1      -1.270   3.462   0.351  0.00  0.00    -0.235 NA
ATOM      9  C   UNL     1      -1.226   2.195   0.704  0.00  0.00    +0.136 A 
ENDROOT
BRANCH   4  10
ATOM     10  N   UNL     1       3.479   4.437   0.032  0.00  0.00    -0.281 N 
ATOM     11  C   UNL     1       4.027   3.222  -0.165  0.00  0.00    +0.246 C 
ATOM     12  O   UNL     1       3.321   2.275  -0.440  0.00  0.00    -0.273 OA
ATOM     13  H   UNL     1       4.048   5.205   0.197  0.00  0.00    +0.155 HD
BRANCH  11  14
ATOM     14  C   UNL     1       5.519   3.040  -0.046  0.00  0.00    +0.204 C 
ATOM     15  C   UNL     1       6.248   3.839  -1.149  0.00  0.00    +0.043 C 
ATOM     16  C   UNL     1       7.433   2.931  -1.548  0.00  0.00    +0.031 C 
ATOM     17  C   UNL     1       7.279   1.691  -0.639  0.00  0.00    +0.161 C 
ATOM     18  O   UNL     1       5.878   1.663  -0.288  0.00  0.00    -0.367 OA
ENDBRANCH  11  14
ENDBRANCH   4  10
BRANCH   1  19
ATOM     19  N   UNL     1       0.004   0.186   1.271  0.00  0.00    -0.340 N 
ATOM     20  H   UNL     1       0.851  -0.271   1.394  0.00  0.00    +0.146 HD
BRANCH  19  22
ATOM     21  C   UNL     1      -1.768  -1.072   0.150  0.00  0.00    +0.028 C 
ATOM     22  C   UNL     1      -1.254  -0.533   1.486  0.00  0.00    +0.076 C 
BRANCH  22  23
ATOM     23  C   UNL     1      -1.018  -1.698   2.449  0.00  0.00    +0.135 C 
BRANCH  23  24
ATOM     24  C   UNL     1      -0.624  -1.152   3.823  0.00  0.00    +0.392 C 
ATOM     25  F   UNL     1      -1.652  -0.341   4.315  0.00  0.00    -0.171 F 
ATOM     26  F   UNL     1      -0.408  -2.217   4.704  0.00  0.00    -0.171 F 
ATOM     27  F   UNL     1       0.549  -0.398   3.706  0.00  0.00    -0.171 F 
ENDBRANCH  23  24
ENDBRANCH  22  23
ENDBRANCH  19  22
ENDBRANCH   1  19
BRANCH   5  28
ATOM     28  C   UNL     1       1.980   6.979  -0.679  0.00  0.00    +0.358 C 
ATOM     29  O   UNL     1       3.184   7.068  -0.829  0.00  0.00    -0.243 OA
BRANCH  28  30
ATOM     30  O   UNL     1       1.196   8.064  -0.855  0.00  0.00    -0.463 OA
ATOM     31  C   UNL     1       1.847   9.283  -1.216  0.00  0.00    +0.280 C 
ENDBRANCH  28  30
ENDBRANCH   5  28
BRANCH   6  32
ATOM     32  C   UNL     1      -1.021   6.450  -0.503  0.00  0.00    +0.129 C 
BRANCH  32  33
ATOM     33  C   UNL     1      -1.402   6.393  -1.984  0.00  0.00    +0.057 C 
BRANCH  33  34
ATOM     34  C   UNL     1      -2.493   7.396  -2.260  0.00  0.00    -0.046 A 
ATOM     35  C   UNL     1      -3.819   7.022  -2.148  0.00  0.00    +0.004 A 
ATOM     36  C   UNL     1      -4.820   7.942  -2.398  0.00  0.00    +0.000 A 
ATOM     37  C   UNL     1      -4.495   9.234  -2.768  0.00  0.00    +0.000 A 
ATOM     38  C   UNL     1      -3.169   9.606  -2.885  0.00  0.00    +0.000 A 
ATOM     39  C   UNL     1      -2.168   8.687  -2.631  0.00  0.00    +0.004 A 
ENDBRANCH  33  34
ENDBRANCH  32  33
ENDBRANCH   6  32
TORSDOF 11
