REMARK  Name = ZINC39932188
REMARK  5 active torsions:
REMARK  status: ('A' for Active; 'I' for Inactive)
REMARK    1  A    between atoms: C_1  and  C_2
REMARK    2  A    between atoms: C_2  and  C_21
REMARK    3  A    between atoms: N_5  and  C_9
REMARK    4  A    between atoms: C_9  and  C_10
REMARK    5  A    between atoms: C_10  and  C_12
REMARK                            x       y       z     vdW  Elec       q    Type
REMARK                         _______ _______ _______ _____ _____    ______ ____
ROOT
ATOM      1  C   UNL     1       0.073   1.524   0.050  0.00  0.00    +0.047 C 
ATOM      2  C   UNL     1       0.002  -0.004   0.002  0.00  0.00    +0.136 C 
ATOM      3  C   UNL     1      -1.422  -0.478   0.215  0.00  0.00    +0.251 C 
ATOM      4  O   UNL     1      -2.386  -0.238  -0.479  0.00  0.00    -0.272 OA
ATOM      5  N   UNL     1      -1.393  -1.224   1.338  0.00  0.00    -0.216 N 
ATOM      6  C   UNL     1      -0.162  -1.286   1.858  0.00  0.00    +0.310 C 
ATOM      7  O   UNL     1       0.114  -1.900   2.869  0.00  0.00    -0.252 OA
ATOM      8  N   UNL     1       0.737  -0.593   1.135  0.00  0.00    -0.281 N 
ATOM      9  H   UNL     1       1.683  -0.499   1.324  0.00  0.00    +0.152 HD
ENDROOT
BRANCH   2  10
ATOM     10  C   UNL     1       0.545  -0.518  -1.306  0.00  0.00    -0.008 A 
ATOM     11  C   UNL     1       1.602  -1.376  -1.319  0.00  0.00    +0.007 A 
ATOM     12  C   UNL     1       2.118  -1.862  -2.518  0.00  0.00    +0.001 A 
ATOM     13  C   UNL     1       1.580  -1.492  -3.713  0.00  0.00    +0.008 A 
ATOM     14  C   UNL     1       0.488  -0.609  -3.740  0.00  0.00    -0.018 A 
ATOM     15  C   UNL     1      -0.040  -0.119  -2.520  0.00  0.00    -0.012 A 
ATOM     16  C   UNL     1      -1.136   0.760  -2.547  0.00  0.00    +0.009 A 
ATOM     17  C   UNL     1      -1.677   1.125  -3.741  0.00  0.00    +0.001 A 
ATOM     18  C   UNL     1      -1.161   0.639  -4.941  0.00  0.00    +0.001 A 
ATOM     19  C   UNL     1      -0.093  -0.204  -4.954  0.00  0.00    +0.008 A 
ENDBRANCH   2  10
BRANCH   5  20
ATOM     20  C   UNL     1      -2.565  -1.884   1.917  0.00  0.00    +0.197 C 
BRANCH  20  21
ATOM     21  C   UNL     1      -2.698  -3.270   1.339  0.00  0.00    +0.179 C 
ATOM     22  O   UNL     1      -1.892  -3.667   0.523  0.00  0.00    -0.291 OA
BRANCH  21  23
ATOM     23  C   UNL     1      -3.760  -4.106   1.747  0.00  0.00    +0.025 C 
ATOM     24  C   UNL     1      -4.019  -5.396   1.321  0.00  0.00    +0.006 A 
ATOM     25  C   UNL     1      -3.369  -6.256   0.406  0.00  0.00    +0.010 A 
ATOM     26  C   UNL     1      -3.854  -7.497   0.175  0.00  0.00    +0.001 A 
ATOM     27  C   UNL     1      -5.002  -7.989   0.817  0.00  0.00    +0.002 A 
ATOM     28  C   UNL     1      -5.696  -7.249   1.707  0.00  0.00    +0.026 A 
ATOM     29  C   UNL     1      -5.236  -5.885   2.017  0.00  0.00    +0.043 A 
ATOM     30  N   UNL     1      -5.703  -4.970   2.817  0.00  0.00    -0.380 N 
ATOM     31  C   UNL     1      -4.848  -3.781   2.747  0.00  0.00    +0.152 C 
ATOM     32  H   UNL     1      -6.490  -5.062   3.376  0.00  0.00    +0.160 HD
ENDBRANCH  21  23
ENDBRANCH  20  21
ENDBRANCH   5  20
TORSDOF 4
