REMARK  Name = ZINC06952237
REMARK  9 active torsions:
REMARK  status: ('A' for Active; 'I' for Inactive)
REMARK    1  A    between atoms: C_1  and  C_2
REMARK    2  A    between atoms: C_2  and  C_3
REMARK    3  A    between atoms: C_2  and  C_4
REMARK    4  A    between atoms: C_4  and  C_5
REMARK    5  A    between atoms: C_5  and  C_7
REMARK    6  A    between atoms: C_5  and  N_32
REMARK    7  A    between atoms: N_9  and  N_10
REMARK    8  A    between atoms: N_18  and  C_21
REMARK    9  A    between atoms: C_21  and  C_22
REMARK                            x       y       z     vdW  Elec       q    Type
REMARK                         _______ _______ _______ _____ _____    ______ ____
ROOT
ATOM      1  N   UNL     1      -4.720  -3.263   1.353  0.00  0.00    -0.175 NA
ATOM      2  C   UNL     1      -5.247  -3.394   2.546  0.00  0.00    +0.153 C 
ATOM      3  C   UNL     1      -6.603  -3.886   2.884  0.00  0.00    +0.028 A 
ATOM      4  C   UNL     1      -7.673  -4.333   2.117  0.00  0.00    +0.012 A 
ATOM      5  C   UNL     1      -8.838  -4.737   2.736  0.00  0.00    +0.001 A 
ATOM      6  C   UNL     1      -8.940  -4.698   4.117  0.00  0.00    +0.002 A 
ATOM      7  C   UNL     1      -7.884  -4.256   4.887  0.00  0.00    +0.024 A 
ATOM      8  C   UNL     1      -6.702  -3.845   4.281  0.00  0.00    +0.046 A 
ATOM      9  N   UNL     1      -5.510  -3.365   4.812  0.00  0.00    -0.261 N 
ATOM     10  C   UNL     1      -4.616  -3.090   3.847  0.00  0.00    +0.272 C 
ATOM     11  O   UNL     1      -3.489  -2.663   4.014  0.00  0.00    -0.268 OA
ENDROOT
BRANCH   1  14
ATOM     12  C   UNL     1      -2.869  -2.648  -0.012  0.00  0.00    +0.218 C 
ATOM     13  O   UNL     1      -3.515  -2.942  -0.996  0.00  0.00    -0.276 OA
ATOM     14  N   UNL     1      -3.411  -2.784   1.214  0.00  0.00    -0.208 N 
ATOM     15  H   UNL     1      -2.894  -2.549   2.001  0.00  0.00    +0.177 HD
BRANCH  12  16
ATOM     16  C   UNL     1      -1.461  -2.133  -0.161  0.00  0.00    +0.015 C 
BRANCH  16  17
ATOM     17  N   UNL     1      -0.936  -2.515  -1.479  0.00  0.00    +0.386 N 
ATOM     18  H   UNL     1      -0.937  -3.521  -1.563  0.00  0.00    -0.089 HD
ATOM     19  H   UNL     1      -1.518  -2.117  -2.201  0.00  0.00    -0.089 HD
ATOM     20  H   UNL     1       0.006  -2.170  -1.579  0.00  0.00    -0.089 HD
ENDBRANCH  16  17
BRANCH  16  21
ATOM     21  C   UNL     1      -1.460  -0.608  -0.035  0.00  0.00    -0.004 C 
BRANCH  21  23
ATOM     22  C   UNL     1      -0.021   1.435  -0.060  0.00  0.00    +0.007 C 
ATOM     23  C   UNL     1      -0.018  -0.096  -0.061  0.00  0.00    -0.018 C 
ATOM     24  C   UNL     1       0.727  -0.605   1.174  0.00  0.00    +0.007 C 
ENDBRANCH  21  23
ENDBRANCH  16  21
ENDBRANCH  12  16
ENDBRANCH   1  14
BRANCH   9  25
ATOM     25  C   UNL     1      -5.256  -3.189   6.245  0.00  0.00    +0.149 C 
BRANCH  25  26
ATOM     26  C   UNL     1      -4.775  -4.490   6.833  0.00  0.00    -0.022 A 
ATOM     27  C   UNL     1      -4.529  -5.558   6.025  0.00  0.00    +0.006 A 
ATOM     28  C   UNL     1      -4.084  -6.769   6.551  0.00  0.00    +0.001 A 
ATOM     29  C   UNL     1      -3.883  -6.920   7.889  0.00  0.00    +0.008 A 
ATOM     30  C   UNL     1      -4.126  -5.840   8.755  0.00  0.00    -0.018 A 
ATOM     31  C   UNL     1      -4.573  -4.606   8.219  0.00  0.00    -0.013 A 
ATOM     32  C   UNL     1      -4.810  -3.525   9.085  0.00  0.00    +0.009 A 
ATOM     33  C   UNL     1      -4.603  -3.674  10.421  0.00  0.00    +0.001 A 
ATOM     34  C   UNL     1      -4.157  -4.885  10.947  0.00  0.00    +0.001 A 
ATOM     35  C   UNL     1      -3.929  -5.958  10.142  0.00  0.00    +0.008 A 
ENDBRANCH  25  26
ENDBRANCH   9  25
TORSDOF 7
