REMARK  Name = ZINC39227682
REMARK  9 active torsions:
REMARK  status: ('A' for Active; 'I' for Inactive)
REMARK    1  A    between atoms: C_1  and  C_2
REMARK    2  A    between atoms: C_2  and  C_4
REMARK    3  A    between atoms: C_2  and  N_8
REMARK    4  A    between atoms: C_4  and  C_5
REMARK    5  A    between atoms: C_5  and  C_6
REMARK    6  A    between atoms: C_5  and  C_7
REMARK    7  A    between atoms: C_9  and  C_11
REMARK    8  A    between atoms: C_14  and  C_17
REMARK    9  A    between atoms: N_29  and  C_32
REMARK                            x       y       z     vdW  Elec       q    Type
REMARK                         _______ _______ _______ _____ _____    ______ ____
ROOT
ATOM      1  C   UNL     1      -7.361  -2.635  -1.611  0.00  0.00    -0.017 A 
ATOM      2  C   UNL     1      -8.058  -2.959  -0.448  0.00  0.00    +0.012 A 
ATOM      3  C   UNL     1      -9.348  -3.434  -0.531  0.00  0.00    +0.046 A 
ATOM      4  C   UNL     1      -9.961  -3.592  -1.772  0.00  0.00    +0.124 A 
ATOM      5  C   UNL     1      -9.273  -3.266  -2.930  0.00  0.00    -0.005 A 
ATOM      6  C   UNL     1      -7.978  -2.787  -2.851  0.00  0.00    +0.015 A 
ATOM      7  C   UNL     1      -9.909  -3.411  -4.290  0.00  0.00    +0.043 C 
ATOM      8  C   UNL     1     -11.120  -4.342  -4.195  0.00  0.00    +0.052 C 
ATOM      9  C   UNL     1     -11.981  -3.895  -3.009  0.00  0.00    +0.108 C 
ATOM     10  O   UNL     1     -11.232  -4.071  -1.808  0.00  0.00    -0.486 OA
ATOM     11  C   UNL     1     -13.255  -4.741  -2.954  0.00  0.00    +0.029 C 
ATOM     12  C   UNL     1     -14.147  -4.236  -1.818  0.00  0.00    -0.075 C 
ATOM     13  N   UNL     1     -14.498  -2.831  -2.055  0.00  0.00    +0.378 N 
ATOM     14  C   UNL     1     -13.285  -2.004  -2.032  0.00  0.00    -0.075 C 
ATOM     15  C   UNL     1     -12.357  -2.421  -3.176  0.00  0.00    +0.029 C 
ATOM     16  C   UNL     1     -15.420  -2.374  -1.006  0.00  0.00    -0.096 C 
ATOM     17  H   UNL     1     -14.945  -2.744  -2.955  0.00  0.00    -0.082 HD
ENDROOT
BRANCH   1  21
ATOM     18  C   UNL     1      -3.373  -1.173  -1.375  0.00  0.00    +0.037 A 
ATOM     19  C   UNL     1      -4.067  -1.502  -0.208  0.00  0.00    +0.013 A 
ATOM     20  C   UNL     1      -5.357  -1.975  -0.286  0.00  0.00    +0.009 A 
ATOM     21  C   UNL     1      -5.972  -2.125  -1.529  0.00  0.00    -0.018 A 
ATOM     22  C   UNL     1      -5.280  -1.797  -2.695  0.00  0.00    +0.009 A 
ATOM     23  C   UNL     1      -3.991  -1.319  -2.620  0.00  0.00    +0.013 A 
BRANCH  18  25
ATOM     24  N   UNL     1      -1.392  -0.524  -0.093  0.00  0.00    -0.309 N 
ATOM     25  C   UNL     1      -1.988  -0.665  -1.293  0.00  0.00    +0.244 C 
ATOM     26  O   UNL     1      -1.387  -0.374  -2.309  0.00  0.00    -0.270 OA
ATOM     27  H   UNL     1      -1.872  -0.756   0.717  0.00  0.00    +0.149 HD
BRANCH  24  29
ATOM     28  C   UNL     1      -0.036   1.510  -0.018  0.00  0.00    +0.028 C 
ATOM     29  C   UNL     1      -0.019  -0.020  -0.011  0.00  0.00    +0.070 C 
BRANCH  29  30
ATOM     30  C   UNL     1       0.631  -0.517   1.282  0.00  0.00    +0.025 C 
BRANCH  30  31
ATOM     31  C   UNL     1       0.763  -2.041   1.233  0.00  0.00    -0.015 C 
ATOM     32  C   UNL     1       1.749  -2.433   0.131  0.00  0.00    +0.007 C 
ATOM     33  C   UNL     1       1.276  -2.551   2.581  0.00  0.00    +0.007 C 
ENDBRANCH  30  31
ENDBRANCH  29  30
ENDBRANCH  24  29
ENDBRANCH  18  25
ENDBRANCH   1  21
TORSDOF 5
