REMARK  Name = ZINC21179835
REMARK  6 active torsions:
REMARK  status: ('A' for Active; 'I' for Inactive)
REMARK    1  A    between atoms: C_1  and  N_2
REMARK    2  A    between atoms: C_3  and  C_26
REMARK    3  A    between atoms: C_6  and  S_7
REMARK    4  A    between atoms: S_7  and  C_8
REMARK    5  A    between atoms: C_8  and  C_9
REMARK    6  A    between atoms: C_15  and  C_20
REMARK                            x       y       z     vdW  Elec       q    Type
REMARK                         _______ _______ _______ _____ _____    ______ ____
ROOT
ATOM      1  C   UNL     1       0.064  -1.917   3.688  0.00  0.00    +0.151 C 
ENDROOT
BRANCH   1   2
ATOM      2  C   UNL     1       0.075  -1.639   5.169  0.00  0.00    +0.121 A 
ATOM      3  N   UNL     1       0.103  -2.679   6.042  0.00  0.00    -0.310 N 
ATOM      4  H   UNL     1       0.117  -3.587   5.700  0.00  0.00    +0.170 HD
ATOM      5  C   UNL     1       0.114  -2.475   7.372  0.00  0.00    +0.260 A 
ATOM      6  O   UNL     1       0.141  -3.419   8.143  0.00  0.00    -0.267 OA
ATOM      7  C   UNL     1       0.095  -1.132   7.868  0.00  0.00    +0.080 A 
ATOM      8  C   UNL     1       0.102  -0.657   9.246  0.00  0.00    +0.004 A 
ATOM      9  C   UNL     1       0.080   0.678   9.476  0.00  0.00    +0.056 A 
ATOM     10  S   UNL     1       0.048   1.378   7.837  0.00  0.00    -0.076 S 
ATOM     11  C   UNL     1       0.065  -0.123   6.891  0.00  0.00    +0.116 A 
ATOM     12  N   UNL     1       0.062  -0.404   5.591  0.00  0.00    -0.226 NA
BRANCH   8  13
ATOM     13  C   UNL     1       0.131  -1.617  10.376  0.00  0.00    -0.017 A 
ATOM     14  C   UNL     1      -0.769  -2.681  10.414  0.00  0.00    +0.008 A 
ATOM     15  C   UNL     1      -0.736  -3.572  11.467  0.00  0.00    +0.001 A 
ATOM     16  C   UNL     1       0.188  -3.411  12.484  0.00  0.00    +0.000 A 
ATOM     17  C   UNL     1       1.084  -2.358  12.451  0.00  0.00    +0.001 A 
ATOM     18  C   UNL     1       1.064  -1.464  11.400  0.00  0.00    +0.008 A 
ENDBRANCH   8  13
ENDBRANCH   1   2
BRANCH   1  19
ATOM     19  S   UNL     1       0.034  -0.347   2.779  0.00  0.00    -0.078 S 
BRANCH  19  25
ATOM     20  C   UNL     1      -0.018   1.461   0.010  0.00  0.00    +0.153 C 
ATOM     21  N   UNL     1       0.002  -0.004   0.002  0.00  0.00    -0.306 N 
ATOM     22  C   UNL     1       0.008  -0.824  -1.093  0.00  0.00    +0.178 A 
ATOM     23  N   UNL     1       0.028  -2.052  -0.657  0.00  0.00    -0.130 NA
ATOM     24  N   UNL     1       0.034  -2.064   0.628  0.00  0.00    -0.122 NA
ATOM     25  C   UNL     1       0.024  -0.834   1.086  0.00  0.00    +0.192 A 
BRANCH  22  26
ATOM     26  C   UNL     1      -0.005  -0.388  -2.535  0.00  0.00    +0.278 C 
ATOM     27  C   UNL     1       1.387  -0.589  -3.150  0.00  0.00    +0.281 C 
ATOM     28  O   UNL     1       1.335  -0.179  -4.521  0.00  0.00    -0.484 OA
ATOM     29  C   UNL     1       0.278  -0.625  -5.253  0.00  0.00    +0.162 A 
ATOM     30  C   UNL     1       0.342  -0.581  -6.637  0.00  0.00    +0.049 A 
ATOM     31  C   UNL     1      -0.725  -1.026  -7.394  0.00  0.00    +0.004 A 
ATOM     32  C   UNL     1      -1.859  -1.518  -6.774  0.00  0.00    +0.004 A 
ATOM     33  C   UNL     1      -1.928  -1.567  -5.394  0.00  0.00    +0.049 A 
ATOM     34  C   UNL     1      -0.860  -1.122  -4.629  0.00  0.00    +0.163 A 
ATOM     35  O   UNL     1      -0.941  -1.183  -3.271  0.00  0.00    -0.474 OA
ENDBRANCH  22  26
ENDBRANCH  19  25
ENDBRANCH   1  19
TORSDOF 5
