REMARK  Name = ZINC39658897
REMARK  6 active torsions:
REMARK  status: ('A' for Active; 'I' for Inactive)
REMARK    1  A    between atoms: C_1  and  C_2
REMARK    2  A    between atoms: C_2  and  C_32
REMARK    3  A    between atoms: C_5  and  C_8
REMARK    4  A    between atoms: C_8  and  N_9
REMARK    5  A    between atoms: C_10  and  C_12
REMARK    6  A    between atoms: C_23  and  C_25
REMARK                            x       y       z     vdW  Elec       q    Type
REMARK                         _______ _______ _______ _____ _____    ______ ____
ROOT
ATOM      1  C   UNL     1       2.725  -3.129   5.066  0.00  0.00    +0.100 C 
ATOM      2  C   UNL     1       2.077  -2.229   6.142  0.00  0.00    +0.121 C 
ATOM      3  N   UNL     1       1.833  -3.135   7.290  0.00  0.00    -0.296 N 
ATOM      4  C   UNL     1       3.031  -4.008   7.331  0.00  0.00    +0.115 C 
ATOM      5  C   UNL     1       3.353  -4.293   5.850  0.00  0.00    -0.004 C 
ATOM      6  C   UNL     1       2.728  -5.617   5.421  0.00  0.00    -0.010 C 
ATOM      7  C   UNL     1       3.408  -6.765   6.173  0.00  0.00    -0.082 C 
ATOM      8  N   UNL     1       4.846  -6.761   5.879  0.00  0.00    +0.379 N 
ATOM      9  C   UNL     1       5.456  -5.523   6.379  0.00  0.00    -0.082 C 
ATOM     10  C   UNL     1       4.863  -4.323   5.635  0.00  0.00    -0.010 C 
ATOM     11  C   UNL     1       0.765  -3.158   8.111  0.00  0.00    +0.249 C 
ATOM     12  O   UNL     1       0.753  -3.904   9.071  0.00  0.00    -0.270 OA
ATOM     13  H   UNL     1       5.281  -7.554   6.327  0.00  0.00    -0.086 HD
ATOM     14  H   UNL     1       4.984  -6.824   4.882  0.00  0.00    -0.086 HD
ENDROOT
BRANCH  11  15
ATOM     15  C   UNL     1      -0.391  -2.279   7.844  0.00  0.00    +0.072 A 
ATOM     16  C   UNL     1      -0.195  -1.006   7.305  0.00  0.00    +0.016 A 
ATOM     17  C   UNL     1      -1.278  -0.190   7.058  0.00  0.00    +0.001 A 
ATOM     18  C   UNL     1      -2.560  -0.629   7.342  0.00  0.00    +0.003 A 
ATOM     19  C   UNL     1      -2.765  -1.887   7.875  0.00  0.00    +0.039 A 
ATOM     20  C   UNL     1      -1.688  -2.720   8.123  0.00  0.00    +0.135 A 
ATOM     21  F   UNL     1      -1.889  -3.952   8.639  0.00  0.00    -0.205 F 
ENDBRANCH  11  15
BRANCH   1  23
ATOM     22  N   UNL     1       2.017  -3.955   2.845  0.00  0.00    -0.312 N 
ATOM     23  C   UNL     1       1.679  -3.643   4.112  0.00  0.00    +0.218 C 
ATOM     24  O   UNL     1       0.532  -3.775   4.483  0.00  0.00    -0.275 OA
ATOM     25  H   UNL     1       2.934  -3.849   2.548  0.00  0.00    +0.149 HD
BRANCH  22  26
ATOM     26  C   UNL     1       0.999  -4.455   1.917  0.00  0.00    +0.138 C 
BRANCH  26  31
ATOM     27  C   UNL     1       3.629  -6.749  -1.344  0.00  0.00    +0.074 C 
ATOM     28  C   UNL     1       2.300  -6.629  -0.595  0.00  0.00    +0.165 C 
ATOM     29  O   UNL     1       1.346  -5.931  -1.413  0.00  0.00    -0.347 OA
ATOM     30  C   UNL     1       0.568  -5.141  -0.483  0.00  0.00    +0.196 C 
ATOM     31  C   UNL     1       1.641  -4.731   0.556  0.00  0.00    +0.164 C 
ATOM     32  O   UNL     1       2.496  -5.891   0.618  0.00  0.00    -0.342 OA
ATOM     33  C   UNL     1       1.768  -8.025  -0.267  0.00  0.00    +0.074 C 
ENDBRANCH  26  31
ENDBRANCH  22  26
ENDBRANCH   1  23
TORSDOF 4
