REMARK  Name = ZINC66089388
REMARK  8 active torsions:
REMARK  status: ('A' for Active; 'I' for Inactive)
REMARK    1  A    between atoms: C_1  and  C_2
REMARK    2  A    between atoms: N_4  and  C_26
REMARK    3  A    between atoms: C_8  and  C_20
REMARK    4  A    between atoms: C_10  and  C_11
REMARK    5  A    between atoms: C_10  and  C_13
REMARK    6  A    between atoms: C_13  and  N_19
REMARK    7  A    between atoms: C_14  and  C_15
REMARK    8  A    between atoms: C_14  and  C_17
REMARK                            x       y       z     vdW  Elec       q    Type
REMARK                         _______ _______ _______ _____ _____    ______ ____
ROOT
ATOM      1  C   UNL     1      -0.521   1.347   0.022  0.00  0.00    +0.063 C 
ATOM      2  C   UNL     1      -0.592  -0.155   0.127  0.00  0.00    +0.052 C 
ATOM      3  N   UNL     1      -0.942  -0.969  -0.795  0.00  0.00    -0.181 NA
ATOM      4  N   UNL     1      -0.907  -2.301  -0.393  0.00  0.00    -0.160 N 
ATOM      5  C   UNL     1      -0.505  -2.410   0.894  0.00  0.00    +0.254 C 
ATOM      6  O   UNL     1      -0.369  -3.425   1.545  0.00  0.00    -0.272 OA
ATOM      7  C   UNL     1      -0.259  -0.989   1.337  0.00  0.00    +0.121 C 
ATOM      8  C   UNL     1       0.879  -0.625   2.281  0.00  0.00    +0.069 C 
ATOM      9  C   UNL     1      -0.575  -0.523   2.752  0.00  0.00    +0.124 C 
ENDROOT
BRANCH   8  10
ATOM     10  C   UNL     1       1.713  -1.752   2.833  0.00  0.00    -0.041 A 
ATOM     11  C   UNL     1       2.602  -2.420   2.012  0.00  0.00    +0.004 A 
ATOM     12  C   UNL     1       3.367  -3.454   2.519  0.00  0.00    +0.000 A 
ATOM     13  C   UNL     1       3.244  -3.819   3.846  0.00  0.00    +0.000 A 
ATOM     14  C   UNL     1       2.356  -3.150   4.667  0.00  0.00    +0.000 A 
ATOM     15  C   UNL     1       1.594  -2.113   4.162  0.00  0.00    +0.004 A 
ENDBRANCH   8  10
BRANCH   4  16
ATOM     16  C   UNL     1      -1.243  -3.385  -1.212  0.00  0.00    +0.060 A 
ATOM     17  C   UNL     1      -1.181  -4.680  -0.713  0.00  0.00    +0.025 A 
ATOM     18  C   UNL     1      -1.514  -5.747  -1.524  0.00  0.00    +0.002 A 
ATOM     19  C   UNL     1      -1.908  -5.528  -2.832  0.00  0.00    +0.000 A 
ATOM     20  C   UNL     1      -1.970  -4.240  -3.331  0.00  0.00    +0.002 A 
ATOM     21  C   UNL     1      -1.645  -3.168  -2.524  0.00  0.00    +0.025 A 
ENDBRANCH   4  16
BRANCH   9  22
ATOM     22  C   UNL     1      -1.052  -1.534   3.710  0.00  0.00    +0.077 C 
ATOM     23  N   UNL     1      -1.420  -2.313   4.449  0.00  0.00    -0.196 NA
ENDBRANCH   9  22
BRANCH   9  24
ATOM     24  C   UNL     1      -1.159   0.857   2.916  0.00  0.00    +0.052 C 
ATOM     25  C   UNL     1      -0.511   1.790   3.694  0.00  0.00    +0.146 C 
BRANCH  24  26
ATOM     26  N   UNL     1      -2.325   1.180   2.296  0.00  0.00    -0.358 N 
ATOM     27  H   UNL     1      -2.743   0.548   1.690  0.00  0.00    +0.142 HD
ATOM     28  H   UNL     1      -2.738   2.042   2.459  0.00  0.00    +0.142 HD
ENDBRANCH  24  26
BRANCH  25  29
ATOM     29  C   UNL     1       0.717   1.449   4.348  0.00  0.00    +0.112 C 
ATOM     30  N   UNL     1       1.691   1.179   4.866  0.00  0.00    -0.190 NA
ENDBRANCH  25  29
BRANCH  25  31
ATOM     31  C   UNL     1      -1.066   3.101   3.850  0.00  0.00    +0.112 C 
ATOM     32  N   UNL     1      -1.506   4.141   3.974  0.00  0.00    -0.190 NA
ENDBRANCH  25  31
ENDBRANCH   9  24
TORSDOF 7
