REMARK  Name = ZINC18046579
REMARK  10 active torsions:
REMARK  status: ('A' for Active; 'I' for Inactive)
REMARK    1  A    between atoms: C_1  and  O_2
REMARK    2  A    between atoms: O_2  and  C_3
REMARK    3  A    between atoms: C_6  and  C_9
REMARK    4  A    between atoms: C_10  and  C_19
REMARK    5  A    between atoms: C_14  and  C_15
REMARK    6  A    between atoms: C_22  and  O_26
REMARK    7  A    between atoms: C_24  and  O_25
REMARK    8  A    between atoms: O_26  and  C_27
REMARK    9  A    between atoms: C_27  and  C_28
REMARK   10  A    between atoms: N_30  and  N_31
REMARK                            x       y       z     vdW  Elec       q    Type
REMARK                         _______ _______ _______ _____ _____    ______ ____
ROOT
ATOM      1  C   UNL     1       2.481  -2.452  -4.402  0.00  0.00    +0.039 A 
ATOM      2  C   UNL     1       1.881  -3.380  -5.290  0.00  0.00    +0.104 A 
ATOM      3  N   UNL     1       2.805  -3.786  -6.132  0.00  0.00    -0.173 NA
ATOM      4  N   UNL     1       4.007  -3.142  -5.815  0.00  0.00    -0.272 N 
ATOM      5  H   UNL     1       4.852  -3.258  -6.277  0.00  0.00    +0.189 HD
ATOM      6  C   UNL     1       3.789  -2.328  -4.761  0.00  0.00    +0.147 A 
ENDROOT
BRANCH   1  10
ATOM      7  C   UNL     1       0.544  -0.412  -1.210  0.00  0.00    +0.120 A 
ATOM      8  C   UNL     1       0.987   0.298  -2.318  0.00  0.00    +0.046 A 
ATOM      9  C   UNL     1       1.615  -0.361  -3.355  0.00  0.00    +0.012 A 
ATOM     10  C   UNL     1       1.806  -1.740  -3.288  0.00  0.00    -0.014 A 
ATOM     11  C   UNL     1       1.360  -2.449  -2.174  0.00  0.00    +0.012 A 
ATOM     12  C   UNL     1       0.737  -1.784  -1.139  0.00  0.00    +0.046 A 
BRANCH   7  14
ATOM     13  C   UNL     1      -0.242   1.653  -0.330  0.00  0.00    +0.277 C 
ATOM     14  O   UNL     1      -0.075   0.240  -0.191  0.00  0.00    -0.495 OA
ENDBRANCH   7  14
ENDBRANCH   1  10
BRANCH   2  15
ATOM     15  C   UNL     1       0.463  -3.814  -5.272  0.00  0.00    +0.044 A 
ATOM     16  C   UNL     1      -0.556  -2.869  -5.176  0.00  0.00    +0.017 A 
ATOM     17  C   UNL     1      -1.874  -3.276  -5.160  0.00  0.00    +0.046 A 
ATOM     18  C   UNL     1      -2.189  -4.626  -5.239  0.00  0.00    +0.125 A 
ATOM     19  C   UNL     1      -1.180  -5.573  -5.335  0.00  0.00    +0.091 A 
ATOM     20  C   UNL     1       0.145  -5.173  -5.358  0.00  0.00    +0.130 A 
BRANCH  20  21
ATOM     21  O   UNL     1       1.135  -6.099  -5.458  0.00  0.00    -0.506 OA
ATOM     22  H   UNL     1       1.451  -6.430  -4.606  0.00  0.00    +0.292 HD
ENDBRANCH  20  21
BRANCH  18  23
ATOM     23  O   UNL     1      -3.489  -5.021  -5.221  0.00  0.00    -0.483 OA
BRANCH  23  24
ATOM     24  C   UNL     1      -4.477  -3.994  -5.120  0.00  0.00    +0.325 C 
BRANCH  24  25
ATOM     25  C   UNL     1      -5.850  -4.616  -5.115  0.00  0.00    +0.264 C 
ATOM     26  O   UNL     1      -5.970  -5.821  -5.191  0.00  0.00    -0.271 OA
ATOM     27  N   UNL     1      -6.944  -3.834  -5.027  0.00  0.00    -0.251 N 
ATOM     28  H   UNL     1      -6.848  -2.871  -4.966  0.00  0.00    +0.169 HD
BRANCH  27  29
ATOM     29  N   UNL     1      -8.188  -4.398  -5.023  0.00  0.00    -0.254 NA
ATOM     30  H   UNL     1      -8.905  -3.692  -4.952  0.00  0.00    +0.140 HD
ATOM     31  H   UNL     1      -8.327  -4.974  -5.840  0.00  0.00    +0.140 HD
ENDBRANCH  27  29
ENDBRANCH  24  25
ENDBRANCH  23  24
ENDBRANCH  18  23
ENDBRANCH   2  15
BRANCH   6  32
ATOM     32  C   UNL     1       4.812  -1.443  -4.097  0.00  0.00    +0.434 C 
ATOM     33  F   UNL     1       6.044  -1.586  -4.745  0.00  0.00    -0.164 F 
ATOM     34  F   UNL     1       4.396  -0.110  -4.175  0.00  0.00    -0.164 F 
ATOM     35  F   UNL     1       4.947  -1.812  -2.754  0.00  0.00    -0.164 F 
ENDBRANCH   6  32
TORSDOF 9
