REMARK  Name = ZINC05002565
REMARK  6 active torsions:
REMARK  status: ('A' for Active; 'I' for Inactive)
REMARK    1  A    between atoms: C_1  and  C_2
REMARK    2  A    between atoms: C_2  and  C_22
REMARK    3  A    between atoms: N_3  and  N_4
REMARK    4  A    between atoms: C_13  and  C_15
REMARK    5  A    between atoms: C_20  and  O_21
REMARK    6  A    between atoms: C_27  and  O_28
REMARK                            x       y       z     vdW  Elec       q    Type
REMARK                         _______ _______ _______ _____ _____    ______ ____
ROOT
ATOM      1  N   UNL     1      -0.238  -2.041   1.118  0.00  0.00    -0.220 N 
ATOM      2  C   UNL     1      -0.409  -2.719   2.306  0.00  0.00    +0.150 A 
ATOM      3  C   UNL     1      -0.688  -4.109   2.317  0.00  0.00    +0.042 A 
ATOM      4  C   UNL     1      -0.802  -4.851   1.137  0.00  0.00    +0.013 A 
ATOM      5  C   UNL     1      -1.071  -6.187   1.207  0.00  0.00    +0.001 A 
ATOM      6  C   UNL     1      -1.235  -6.821   2.435  0.00  0.00    +0.002 A 
ATOM      7  C   UNL     1      -1.131  -6.125   3.603  0.00  0.00    +0.028 A 
ATOM      8  C   UNL     1      -0.855  -4.751   3.569  0.00  0.00    +0.077 A 
ATOM      9  N   UNL     1      -0.742  -4.024   4.688  0.00  0.00    -0.227 NA
ATOM     10  C   UNL     1      -0.480  -2.731   4.622  0.00  0.00    +0.166 A 
ATOM     11  N   UNL     1      -0.311  -2.088   3.468  0.00  0.00    -0.210 NA
ATOM     12  H   UNL     1      -0.238  -2.527   0.279  0.00  0.00    +0.176 HD
ENDROOT
BRANCH  10  13
ATOM     13  C   UNL     1      -0.364  -1.964   5.885  0.00  0.00    +0.061 A 
ATOM     14  C   UNL     1      -0.524  -2.607   7.112  0.00  0.00    +0.015 A 
ATOM     15  C   UNL     1      -0.415  -1.889   8.284  0.00  0.00    +0.001 A 
ATOM     16  C   UNL     1      -0.147  -0.531   8.248  0.00  0.00    +0.004 A 
ATOM     17  C   UNL     1       0.013   0.117   7.038  0.00  0.00    +0.046 A 
ATOM     18  C   UNL     1      -0.088  -0.593   5.852  0.00  0.00    +0.128 A 
BRANCH  18  19
ATOM     19  O   UNL     1       0.074   0.041   4.662  0.00  0.00    -0.506 OA
ATOM     20  H   UNL     1      -0.744   0.398   4.292  0.00  0.00    +0.292 HD
ENDBRANCH  18  19
ENDBRANCH  10  13
BRANCH   1  23
ATOM     21  C   UNL     1       0.088   1.504   0.007  0.00  0.00    +0.068 C 
ATOM     22  C   UNL     1      -0.010   0.000   0.001  0.00  0.00    +0.067 C 
ATOM     23  N   UNL     1      -0.064  -0.651   1.123  0.00  0.00    -0.185 NA
BRANCH  22  24
ATOM     24  C   UNL     1      -0.045  -0.731  -1.278  0.00  0.00    +0.039 A 
ATOM     25  C   UNL     1      -1.191  -1.437  -1.652  0.00  0.00    +0.013 A 
ATOM     26  C   UNL     1      -1.217  -2.119  -2.850  0.00  0.00    +0.001 A 
ATOM     27  C   UNL     1      -0.113  -2.106  -3.685  0.00  0.00    +0.004 A 
ATOM     28  C   UNL     1       1.027  -1.411  -3.326  0.00  0.00    +0.046 A 
ATOM     29  C   UNL     1       1.069  -0.717  -2.128  0.00  0.00    +0.126 A 
BRANCH  29  30
ATOM     30  O   UNL     1       2.186  -0.029  -1.777  0.00  0.00    -0.506 OA
ATOM     31  H   UNL     1       2.859  -0.569  -1.341  0.00  0.00    +0.292 HD
ENDBRANCH  29  30
ENDBRANCH  22  24
ENDBRANCH   1  23
TORSDOF 5
