REMARK  Name = ZINC14991167
REMARK  4 active torsions:
REMARK  status: ('A' for Active; 'I' for Inactive)
REMARK    1  A    between atoms: C_1  and  C_2
REMARK    2  A    between atoms: C_6  and  C_26
REMARK    3  A    between atoms: C_16  and  N_57
REMARK    4  A    between atoms: C_20  and  N_57
REMARK                            x       y       z     vdW  Elec       q    Type
REMARK                         _______ _______ _______ _____ _____    ______ ____
ROOT
ATOM      1  C   UNL     1       4.887   7.998  -1.960  0.00  0.00    +0.044 C 
ATOM      2  C   UNL     1       3.615   7.199  -1.847  0.00  0.00    -0.048 A 
ATOM      3  C   UNL     1       2.419   7.744  -2.311  0.00  0.00    +0.004 A 
ATOM      4  C   UNL     1       1.251   7.048  -2.222  0.00  0.00    +0.012 A 
ATOM      5  C   UNL     1       1.252   5.765  -1.656  0.00  0.00    +0.022 A 
ATOM      6  C   UNL     1       0.077   5.000  -1.538  0.00  0.00    +0.051 A 
ATOM      7  N   UNL     1       0.159   3.803  -0.995  0.00  0.00    -0.219 NA
ATOM      8  C   UNL     1       1.318   3.312  -0.561  0.00  0.00    +0.219 A 
ATOM      9  N   UNL     1       2.450   3.985  -0.641  0.00  0.00    -0.214 NA
ATOM     10  C   UNL     1       2.469   5.209  -1.183  0.00  0.00    +0.077 A 
ATOM     11  C   UNL     1       3.652   5.955  -1.291  0.00  0.00    +0.032 A 
ATOM     12  N   UNL     1       1.336   2.048   0.000  0.00  0.00    -0.300 N 
ATOM     13  C   UNL     1       1.853   2.088   1.346  0.00  0.00    +0.108 C 
ATOM     14  C   UNL     1       2.760   0.880   1.651  0.00  0.00    +0.017 C 
ATOM     15  C   UNL     1       2.199  -0.435   1.071  0.00  0.00    -0.014 C 
ATOM     16  C   UNL     1       0.711  -0.570   1.253  0.00  0.00    -0.070 C 
ATOM     17  C   UNL     1       0.002  -0.004   0.002  0.00  0.00    +0.003 C 
ATOM     18  C   UNL     1      -0.018   1.454   0.010  0.00  0.00    +0.106 C 
ATOM     19  C   UNL     1      -1.245   5.537  -2.023  0.00  0.00    +0.066 C 
ENDROOT
BRANCH  16  20
ATOM     20  N   UNL     1       0.366  -1.995   1.415  0.00  0.00    +0.383 N 
ATOM     21  H   UNL     1       1.112  -2.467   1.939  0.00  0.00    -0.085 HD
ATOM     22  H   UNL     1       0.272  -2.428   0.489  0.00  0.00    -0.085 HD
BRANCH  20  23
ATOM     23  C   UNL     1      -0.906  -2.133   2.149  0.00  0.00    -0.071 C 
ATOM     24  C   UNL     1      -0.635  -2.092   3.654  0.00  0.00    -0.016 C 
ATOM     25  C   UNL     1      -1.953  -2.245   4.415  0.00  0.00    -0.002 C 
ATOM     26  C   UNL     1      -2.601  -3.582   4.050  0.00  0.00    -0.000 C 
ATOM     27  C   UNL     1      -2.872  -3.623   2.544  0.00  0.00    -0.002 C 
ATOM     28  C   UNL     1      -1.554  -3.471   1.784  0.00  0.00    -0.016 C 
ENDBRANCH  20  23
ENDBRANCH  16  20
TORSDOF 2
