REMARK  Name = ZINC36024455
REMARK  9 active torsions:
REMARK  status: ('A' for Active; 'I' for Inactive)
REMARK    1  A    between atoms: C_1  and  C_2
REMARK    2  A    between atoms: C_2  and  C_3
REMARK    3  A    between atoms: C_3  and  C_5
REMARK    4  A    between atoms: C_3  and  C_6
REMARK    5  A    between atoms: N_10  and  C_31
REMARK    6  A    between atoms: N_15  and  S_18
REMARK    7  A    between atoms: S_18  and  C_21
REMARK    8  A    between atoms: C_25  and  C_27
REMARK    9  A    between atoms: C_31  and  C_32
REMARK                            x       y       z     vdW  Elec       q    Type
REMARK                         _______ _______ _______ _____ _____    ______ ____
ROOT
ATOM      1  C   UNL     1       1.377  -3.450   0.695  0.00  0.00    +0.022 C 
ATOM      2  C   UNL     1       0.879  -4.037   1.998  0.00  0.00    +0.201 C 
ATOM      3  O   UNL     1       1.544  -4.670   2.790  0.00  0.00    -0.277 OA
ATOM      4  N   UNL     1      -0.430  -3.737   2.129  0.00  0.00    -0.309 N 
ATOM      5  C   UNL     1      -0.874  -2.966   0.965  0.00  0.00    +0.006 C 
ATOM      6  N   UNL     1       0.349  -2.455   0.308  0.00  0.00    +0.401 N 
ATOM      7  C   UNL     1      -1.751  -1.796   1.409  0.00  0.00    +0.023 C 
ATOM      8  C   UNL     1      -2.997  -2.336   2.120  0.00  0.00    +0.109 C 
ATOM      9  N   UNL     1      -3.664  -3.301   1.236  0.00  0.00    -0.177 NA
ATOM     10  C   UNL     1      -2.885  -4.423   0.696  0.00  0.00    +0.109 C 
ATOM     11  C   UNL     1      -1.640  -3.866  -0.004  0.00  0.00    +0.023 C 
ATOM     12  H   UNL     1       0.587  -1.540   0.661  0.00  0.00    -0.082 HD
ATOM     13  H   UNL     1       0.234  -2.432  -0.695  0.00  0.00    -0.082 HD
ENDROOT
BRANCH   9  14
ATOM     14  S   UNL     1      -5.267  -3.128   0.856  0.00  0.00    +0.061 S 
ATOM     15  O   UNL     1      -5.741  -4.418   0.499  0.00  0.00    -0.153 OA
ATOM     16  O   UNL     1      -5.852  -2.364   1.901  0.00  0.00    -0.153 OA
BRANCH  14  17
ATOM     17  C   UNL     1      -5.353  -2.139  -0.600  0.00  0.00    +0.106 A 
ATOM     18  C   UNL     1      -5.435  -0.762  -0.496  0.00  0.00    +0.028 A 
ATOM     19  C   UNL     1      -5.503   0.014  -1.638  0.00  0.00    +0.002 A 
ATOM     20  C   UNL     1      -5.489  -0.587  -2.884  0.00  0.00    +0.012 A 
ATOM     21  C   UNL     1      -5.406  -1.962  -2.987  0.00  0.00    +0.057 A 
ATOM     22  C   UNL     1      -5.334  -2.738  -1.845  0.00  0.00    +0.041 A 
BRANCH  21  23
ATOM     23  C   UNL     1      -5.392  -2.617  -4.345  0.00  0.00    +0.417 C 
ATOM     24  F   UNL     1      -5.470  -1.634  -5.337  0.00  0.00    -0.166 F 
ATOM     25  F   UNL     1      -4.205  -3.342  -4.500  0.00  0.00    -0.166 F 
ATOM     26  F   UNL     1      -6.485  -3.482  -4.457  0.00  0.00    -0.166 F 
ENDBRANCH  21  23
ENDBRANCH  14  17
ENDBRANCH   9  14
BRANCH   1  27
ATOM     27  C   UNL     1       2.730  -2.766   0.902  0.00  0.00    -0.020 C 
ATOM     28  C   UNL     1       3.179  -2.117  -0.409  0.00  0.00    +0.006 C 
BRANCH  27  30
ATOM     29  C   UNL     1       5.085  -3.102   1.665  0.00  0.00    +0.004 C 
ATOM     30  C   UNL     1       3.765  -3.804   1.338  0.00  0.00    -0.001 C 
ENDBRANCH  27  30
ENDBRANCH   1  27
BRANCH   4  31
ATOM     31  C   UNL     1      -1.276  -4.123   3.261  0.00  0.00    +0.141 C 
BRANCH  31  32
ATOM     32  C   UNL     1      -1.156  -3.091   4.353  0.00  0.00    -0.030 A 
ATOM     33  C   UNL     1       0.053  -2.458   4.575  0.00  0.00    +0.008 A 
ATOM     34  C   UNL     1       0.165  -1.512   5.575  0.00  0.00    +0.038 A 
ATOM     35  C   UNL     1      -0.935  -1.197   6.356  0.00  0.00    +0.123 A 
ATOM     36  C   UNL     1      -2.146  -1.831   6.132  0.00  0.00    +0.038 A 
ATOM     37  C   UNL     1      -2.256  -2.774   5.128  0.00  0.00    +0.008 A 
ATOM     38  F   UNL     1      -0.827  -0.272   7.334  0.00  0.00    -0.205 F 
ENDBRANCH  31  32
ENDBRANCH   4  31
TORSDOF 7
