REMARK  Name = ZINC66122505
REMARK  13 active torsions:
REMARK  status: ('A' for Active; 'I' for Inactive)
REMARK    1  A    between atoms: C_1  and  C_2
REMARK    2  A    between atoms: C_2  and  C_3
REMARK    3  A    between atoms: C_4  and  C_26
REMARK    4  A    between atoms: C_5  and  C_25
REMARK    5  A    between atoms: C_8  and  C_9
REMARK    6  A    between atoms: N_11  and  N_12
REMARK    7  A    between atoms: N_12  and  C_13
REMARK    8  A    between atoms: C_13  and  N_15
REMARK    9  A    between atoms: N_15  and  C_16
REMARK   10  A    between atoms: C_21  and  C_22
REMARK   11  A    between atoms: C_22  and  C_23
REMARK   12  A    between atoms: C_22  and  C_24
REMARK   13  A    between atoms: C_26  and  C_28
REMARK                            x       y       z     vdW  Elec       q    Type
REMARK                         _______ _______ _______ _____ _____    ______ ____
ROOT
ATOM      1  C   UNL     1       3.125  -0.124  -0.953  0.00  0.00    +0.277 C 
ATOM      2  O   UNL     1       2.680   0.147   0.147  0.00  0.00    -0.267 OA
ATOM      3  N   UNL     1       4.405  -0.525  -1.082  0.00  0.00    -0.230 N 
ATOM      4  H   UNL     1       4.760  -0.742  -1.958  0.00  0.00    +0.173 HD
ENDROOT
BRANCH   1  10
ATOM      5  C   UNL     1       0.962   0.376  -2.146  0.00  0.00    -0.007 A 
ATOM      6  C   UNL     1       0.527   0.345  -3.493  0.00  0.00    +0.041 A 
ATOM      7  C   UNL     1       1.605  -0.077  -4.256  0.00  0.00    +0.024 A 
ATOM      8  N   UNL     1       2.644  -0.294  -3.436  0.00  0.00    -0.354 N 
ATOM      9  H   UNL     1       3.523  -0.596  -3.712  0.00  0.00    +0.166 HD
ATOM     10  C   UNL     1       2.267  -0.015  -2.139  0.00  0.00    +0.107 A 
ATOM     11  C   UNL     1       1.609  -0.261  -5.752  0.00  0.00    +0.064 C 
BRANCH   6  12
ATOM     12  C   UNL     1      -0.809   0.692  -3.987  0.00  0.00    +0.162 C 
ATOM     13  O   UNL     1      -1.068   1.841  -4.279  0.00  0.00    -0.292 OA
ATOM     14  C   UNL     1      -1.860  -0.378  -4.133  0.00  0.00    +0.091 C 
ENDBRANCH   6  12
BRANCH   5  16
ATOM     15  C   UNL     1       0.273   2.280  -0.713  0.00  0.00    +0.009 C 
ATOM     16  C   UNL     1       0.139   0.774  -0.948  0.00  0.00    +0.035 C 
ENDBRANCH   5  16
ENDBRANCH   1  10
BRANCH   3  17
ATOM     17  N   UNL     1       5.224  -0.630   0.051  0.00  0.00    -0.245 N 
ATOM     18  H   UNL     1       4.869  -0.413   0.927  0.00  0.00    +0.172 HD
BRANCH  17  19
ATOM     19  C   UNL     1       6.504  -1.031  -0.078  0.00  0.00    +0.151 C 
ATOM     20  S   UNL     1       7.504  -1.158   1.305  0.00  0.00    -0.017 S 
BRANCH  19  21
ATOM     21  N   UNL     1       6.997  -1.331  -1.296  0.00  0.00    -0.296 N 
ATOM     22  H   UNL     1       6.452  -1.195  -2.087  0.00  0.00    +0.154 HD
BRANCH  21  23
ATOM     23  C   UNL     1       8.294  -1.840  -1.420  0.00  0.00    +0.036 A 
ATOM     24  C   UNL     1       9.345  -1.237  -0.741  0.00  0.00    +0.023 A 
ATOM     25  C   UNL     1      10.625  -1.741  -0.865  0.00  0.00    +0.002 A 
ATOM     26  C   UNL     1      10.860  -2.845  -1.664  0.00  0.00    +0.000 A 
ATOM     27  C   UNL     1       9.816  -3.447  -2.341  0.00  0.00    +0.006 A 
ATOM     28  C   UNL     1       8.533  -2.951  -2.217  0.00  0.00    -0.024 A 
BRANCH  28  29
ATOM     29  C   UNL     1       7.394  -3.612  -2.951  0.00  0.00    +0.015 C 
ATOM     30  C   UNL     1       7.631  -3.509  -4.459  0.00  0.00    +0.012 C 
ATOM     31  C   UNL     1       7.313  -5.085  -2.547  0.00  0.00    +0.012 C 
ENDBRANCH  28  29
ENDBRANCH  21  23
ENDBRANCH  19  21
ENDBRANCH  17  19
ENDBRANCH   3  17
TORSDOF 8
