REMARK  Name = ZINC08684299
REMARK  6 active torsions:
REMARK  status: ('A' for Active; 'I' for Inactive)
REMARK    1  A    between atoms: C_1  and  C_2
REMARK    2  A    between atoms: C_2  and  C_28
REMARK    3  A    between atoms: C_6  and  C_16
REMARK    4  A    between atoms: C_11  and  O_15
REMARK    5  A    between atoms: C_20  and  O_22
REMARK    6  A    between atoms: O_22  and  C_23
REMARK                            x       y       z     vdW  Elec       q    Type
REMARK                         _______ _______ _______ _____ _____    ______ ____
ROOT
ATOM      1  C   UNL     1      -0.082   1.523  -0.025  0.00  0.00    +0.034 C 
ATOM      2  C   UNL     1       0.002  -0.004   0.002  0.00  0.00    +0.040 C 
ATOM      3  C   UNL     1      -1.413  -0.587   0.022  0.00  0.00    +0.096 C 
ATOM      4  C   UNL     1      -1.323  -2.090   0.301  0.00  0.00    +0.180 C 
ATOM      5  C   UNL     1      -0.484  -2.768  -0.786  0.00  0.00    +0.081 C 
ATOM      6  C   UNL     1      -1.115  -2.458  -2.146  0.00  0.00    +0.058 C 
ATOM      7  C   UNL     1      -2.599  -2.715  -2.088  0.00  0.00    +0.002 A 
ATOM      8  C   UNL     1      -3.294  -2.872  -3.277  0.00  0.00    +0.011 A 
ATOM      9  C   UNL     1      -4.654  -3.103  -3.266  0.00  0.00    +0.046 A 
ATOM     10  C   UNL     1      -5.334  -3.180  -2.058  0.00  0.00    +0.120 A 
ATOM     11  C   UNL     1      -4.643  -3.026  -0.868  0.00  0.00    +0.091 A 
ATOM     12  C   UNL     1      -3.272  -2.796  -0.881  0.00  0.00    +0.131 A 
ATOM     13  O   UNL     1      -2.626  -2.664   0.308  0.00  0.00    -0.468 OA
ATOM     14  N   UNL     1      -0.682  -2.278   1.608  0.00  0.00    -0.288 N 
ATOM     15  C   UNL     1       0.413  -1.519   1.917  0.00  0.00    +0.142 C 
ATOM     16  N   UNL     1       0.746  -0.424   1.185  0.00  0.00    -0.362 N 
ATOM     17  S   UNL     1       1.355  -1.945   3.216  0.00  0.00    -0.016 SA
ATOM     18  C   UNL     1       0.730  -0.492  -1.252  0.00  0.00    +0.034 C 
ATOM     19  H   UNL     1      -1.029  -2.927   2.240  0.00  0.00    +0.152 HD
ATOM     20  H   UNL     1       1.513   0.101   1.461  0.00  0.00    +0.162 HD
ENDROOT
BRANCH   6  21
ATOM     21  C   UNL     1      -0.495  -3.341  -3.198  0.00  0.00    -0.036 A 
ATOM     22  C   UNL     1      -0.595  -4.716  -3.093  0.00  0.00    +0.004 A 
ATOM     23  C   UNL     1      -0.027  -5.529  -4.057  0.00  0.00    +0.004 A 
ATOM     24  C   UNL     1       0.642  -4.968  -5.128  0.00  0.00    +0.045 A 
ATOM     25  C   UNL     1       0.744  -3.589  -5.236  0.00  0.00    +0.120 A 
ATOM     26  C   UNL     1       0.168  -2.776  -4.270  0.00  0.00    +0.050 A 
BRANCH  25  27
ATOM     27  O   UNL     1       1.402  -3.035  -6.288  0.00  0.00    -0.495 OA
ATOM     28  C   UNL     1       1.965  -3.933  -7.247  0.00  0.00    +0.277 C 
ENDBRANCH  25  27
ENDBRANCH   6  21
BRANCH  10  29
ATOM     29  O   UNL     1      -6.674  -3.405  -2.044  0.00  0.00    -0.507 OA
ATOM     30  H   UNL     1      -6.915  -4.341  -2.012  0.00  0.00    +0.292 HD
ENDBRANCH  10  29
TORSDOF 3
