REMARK  Name = ZINC11913541
REMARK  8 active torsions:
REMARK  status: ('A' for Active; 'I' for Inactive)
REMARK    1  A    between atoms: C_1  and  C_2
REMARK    2  A    between atoms: C_5  and  C_9
REMARK    3  A    between atoms: C_7  and  C_8
REMARK    4  A    between atoms: C_9  and  N_68
REMARK    5  A    between atoms: C_12  and  C_15
REMARK    6  A    between atoms: C_15  and  C_29
REMARK    7  A    between atoms: N_18  and  C_22
REMARK    8  A    between atoms: C_22  and  C_23
REMARK                            x       y       z     vdW  Elec       q    Type
REMARK                         _______ _______ _______ _____ _____    ______ ____
ROOT
ATOM      1  C   UNL     1       3.358  -0.064  -2.673  0.00  0.00    +0.157 C 
ATOM      2  C   UNL     1       3.302   1.062  -3.686  0.00  0.00    +0.253 C 
ATOM      3  O   UNL     1       2.311   1.545  -4.190  0.00  0.00    -0.272 OA
ATOM      4  N   UNL     1       4.583   1.413  -3.911  0.00  0.00    -0.221 N 
ATOM      5  C   UNL     1       5.432   0.678  -3.183  0.00  0.00    +0.310 C 
ATOM      6  O   UNL     1       6.639   0.813  -3.213  0.00  0.00    -0.252 OA
ATOM      7  N   UNL     1       4.799  -0.227  -2.416  0.00  0.00    -0.280 N 
ATOM      8  H   UNL     1       5.211  -0.864  -1.811  0.00  0.00    +0.152 HD
ENDROOT
BRANCH   1  11
ATOM      9  C   UNL     1       2.823  -2.934  -5.183  0.00  0.00    -0.078 C 
ATOM     10  C   UNL     1       3.373  -1.616  -4.634  0.00  0.00    -0.012 C 
ATOM     11  C   UNL     1       2.766  -1.350  -3.254  0.00  0.00    +0.024 C 
ATOM     12  C   UNL     1       3.088  -2.526  -2.327  0.00  0.00    -0.012 C 
ATOM     13  C   UNL     1       2.548  -3.818  -2.944  0.00  0.00    -0.078 C 
ATOM     14  N   UNL     1       3.189  -4.028  -4.259  0.00  0.00    +0.382 N 
ATOM     15  H   UNL     1       4.208  -4.033  -4.135  0.00  0.00    -0.081 HD
BRANCH  14  16
ATOM     16  C   UNL     1       2.768  -5.327  -4.824  0.00  0.00    -0.043 C 
BRANCH  16  21
ATOM     17  C   UNL     1       4.969  -9.570  -1.575  0.00  0.00    +0.044 C 
ATOM     18  C   UNL     1       4.396  -8.463  -2.422  0.00  0.00    -0.048 A 
ATOM     19  C   UNL     1       5.120  -7.961  -3.487  0.00  0.00    +0.004 A 
ATOM     20  C   UNL     1       4.592  -6.950  -4.267  0.00  0.00    +0.002 A 
ATOM     21  C   UNL     1       3.343  -6.433  -3.976  0.00  0.00    -0.064 A 
ATOM     22  C   UNL     1       2.618  -6.936  -2.912  0.00  0.00    +0.005 A 
ATOM     23  C   UNL     1       3.145  -7.951  -2.135  0.00  0.00    -0.047 A 
ATOM     24  C   UNL     1       2.354  -8.498  -0.974  0.00  0.00    +0.044 C 
ENDBRANCH  16  21
ENDBRANCH  14  16
ENDBRANCH   1  11
BRANCH   1  25
ATOM     25  C   UNL     1       2.635   0.328  -1.410  0.00  0.00    +0.074 A 
ATOM     26  C   UNL     1       3.072   1.418  -0.683  0.00  0.00    +0.026 A 
ATOM     27  C   UNL     1       2.396   1.774   0.474  0.00  0.00    +0.003 A 
ATOM     28  C   UNL     1       1.308   1.009   0.864  0.00  0.00    +0.020 A 
ATOM     29  C   UNL     1       0.932  -0.072   0.089  0.00  0.00    +0.111 A 
ATOM     30  N   UNL     1       1.595  -0.377  -1.009  0.00  0.00    -0.257 NA
ENDBRANCH   1  25
BRANCH   4  31
ATOM     31  C   UNL     1       4.996   2.473  -4.834  0.00  0.00    +0.149 C 
BRANCH  31  32
ATOM     32  C   UNL     1       5.222   1.879  -6.226  0.00  0.00    +0.136 C 
ATOM     33  C   UNL     1       5.694   2.978  -7.211  0.00  0.00    +0.035 C 
ATOM     34  C   UNL     1       6.450   2.121  -8.266  0.00  0.00    +0.031 C 
ATOM     35  C   UNL     1       7.055   0.994  -7.401  0.00  0.00    +0.160 C 
ATOM     36  O   UNL     1       6.291   0.920  -6.191  0.00  0.00    -0.375 OA
ENDBRANCH  31  32
ENDBRANCH   4  31
TORSDOF 6
