REMARK  Name = ZINC29529003
REMARK  8 active torsions:
REMARK  status: ('A' for Active; 'I' for Inactive)
REMARK    1  A    between atoms: C_4  and  N_7
REMARK    2  A    between atoms: C_9  and  C_12
REMARK    3  A    between atoms: C_12  and  C_13
REMARK    4  A    between atoms: C_13  and  C_14
REMARK    5  A    between atoms: C_14  and  O_16
REMARK    6  A    between atoms: O_16  and  C_17
REMARK    7  A    between atoms: C_17  and  C_18
REMARK    8  A    between atoms: C_22  and  C_31
REMARK                            x       y       z     vdW  Elec       q    Type
REMARK                         _______ _______ _______ _____ _____    ______ ____
ROOT
ATOM      1  C   UNL     1      -4.183   0.194   2.248  0.00  0.00    +0.328 C 
ENDROOT
BRANCH   1   2
ATOM      2  C   UNL     1      -2.731   0.593   2.308  0.00  0.00    +0.258 C 
ATOM      3  O   UNL     1      -2.111   0.473   3.343  0.00  0.00    -0.272 OA
ATOM      4  N   UNL     1      -2.121   1.084   1.210  0.00  0.00    -0.261 N 
ATOM      5  C   UNL     1      -2.822   1.155  -0.083  0.00  0.00    +0.168 C 
ATOM      6  C   UNL     1      -2.475   2.506  -0.725  0.00  0.00    +0.276 C 
ATOM      7  O   UNL     1      -1.057   2.597  -0.876  0.00  0.00    -0.476 OA
ATOM      8  C   UNL     1      -0.287   2.302   0.208  0.00  0.00    +0.143 A 
ATOM      9  C   UNL     1      -0.795   1.546   1.261  0.00  0.00    +0.078 A 
ATOM     10  C   UNL     1       0.003   1.250   2.354  0.00  0.00    +0.027 A 
ATOM     11  C   UNL     1       1.306   1.710   2.401  0.00  0.00    +0.002 A 
ATOM     12  C   UNL     1       1.812   2.462   1.357  0.00  0.00    +0.004 A 
ATOM     13  C   UNL     1       1.021   2.759   0.263  0.00  0.00    +0.047 A 
BRANCH   6  14
ATOM     14  C   UNL     1      -3.135   2.608  -2.076  0.00  0.00    +0.253 C 
ATOM     15  O   UNL     1      -2.456   2.659  -3.080  0.00  0.00    -0.272 OA
ATOM     16  N   UNL     1      -4.479   2.643  -2.169  0.00  0.00    -0.326 N 
ATOM     17  H   UNL     1      -4.960   2.717  -3.155  0.00  0.00    +0.145 HD
ATOM     18  H   UNL     1      -5.095   2.597  -1.258  0.00  0.00    +0.145 HD
ENDBRANCH   6  14
ENDBRANCH   1   2
BRANCH   1  19
ATOM     19  O   UNL     1      -4.635  -0.189   3.574  0.00  0.00    -0.455 OA
BRANCH  19  20
ATOM     20  C   UNL     1      -5.915  -0.574   3.694  0.00  0.00    +0.308 C 
ATOM     21  O   UNL     1      -6.634  -0.591   2.723  0.00  0.00    -0.251 OA
BRANCH  20  22
ATOM     22  C   UNL     1      -6.455  -0.986   5.039  0.00  0.00    +0.125 C 
BRANCH  22  23
ATOM     23  C   UNL     1      -7.928  -1.376   4.900  0.00  0.00    +0.049 C 
BRANCH  23  26
ATOM     24  N   UNL     1      -9.035  -2.989   7.980  0.00  0.00    -0.240 N 
ATOM     25  C   UNL     1      -8.465  -3.041   6.754  0.00  0.00    +0.118 A 
ATOM     26  C   UNL     1      -8.468  -1.788   6.245  0.00  0.00    -0.009 A 
ATOM     27  C   UNL     1      -9.066  -0.942   7.186  0.00  0.00    +0.138 A 
ATOM     28  N   UNL     1      -9.406  -1.661   8.225  0.00  0.00    -0.175 NA
BRANCH  24  32
ATOM     29  C   UNL     1      -9.601  -6.213  10.562  0.00  0.00    +0.000 A 
ATOM     30  C   UNL     1     -10.018  -4.948  10.935  0.00  0.00    +0.002 A 
ATOM     31  C   UNL     1      -9.832  -3.878  10.081  0.00  0.00    +0.028 A 
ATOM     32  C   UNL     1      -9.225  -4.073   8.848  0.00  0.00    +0.065 A 
ATOM     33  C   UNL     1      -8.812  -5.345   8.474  0.00  0.00    +0.028 A 
ATOM     34  C   UNL     1      -8.996  -6.410   9.334  0.00  0.00    +0.002 A 
ENDBRANCH  24  32
ENDBRANCH  23  26
ENDBRANCH  22  23
ENDBRANCH  20  22
ENDBRANCH  19  20
ENDBRANCH   1  19
TORSDOF 8
