REMARK  Name = ZINC67127849
REMARK  4 active torsions:
REMARK  status: ('A' for Active; 'I' for Inactive)
REMARK    1  A    between atoms: C_7  and  C_13
REMARK    2  A    between atoms: N_15  and  N_16
REMARK    3  A    between atoms: C_17  and  C_19
REMARK    4  A    between atoms: C_23  and  C_25
REMARK                            x       y       z     vdW  Elec       q    Type
REMARK                         _______ _______ _______ _____ _____    ______ ____
ROOT
ATOM      1  C   UNL     1       0.115  -2.976  -0.013  0.00  0.00    +0.281 C 
ATOM      2  O   UNL     1      -0.983  -2.454   0.000  0.00  0.00    -0.267 OA
ATOM      3  N   UNL     1       0.222  -4.319  -0.021  0.00  0.00    -0.229 N 
ATOM      4  H   UNL     1       1.098  -4.736  -0.032  0.00  0.00    +0.173 HD
ENDROOT
BRANCH   1  11
ATOM      5  C   UNL     1      -0.017   1.375   0.010  0.00  0.00    +0.001 A 
ATOM      6  C   UNL     1       1.167   2.102   0.002  0.00  0.00    +0.001 A 
ATOM      7  C   UNL     1       2.387   1.461  -0.013  0.00  0.00    +0.014 A 
ATOM      8  C   UNL     1       2.428   0.071  -0.021  0.00  0.00    +0.050 A 
ATOM      9  C   UNL     1       1.223  -0.670  -0.013  0.00  0.00    +0.020 A 
ATOM     10  C   UNL     1       0.002  -0.004   0.002  0.00  0.00    +0.011 A 
ATOM     11  C   UNL     1       1.330  -2.138  -0.021  0.00  0.00    +0.155 A 
ATOM     12  N   UNL     1       2.518  -2.692  -0.036  0.00  0.00    -0.166 NA
ATOM     13  N   UNL     1       3.618  -2.039  -0.043  0.00  0.00    -0.242 N 
ATOM     14  H   UNL     1       4.449  -2.539  -0.054  0.00  0.00    +0.192 HD
ATOM     15  C   UNL     1       3.684  -0.692  -0.037  0.00  0.00    +0.272 A 
ATOM     16  O   UNL     1       4.759  -0.121  -0.044  0.00  0.00    -0.266 OA
ENDBRANCH   1  11
BRANCH   3  17
ATOM     17  N   UNL     1      -0.931  -5.114  -0.013  0.00  0.00    -0.230 N 
ATOM     18  C   UNL     1      -0.824  -6.458  -0.021  0.00  0.00    +0.260 C 
ATOM     19  O   UNL     1       0.274  -6.980  -0.035  0.00  0.00    -0.269 OA
ATOM     20  H   UNL     1      -1.807  -4.698  -0.003  0.00  0.00    +0.173 HD
BRANCH  18  21
ATOM     21  C   UNL     1      -2.040  -7.296  -0.013  0.00  0.00    +0.039 A 
ATOM     22  C   UNL     1      -3.303  -6.699  -0.003  0.00  0.00    +0.016 A 
ATOM     23  C   UNL     1      -4.434  -7.486   0.004  0.00  0.00    +0.039 A 
ATOM     24  C   UNL     1      -4.321  -8.868   0.002  0.00  0.00    +0.135 A 
ATOM     25  C   UNL     1      -3.070  -9.466  -0.008  0.00  0.00    +0.091 A 
ATOM     26  C   UNL     1      -1.932  -8.688  -0.021  0.00  0.00    +0.028 A 
ATOM     27  F   UNL     1      -5.433  -9.635   0.010  0.00  0.00    -0.205 F 
BRANCH  25  28
ATOM     28  C   UNL     1      -2.954 -10.968  -0.010  0.00  0.00    +0.420 C 
ATOM     29  F   UNL     1      -1.603 -11.332  -0.020  0.00  0.00    -0.166 F 
ATOM     30  F   UNL     1      -3.567 -11.485   1.136  0.00  0.00    -0.166 F 
ATOM     31  F   UNL     1      -3.584 -11.483  -1.148  0.00  0.00    -0.166 F 
ENDBRANCH  25  28
ENDBRANCH  18  21
ENDBRANCH   3  17
TORSDOF 4
