REMARK  Name = ZINC08439515
REMARK  10 active torsions:
REMARK  status: ('A' for Active; 'I' for Inactive)
REMARK    1  A    between atoms: C_1  and  C_2
REMARK    2  A    between atoms: C_7  and  N_8
REMARK    3  A    between atoms: C_9  and  C_11
REMARK    4  A    between atoms: C_12  and  C_37
REMARK    5  A    between atoms: C_14  and  S_25
REMARK    6  A    between atoms: C_15  and  C_23
REMARK    7  A    between atoms: C_16  and  C_18
REMARK    8  A    between atoms: S_25  and  C_26
REMARK    9  A    between atoms: C_26  and  C_27
REMARK   10  A    between atoms: N_29  and  C_30
REMARK                            x       y       z     vdW  Elec       q    Type
REMARK                         _______ _______ _______ _____ _____    ______ ____
ROOT
ATOM      1  C   UNL     1       1.292   1.697   0.055  0.00  0.00    +0.047 C 
ATOM      2  C   UNL     1       2.518   1.214  -0.202  0.00  0.00    +0.015 C 
ATOM      3  N   UNL     1       3.612   2.036  -0.206  0.00  0.00    -0.312 N 
ATOM      4  C   UNL     1       3.553   3.268   0.405  0.00  0.00    +0.080 C 
ATOM      5  C   UNL     1       2.353   3.838   0.695  0.00  0.00    +0.072 C 
ATOM      6  C   UNL     1       1.061   3.151   0.352  0.00  0.00    +0.134 C 
ATOM      7  C   UNL     1       2.690  -0.253  -0.497  0.00  0.00    +0.061 C 
ATOM      8  H   UNL     1       4.541   1.712  -0.699  0.00  0.00    +0.152 HD
ENDROOT
BRANCH   6   9
ATOM      9  C   UNL     1       0.111   3.275   1.516  0.00  0.00    +0.118 A 
ATOM     10  C   UNL     1      -1.123   3.807   1.470  0.00  0.00    +0.045 A 
ATOM     11  C   UNL     1      -1.655   3.720   2.777  0.00  0.00    +0.041 A 
ATOM     12  C   UNL     1      -0.714   3.140   3.543  0.00  0.00    +0.195 A 
ATOM     13  O   UNL     1       0.351   2.868   2.773  0.00  0.00    -0.467 OA
ENDBRANCH   6   9
BRANCH   1  15
ATOM     14  N   UNL     1      -0.012  -0.021   1.093  0.00  0.00    -0.281 N 
ATOM     15  C   UNL     1       0.188   0.811   0.052  0.00  0.00    +0.247 C 
ATOM     16  O   UNL     1      -0.585   0.804  -0.889  0.00  0.00    -0.270 OA
ATOM     17  H   UNL     1       0.630   0.049   1.984  0.00  0.00    +0.155 HD
BRANCH  14  24
ATOM     18  C   UNL     1      -0.957  -1.113   3.545  0.00  0.00    +0.045 C 
ATOM     19  C   UNL     1      -1.525  -1.533   2.214  0.00  0.00    -0.029 A 
ATOM     20  C   UNL     1      -2.535  -2.474   2.159  0.00  0.00    +0.005 A 
ATOM     21  C   UNL     1      -3.056  -2.860   0.938  0.00  0.00    +0.000 A 
ATOM     22  C   UNL     1      -2.569  -2.305  -0.232  0.00  0.00    +0.002 A 
ATOM     23  C   UNL     1      -1.563  -1.360  -0.183  0.00  0.00    +0.023 A 
ATOM     24  C   UNL     1      -1.034  -0.974   1.041  0.00  0.00    +0.037 A 
ENDBRANCH  14  24
ENDBRANCH   1  15
BRANCH   5  25
ATOM     25  C   UNL     1       2.319   5.116   1.339  0.00  0.00    +0.098 C 
ATOM     26  N   UNL     1       2.293   6.130   1.851  0.00  0.00    -0.191 NA
ENDBRANCH   5  25
BRANCH   4  27
ATOM     27  S   UNL     1       5.044   4.113   0.815  0.00  0.00    -0.100 S 
BRANCH  27  28
ATOM     28  C   UNL     1       6.260   2.915   0.214  0.00  0.00    +0.171 C 
BRANCH  28  29
ATOM     29  C   UNL     1       7.650   3.440   0.466  0.00  0.00    +0.227 C 
ATOM     30  O   UNL     1       7.803   4.519   0.999  0.00  0.00    -0.275 OA
ATOM     31  N   UNL     1       8.723   2.712   0.098  0.00  0.00    -0.285 N 
ATOM     32  H   UNL     1       8.586   1.775  -0.463  0.00  0.00    +0.155 HD
BRANCH  31  33
ATOM     33  C   UNL     1      10.011   3.147   0.429  0.00  0.00    +0.033 A 
ATOM     34  C   UNL     1      11.073   2.892  -0.428  0.00  0.00    +0.025 A 
ATOM     35  C   UNL     1      12.343   3.326  -0.101  0.00  0.00    +0.022 A 
ATOM     36  C   UNL     1      12.559   4.006   1.085  0.00  0.00    +0.041 A 
ATOM     37  C   UNL     1      11.503   4.256   1.944  0.00  0.00    +0.022 A 
ATOM     38  C   UNL     1      10.230   3.829   1.619  0.00  0.00    +0.025 A 
ATOM     39 CL   UNL     1      14.157   4.545   1.497  0.00  0.00    -0.084 Cl
ENDBRANCH  31  33
ENDBRANCH  28  29
ENDBRANCH  27  28
ENDBRANCH   4  27
TORSDOF 8
