REMARK  Name = ZINC49124156
REMARK  8 active torsions:
REMARK  status: ('A' for Active; 'I' for Inactive)
REMARK    1  A    between atoms: C_1  and  C_2
REMARK    2  A    between atoms: C_2  and  C_3
REMARK    3  A    between atoms: C_6  and  N_9
REMARK    4  A    between atoms: N_12  and  CA_13
REMARK    5  A    between atoms: CA_13  and  CB_15
REMARK    6  A    between atoms: CA_13  and  C_19
REMARK    7  A    between atoms: CB_15  and  CG2_17
REMARK    8  A    between atoms: CB_15  and  OG1_18
REMARK                            x       y       z     vdW  Elec       q    Type
REMARK                         _______ _______ _______ _____ _____    ______ ____
ROOT
ATOM      1  N   UNK A   0       3.501  -2.565  -3.743  0.00  0.00    -0.297 N 
ATOM      2  C   UNK A   0       3.999  -3.817  -3.789  0.00  0.00    +0.301 C 
ATOM      3  O   UNK A   0       3.878  -4.554  -2.829  0.00  0.00    -0.253 OA
ATOM      4  N   THR A   1       4.629  -4.251  -4.897  0.00  0.00    -0.284 N 
ATOM      5  H   UNK A   0       3.597  -1.976  -4.508  0.00  0.00    +0.151 HD
ATOM      6  H   THR A   1       4.726  -3.663  -5.663  0.00  0.00    +0.151 HD
ENDROOT
BRANCH   1  10
ATOM      7  C   UNK A   0       0.718  -0.497  -1.257  0.00  0.00    -0.011 C 
ATOM      8  C   UNK A   0       2.187  -0.073  -1.207  0.00  0.00    +0.005 C 
ATOM      9  C   UNK A   0       2.904  -0.566  -2.466  0.00  0.00    +0.022 C 
ATOM     10  C   UNK A   0       2.816  -2.092  -2.538  0.00  0.00    +0.074 C 
ATOM     11  C   UNK A   0       1.347  -2.517  -2.587  0.00  0.00    +0.022 C 
ATOM     12  C   UNK A   0       0.630  -2.023  -1.329  0.00  0.00    +0.005 C 
BRANCH   7  14
ATOM     13  C   UNK A   0      -0.019   1.526   0.010  0.00  0.00    +0.004 C 
ATOM     14  C   UNK A   0       0.002  -0.004   0.002  0.00  0.00    -0.000 C 
ENDBRANCH   7  14
ENDBRANCH   1  10
BRANCH   4  15
ATOM     15  CA  THR A   1       5.170  -5.612  -4.947  0.00  0.00    +0.216 C 
BRANCH  15  16
ATOM     16  C   THR A   1       6.546  -5.628  -4.333  0.00  0.00    +0.378 C 
ATOM     17  O   THR A   1       6.953  -6.634  -3.776  0.00  0.00    -0.244 OA
ATOM     18  OXT THR A   1       7.252  -4.636  -4.392  0.00  0.00    -0.244 OA
ENDBRANCH  15  16
BRANCH  15  19
ATOM     19  CB  THR A   1       5.256  -6.074  -6.403  0.00  0.00    +0.143 C 
ATOM     20  CG2 THR A   1       5.702  -7.537  -6.448  0.00  0.00    +0.040 C 
BRANCH  19  21
ATOM     21  OG1 THR A   1       6.203  -5.265  -7.104  0.00  0.00    -0.390 OA
ATOM     22  HG1 THR A   1       7.098  -5.302  -6.740  0.00  0.00    +0.210 HD
ENDBRANCH  19  21
ENDBRANCH  15  19
ENDBRANCH   4  15
TORSDOF 6
