REMARK  Name = ZINC04587058
REMARK  6 active torsions:
REMARK  status: ('A' for Active; 'I' for Inactive)
REMARK    1  A    between atoms: C_1  and  C_2
REMARK    2  A    between atoms: C_2  and  C_3
REMARK    3  A    between atoms: C_6  and  C_9
REMARK    4  A    between atoms: C_21  and  C_23
REMARK    5  A    between atoms: C_23  and  C_24
REMARK    6  A    between atoms: C_24  and  C_25
REMARK                            x       y       z     vdW  Elec       q    Type
REMARK                         _______ _______ _______ _____ _____    ______ ____
ROOT
ATOM      1  C   UNL     1       7.775   7.713   0.899  0.00  0.00    +0.141 A 
ATOM      2  N   UNL     1       6.800   7.603   1.845  0.00  0.00    -0.307 N 
ATOM      3  H   UNL     1       6.452   8.418   2.307  0.00  0.00    +0.170 HD
ATOM      4  C   UNL     1       6.309   6.385   2.150  0.00  0.00    +0.257 A 
ATOM      5  O   UNL     1       5.435   6.264   2.992  0.00  0.00    -0.267 OA
ATOM      6  C   UNL     1       6.821   5.251   1.480  0.00  0.00    +0.055 A 
ATOM      7  C   UNL     1       7.781   5.421   0.536  0.00  0.00    +0.055 A 
ATOM      8  N   UNL     1       8.237   6.653   0.275  0.00  0.00    -0.233 NA
ATOM      9  C   UNL     1       8.358   4.280  -0.260  0.00  0.00    +0.075 C 
ATOM     10  C   UNL     1       8.128   2.944   0.457  0.00  0.00    +0.114 C 
ATOM     11  N   UNL     1       6.717   2.899   0.873  0.00  0.00    -0.297 N 
ATOM     12  C   UNL     1       6.273   3.898   1.852  0.00  0.00    +0.150 C 
ATOM     13  C   UNL     1       5.869   1.974   0.380  0.00  0.00    +0.216 C 
ATOM     14  O   UNL     1       6.262   1.160  -0.428  0.00  0.00    -0.276 OA
ENDROOT
BRANCH   1  18
ATOM     15  C   UNL     1       9.347  11.543  -0.046  0.00  0.00    -0.048 A 
ATOM     16  C   UNL     1       9.828  10.422  -0.698  0.00  0.00    +0.004 A 
ATOM     17  C   UNL     1       9.321   9.175  -0.396  0.00  0.00    +0.012 A 
ATOM     18  C   UNL     1       8.322   9.046   0.570  0.00  0.00    +0.017 A 
ATOM     19  C   UNL     1       7.838  10.182   1.221  0.00  0.00    +0.012 A 
ATOM     20  C   UNL     1       8.357  11.423   0.913  0.00  0.00    +0.004 A 
BRANCH  15  22
ATOM     21  C   UNL     1       9.086  13.524  -1.514  0.00  0.00    +0.009 C 
ATOM     22  C   UNL     1       9.905  12.903  -0.381  0.00  0.00    +0.032 C 
ENDBRANCH  15  22
ENDBRANCH   1  18
BRANCH  13  23
ATOM     23  C   UNL     1       4.432   1.952   0.833  0.00  0.00    +0.096 C 
BRANCH  23  24
ATOM     24  C   UNL     1       3.692   0.815   0.127  0.00  0.00    +0.013 C 
BRANCH  24  25
ATOM     25  C   UNL     1       2.232   0.792   0.586  0.00  0.00    -0.011 C 
ATOM     26  C   UNL     1       1.453   1.995  -0.001  0.00  0.00    +0.003 C 
ATOM     27  C   UNL     1      -0.019   1.534   0.011  0.00  0.00    +0.000 C 
ATOM     28  C   UNL     1       0.002  -0.004   0.002  0.00  0.00    +0.000 C 
ATOM     29  C   UNL     1       1.486  -0.425  -0.014  0.00  0.00    +0.003 C 
ENDBRANCH  24  25
ENDBRANCH  23  24
ENDBRANCH  13  23
TORSDOF 5
