REMARK  Name = ZINC36703225
REMARK  10 active torsions:
REMARK  status: ('A' for Active; 'I' for Inactive)
REMARK    1  A    between atoms: C_1  and  C_2
REMARK    2  A    between atoms: C_2  and  N_3
REMARK    3  A    between atoms: N_3  and  C_4
REMARK    4  A    between atoms: N_3  and  C_6
REMARK    5  A    between atoms: C_4  and  C_5
REMARK    6  A    between atoms: C_6  and  C_8
REMARK    7  A    between atoms: C_6  and  C_28
REMARK    8  A    between atoms: C_8  and  N_9
REMARK    9  A    between atoms: C_10  and  C_12
REMARK   10  A    between atoms: C_12  and  N_13
REMARK                            x       y       z     vdW  Elec       q    Type
REMARK                         _______ _______ _______ _____ _____    ______ ____
ROOT
ATOM      1  N   UNL     1      -1.677  -2.420   0.791  0.00  0.00    -0.315 N 
ATOM      2  C   UNL     1      -1.305  -3.459   0.017  0.00  0.00    +0.231 C 
ATOM      3  O   UNL     1      -1.097  -3.290  -1.165  0.00  0.00    -0.274 OA
ATOM      4  H   UNL     1      -1.773  -2.538   1.749  0.00  0.00    +0.149 HD
ENDROOT
BRANCH   1   5
ATOM      5  C   UNL     1      -1.937  -1.111   0.185  0.00  0.00    +0.093 C 
BRANCH   5   6
ATOM      6  C   UNL     1      -2.200  -0.082   1.286  0.00  0.00    -0.020 C 
BRANCH   6   7
ATOM      7  C   UNL     1      -2.345   1.286   0.671  0.00  0.00    -0.059 A 
ATOM      8  C   UNL     1      -2.698   1.411  -0.659  0.00  0.00    +0.002 A 
ATOM      9  C   UNL     1      -2.832   2.666  -1.223  0.00  0.00    +0.000 A 
ATOM     10  C   UNL     1      -2.614   3.795  -0.457  0.00  0.00    +0.000 A 
ATOM     11  C   UNL     1      -2.262   3.670   0.874  0.00  0.00    +0.000 A 
ATOM     12  C   UNL     1      -2.132   2.415   1.440  0.00  0.00    +0.002 A 
ENDBRANCH   6   7
BRANCH   6  13
ATOM     13  N   UNL     1      -1.074  -0.077   2.231  0.00  0.00    +0.385 N 
ATOM     14  H   UNL     1      -0.688  -1.007   2.299  0.00  0.00    -0.081 HD
BRANCH  13  16
ATOM     15  C   UNL     1       0.395   0.446   0.343  0.00  0.00    -0.017 C 
ATOM     16  C   UNL     1      -0.039   0.849   1.754  0.00  0.00    -0.081 C 
ENDBRANCH  13  16
BRANCH  13  17
ATOM     17  C   UNL     1      -1.546   0.355   3.553  0.00  0.00    -0.081 C 
ATOM     18  C   UNL     1      -2.462  -0.720   4.143  0.00  0.00    -0.017 C 
ENDBRANCH  13  17
ENDBRANCH   6  13
ENDBRANCH   5   6
ENDBRANCH   1   5
BRANCH   2  19
ATOM     19  C   UNL     1      -1.148  -4.830   0.622  0.00  0.00    +0.213 C 
BRANCH  19  20
ATOM     20  N   UNL     1      -0.625  -5.752  -0.389  0.00  0.00    -0.215 N 
ATOM     21  C   UNL     1      -1.397  -6.482  -1.223  0.00  0.00    +0.251 C 
ATOM     22  O   UNL     1      -2.607  -6.499  -1.279  0.00  0.00    -0.272 OA
ATOM     23  C   UNL     1      -0.431  -7.269  -2.070  0.00  0.00    +0.138 C 
ATOM     24  C   UNL     1      -0.653  -8.778  -1.911  0.00  0.00    +0.045 C 
ATOM     25  C   UNL     1      -0.283  -9.312  -3.313  0.00  0.00    +0.038 C 
ATOM     26  C   UNL     1      -0.521  -8.150  -4.256  0.00  0.00    -0.042 A 
ATOM     27  C   UNL     1      -0.604  -6.970  -3.535  0.00  0.00    -0.012 A 
ATOM     28  C   UNL     1      -0.819  -5.774  -4.199  0.00  0.00    +0.006 A 
ATOM     29  C   UNL     1      -0.951  -5.754  -5.574  0.00  0.00    +0.000 A 
ATOM     30  C   UNL     1      -0.868  -6.931  -6.292  0.00  0.00    +0.000 A 
ATOM     31  C   UNL     1      -0.653  -8.126  -5.633  0.00  0.00    +0.004 A 
ATOM     32  N   UNL     1       0.892  -6.871  -1.588  0.00  0.00    -0.281 N 
ATOM     33  C   UNL     1       0.679  -5.973  -0.604  0.00  0.00    +0.310 C 
ATOM     34  O   UNL     1       1.569  -5.429   0.019  0.00  0.00    -0.252 OA
ATOM     35  H   UNL     1       1.750  -7.186  -1.913  0.00  0.00    +0.152 HD
ENDBRANCH  19  20
ENDBRANCH   2  19
TORSDOF 8
