REMARK  Name = ZINC44975382
REMARK  2 active torsions:
REMARK  status: ('A' for Active; 'I' for Inactive)
REMARK    1  A    between atoms: C_15  and  C_17
REMARK    2  A    between atoms: C_23  and  C_25
REMARK                            x       y       z     vdW  Elec       q    Type
REMARK                         _______ _______ _______ _____ _____    ______ ____
ROOT
ATOM      1  C   UNL     1      -0.016   1.362   0.009  0.00  0.00    +0.001 A 
ATOM      2  C   UNL     1       1.169   2.083   0.002  0.00  0.00    +0.002 A 
ATOM      3  C   UNL     1       2.385   1.436  -0.013  0.00  0.00    +0.026 A 
ATOM      4  C   UNL     1       2.428   0.046  -0.021  0.00  0.00    +0.047 A 
ATOM      5  C   UNL     1       1.223  -0.682  -0.013  0.00  0.00    +0.003 A 
ATOM      6  C   UNL     1       0.002  -0.004   0.002  0.00  0.00    +0.010 A 
ATOM      7  C   UNL     1       1.607  -2.091  -0.024  0.00  0.00    -0.016 A 
ATOM      8  C   UNL     1       2.953  -2.138  -0.039  0.00  0.00    +0.038 A 
ATOM      9  N   UNL     1       3.458  -0.870  -0.036  0.00  0.00    -0.356 N 
ATOM     10  H   UNL     1       4.402  -0.646  -0.044  0.00  0.00    +0.166 HD
ATOM     11  C   UNL     1       3.742  -3.429  -0.061  0.00  0.00    +0.161 C 
ATOM     12  N   UNL     1       2.799  -4.526   0.218  0.00  0.00    -0.295 N 
ATOM     13  C   UNL     1       1.499  -4.522  -0.468  0.00  0.00    +0.113 C 
ATOM     14  C   UNL     1       0.699  -3.294  -0.014  0.00  0.00    +0.056 C 
ATOM     15  C   UNL     1       3.121  -5.509   1.082  0.00  0.00    +0.220 C 
ATOM     16  O   UNL     1       2.333  -6.405   1.301  0.00  0.00    -0.275 OA
ENDROOT
BRANCH  15  17
ATOM     17  C   UNL     1       4.458  -5.495   1.776  0.00  0.00    +0.087 C 
ATOM     18  C   UNL     1       5.575  -5.541   0.731  0.00  0.00    +0.013 C 
ATOM     19  C   UNL     1       6.934  -5.527   1.435  0.00  0.00    +0.001 C 
ATOM     20  C   UNL     1       7.044  -6.745   2.355  0.00  0.00    +0.001 C 
ATOM     21  C   UNL     1       5.928  -6.699   3.399  0.00  0.00    +0.013 C 
ATOM     22  C   UNL     1       4.569  -6.713   2.695  0.00  0.00    +0.087 C 
BRANCH  22  23
ATOM     23  C   UNL     1       3.469  -6.668   3.724  0.00  0.00    +0.220 C 
ATOM     24  O   UNL     1       2.675  -5.751   3.722  0.00  0.00    -0.275 OA
ATOM     25  N   UNL     1       3.368  -7.645   4.646  0.00  0.00    -0.291 N 
ATOM     26  C   UNL     1       2.302  -7.634   5.661  0.00  0.00    +0.127 C 
ATOM     27  C   UNL     1       1.445  -8.886   5.468  0.00  0.00    +0.123 C 
ATOM     28  N   UNL     1       2.284 -10.067   5.310  0.00  0.00    -0.313 N 
ATOM     29  C   UNL     1       3.558 -10.043   4.918  0.00  0.00    +0.230 C 
ATOM     30  O   UNL     1       4.131 -11.098   4.747  0.00  0.00    -0.274 OA
ATOM     31  C   UNL     1       4.315  -8.770   4.676  0.00  0.00    +0.203 C 
ATOM     32  H   UNL     1       1.888 -10.931   5.504  0.00  0.00    +0.149 HD
ENDBRANCH  22  23
ENDBRANCH  15  17
TORSDOF 2
