REMARK  Name = ZINC46751434
REMARK  9 active torsions:
REMARK  status: ('A' for Active; 'I' for Inactive)
REMARK    1  A    between atoms: C_1  and  C_2
REMARK    2  A    between atoms: N_8  and  C_9
REMARK    3  A    between atoms: C_9  and  C_10
REMARK    4  A    between atoms: C_10  and  C_11
REMARK    5  A    between atoms: C_11  and  C_12
REMARK    6  A    between atoms: C_12  and  N_13
REMARK    7  A    between atoms: N_16  and  N_17
REMARK    8  A    between atoms: C_18  and  C_20
REMARK    9  A    between atoms: N_22  and  C_23
REMARK                            x       y       z     vdW  Elec       q    Type
REMARK                         _______ _______ _______ _____ _____    ______ ____
ROOT
ATOM      1  N   UNL     1       6.221   0.443   3.874  0.00  0.00    -0.298 N 
ATOM      2  C   UNL     1       7.026   0.217   4.931  0.00  0.00    +0.316 C 
ATOM      3  O   UNL     1       6.634  -0.461   5.861  0.00  0.00    -0.251 OA
ATOM      4  N   UNL     1       8.267   0.743   4.956  0.00  0.00    -0.218 N 
ATOM      5  H   UNL     1       6.533   0.983   3.132  0.00  0.00    +0.150 HD
ATOM      6  H   UNL     1       8.847   0.581   5.716  0.00  0.00    +0.174 HD
ENDROOT
BRANCH   4   7
ATOM      7  N   UNL     1       8.719   1.524   3.884  0.00  0.00    -0.225 N 
ATOM      8  C   UNL     1       9.960   2.049   3.909  0.00  0.00    +0.315 C 
ATOM      9  O   UNL     1      10.685   1.846   4.861  0.00  0.00    -0.264 OA
ATOM     10  H   UNL     1       8.139   1.686   3.124  0.00  0.00    +0.173 HD
BRANCH   8  11
ATOM     11  C   UNL     1      10.442   2.882   2.766  0.00  0.00    +0.301 C 
ATOM     12  O   UNL     1       9.716   3.085   1.815  0.00  0.00    -0.265 OA
ATOM     13  N   UNL     1      11.683   3.408   2.791  0.00  0.00    -0.305 N 
ATOM     14  H   UNL     1      12.263   3.246   3.552  0.00  0.00    +0.149 HD
BRANCH  13  15
ATOM     15  C   UNL     1      12.156   4.224   1.671  0.00  0.00    +0.073 C 
ATOM     16  C   UNL     1      13.579   3.976   1.167  0.00  0.00    +0.024 C 
ATOM     17  C   UNL     1      13.257   5.247   1.957  0.00  0.00    +0.024 C 
ENDBRANCH  13  15
ENDBRANCH   8  11
ENDBRANCH   4   7
BRANCH   1  18
ATOM     18  C   UNL     1       4.872  -0.129   3.846  0.00  0.00    +0.106 C 
BRANCH  18  19
ATOM     19  C   UNL     1       4.173   0.276   2.547  0.00  0.00    +0.017 C 
BRANCH  19  20
ATOM     20  C   UNL     1       2.764  -0.321   2.518  0.00  0.00    -0.017 C 
BRANCH  20  21
ATOM     21  C   UNL     1       2.066   0.083   1.218  0.00  0.00    -0.078 C 
BRANCH  21  28
ATOM     22  C   UNL     1      -0.019   1.526   0.010  0.00  0.00    -0.013 C 
ATOM     23  C   UNL     1       0.002  -0.004   0.002  0.00  0.00    -0.072 C 
ATOM     24  C   UNL     1      -1.434  -0.533   0.011  0.00  0.00    -0.016 C 
ATOM     25  C   UNL     1      -1.408  -2.064   0.003  0.00  0.00    -0.003 C 
ATOM     26  C   UNL     1      -0.600  -2.558   1.206  0.00  0.00    -0.019 C 
ATOM     27  C   UNL     1       0.805  -1.954   1.152  0.00  0.00    -0.078 C 
ATOM     28  N   UNL     1       0.713  -0.490   1.191  0.00  0.00    +0.381 N 
ATOM     29  H   UNL     1       0.213  -0.206   2.020  0.00  0.00    -0.081 HD
ENDBRANCH  21  28
ENDBRANCH  20  21
ENDBRANCH  19  20
ENDBRANCH  18  19
ENDBRANCH   1  18
TORSDOF 8
