REMARK  Name = ZINC37015545
REMARK  7 active torsions:
REMARK  status: ('A' for Active; 'I' for Inactive)
REMARK    1  A    between atoms: C_1  and  C_2
REMARK    2  A    between atoms: C_2  and  C_3
REMARK    3  A    between atoms: C_2  and  C_4
REMARK    4  A    between atoms: C_4  and  C_5
REMARK    5  A    between atoms: C_5  and  C_7
REMARK    6  A    between atoms: C_5  and  N_21
REMARK    7  A    between atoms: N_9  and  C_10
REMARK                            x       y       z     vdW  Elec       q    Type
REMARK                         _______ _______ _______ _____ _____    ______ ____
ROOT
ATOM      1  C   UNL     1      -3.582  -0.549  -1.219  0.00  0.00    +0.203 C 
ATOM      2  O   UNL     1      -3.949  -1.560  -1.779  0.00  0.00    -0.277 OA
ATOM      3  N   UNL     1      -4.471   0.210  -0.548  0.00  0.00    -0.286 N 
ATOM      4  H   UNL     1      -4.168   0.983  -0.046  0.00  0.00    +0.155 HD
ENDROOT
BRANCH   3   5
ATOM      5  C   UNL     1      -5.834  -0.116  -0.577  0.00  0.00    +0.051 A 
ATOM      6  C   UNL     1      -6.228  -1.446  -0.616  0.00  0.00    +0.073 A 
ATOM      7  C   UNL     1      -7.576  -1.770  -0.644  0.00  0.00    +0.164 A 
ATOM      8  C   UNL     1      -8.531  -0.760  -0.631  0.00  0.00    +0.163 A 
ATOM      9  C   UNL     1      -8.134   0.568  -0.594  0.00  0.00    +0.066 A 
ATOM     10  C   UNL     1      -6.790   0.890  -0.561  0.00  0.00    +0.043 A 
ATOM     11 BR   UNL     1      -6.254   2.703  -0.502  0.00  0.00    -0.048 Br
ATOM     12  O   UNL     1      -9.860  -1.058  -0.650  0.00  0.00    -0.485 OA
ATOM     13  C   UNL     1     -10.217  -2.382  -1.063  0.00  0.00    +0.270 C 
ATOM     14  C   UNL     1      -9.302  -3.376  -0.334  0.00  0.00    +0.270 C 
ATOM     15  O   UNL     1      -7.947  -3.079  -0.686  0.00  0.00    -0.485 OA
ENDBRANCH   3   5
BRANCH   1  16
ATOM     16  C   UNL     1      -2.132  -0.141  -1.272  0.00  0.00    +0.013 C 
BRANCH  16  17
ATOM     17  N   UNL     1      -1.477  -0.809  -2.404  0.00  0.00    +0.386 N 
ATOM     18  H   UNL     1      -0.506  -0.536  -2.440  0.00  0.00    -0.089 HD
ATOM     19  H   UNL     1      -1.541  -1.809  -2.288  0.00  0.00    -0.089 HD
ATOM     20  H   UNL     1      -1.933  -0.541  -3.263  0.00  0.00    -0.089 HD
ENDBRANCH  16  17
BRANCH  16  21
ATOM     21  C   UNL     1      -1.440  -0.548   0.030  0.00  0.00    -0.004 C 
BRANCH  21  23
ATOM     22  C   UNL     1      -0.016   1.505   0.039  0.00  0.00    +0.007 C 
ATOM     23  C   UNL     1      -0.002  -0.025   0.029  0.00  0.00    -0.018 C 
ATOM     24  C   UNL     1       0.728  -0.536   1.272  0.00  0.00    +0.007 C 
ENDBRANCH  21  23
ENDBRANCH  16  21
ENDBRANCH   1  16
TORSDOF 5
