REMARK  Name = ZINC25067040
REMARK  8 active torsions:
REMARK  status: ('A' for Active; 'I' for Inactive)
REMARK    1  A    between atoms: C_1  and  C_2
REMARK    2  A    between atoms: C_7  and  C_8
REMARK    3  A    between atoms: N_10  and  C_11
REMARK    4  A    between atoms: C_11  and  C_12
REMARK    5  A    between atoms: C_15  and  O_18
REMARK    6  A    between atoms: O_18  and  C_19
REMARK    7  A    between atoms: C_21  and  C_25
REMARK    8  A    between atoms: C_21  and  C_26
REMARK                            x       y       z     vdW  Elec       q    Type
REMARK                         _______ _______ _______ _____ _____    ______ ____
ROOT
ATOM      1  C   UNL     1      -5.499   4.504   2.541  0.00  0.00    +0.047 C 
ATOM      2  C   UNL     1      -4.452   3.898   3.440  0.00  0.00    -0.010 A 
ATOM      3  C   UNL     1      -4.456   3.889   4.840  0.00  0.00    +0.042 A 
ATOM      4  C   UNL     1      -3.299   3.235   5.262  0.00  0.00    +0.028 A 
ATOM      5  N   UNL     1      -2.625   2.853   4.177  0.00  0.00    -0.354 N 
ATOM      6  H   UNL     1      -1.673   2.312   4.283  0.00  0.00    +0.166 HD
ATOM      7  C   UNL     1      -3.316   3.248   3.047  0.00  0.00    +0.106 A 
ATOM      8  C   UNL     1      -2.953   3.042   6.717  0.00  0.00    +0.060 C 
ATOM      9  C   UNL     1      -3.727   4.059   7.559  0.00  0.00    -0.023 C 
ATOM     10  C   UNL     1      -5.224   3.997   7.243  0.00  0.00    +0.086 C 
ATOM     11  C   UNL     1      -5.429   4.432   5.800  0.00  0.00    +0.166 C 
ATOM     12  O   UNL     1      -6.330   5.174   5.465  0.00  0.00    -0.292 OA
ATOM     13  C   UNL     1      -3.206   5.465   7.255  0.00  0.00    +0.011 C 
ATOM     14  C   UNL     1      -3.512   3.752   9.043  0.00  0.00    +0.011 C 
ENDROOT
BRANCH   7  15
ATOM     15  C   UNL     1      -2.897   3.014   1.660  0.00  0.00    +0.261 C 
ATOM     16  O   UNL     1      -3.589   3.409   0.740  0.00  0.00    -0.269 OA
ATOM     17  N   UNL     1      -1.746   2.361   1.404  0.00  0.00    -0.306 N 
ATOM     18  H   UNL     1      -1.120   2.004   2.236  0.00  0.00    +0.149 HD
BRANCH  17  19
ATOM     19  C   UNL     1      -1.327   2.128   0.020  0.00  0.00    +0.141 C 
BRANCH  19  20
ATOM     20  C   UNL     1      -0.017   1.384   0.010  0.00  0.00    -0.012 A 
ATOM     21  C   UNL     1       0.002  -0.004   0.002  0.00  0.00    +0.012 A 
ATOM     22  C   UNL     1       1.227  -0.647  -0.013  0.00  0.00    +0.067 A 
ATOM     23  C   UNL     1       2.390   0.113  -0.020  0.00  0.00    +0.214 A 
ATOM     24  N   UNL     1       2.331   1.434  -0.012  0.00  0.00    -0.221 NA
ATOM     25  C   UNL     1       1.178   2.076   0.002  0.00  0.00    +0.119 A 
BRANCH  23  26
ATOM     26  O   UNL     1       3.597  -0.506  -0.035  0.00  0.00    -0.480 OA
ATOM     27  C   UNL     1       4.755   0.331  -0.042  0.00  0.00    +0.279 C 
ENDBRANCH  23  26
ENDBRANCH  19  20
ENDBRANCH  17  19
ENDBRANCH   7  15
TORSDOF 4
