REMARK  Name = ZINC39595793
REMARK  8 active torsions:
REMARK  status: ('A' for Active; 'I' for Inactive)
REMARK    1  A    between atoms: C_1  and  C_2
REMARK    2  A    between atoms: C_2  and  C_4
REMARK    3  A    between atoms: C_2  and  O_32
REMARK    4  A    between atoms: C_4  and  N_5
REMARK    5  A    between atoms: C_6  and  C_8
REMARK    6  A    between atoms: C_19  and  C_21
REMARK    7  A    between atoms: C_24  and  C_28
REMARK    8  A    between atoms: O_32  and  C_33
REMARK                            x       y       z     vdW  Elec       q    Type
REMARK                         _______ _______ _______ _____ _____    ______ ____
ROOT
ATOM      1  C   UNL     1       1.972  -4.342  -3.221  0.00  0.00    +0.100 C 
ATOM      2  C   UNL     1       0.577  -4.992  -3.094  0.00  0.00    +0.121 C 
ATOM      3  N   UNL     1       0.107  -5.146  -4.491  0.00  0.00    -0.296 N 
ATOM      4  C   UNL     1       1.317  -5.556  -5.244  0.00  0.00    +0.115 C 
ATOM      5  C   UNL     1       2.457  -4.717  -4.631  0.00  0.00    -0.004 C 
ATOM      6  C   UNL     1       3.736  -5.545  -4.548  0.00  0.00    -0.010 C 
ATOM      7  C   UNL     1       4.230  -5.856  -5.964  0.00  0.00    -0.082 C 
ATOM      8  N   UNL     1       4.480  -4.601  -6.684  0.00  0.00    +0.379 N 
ATOM      9  C   UNL     1       3.226  -3.855  -6.840  0.00  0.00    -0.082 C 
ATOM     10  C   UNL     1       2.690  -3.459  -5.462  0.00  0.00    -0.010 C 
ATOM     11  C   UNL     1      -1.139  -4.957  -4.970  0.00  0.00    +0.249 C 
ATOM     12  O   UNL     1      -1.387  -5.208  -6.133  0.00  0.00    -0.270 OA
ATOM     13  H   UNL     1       5.140  -4.042  -6.163  0.00  0.00    -0.086 HD
ATOM     14  H   UNL     1       4.863  -4.808  -7.594  0.00  0.00    -0.086 HD
ENDROOT
BRANCH  11  15
ATOM     15  C   UNL     1      -2.201  -4.445  -4.081  0.00  0.00    +0.072 A 
ATOM     16  C   UNL     1      -2.299  -4.905  -2.766  0.00  0.00    +0.016 A 
ATOM     17  C   UNL     1      -3.292  -4.422  -1.942  0.00  0.00    +0.013 A 
ATOM     18  C   UNL     1      -4.194  -3.483  -2.413  0.00  0.00    +0.058 A 
ATOM     19  C   UNL     1      -4.106  -3.022  -3.712  0.00  0.00    +0.051 A 
ATOM     20  C   UNL     1      -3.111  -3.492  -4.550  0.00  0.00    +0.136 A 
ATOM     21  F   UNL     1      -3.021  -3.036  -5.819  0.00  0.00    -0.205 F 
BRANCH  18  22
ATOM     22  C   UNL     1      -5.277  -2.962  -1.504  0.00  0.00    +0.418 C 
ATOM     23  F   UNL     1      -4.811  -1.832  -0.824  0.00  0.00    -0.166 F 
ATOM     24  F   UNL     1      -6.400  -2.619  -2.265  0.00  0.00    -0.166 F 
ATOM     25  F   UNL     1      -5.626  -3.952  -0.579  0.00  0.00    -0.166 F 
ENDBRANCH  18  22
ENDBRANCH  11  15
BRANCH   1  27
ATOM     26  N   UNL     1       2.942  -2.127  -2.698  0.00  0.00    -0.312 N 
ATOM     27  C   UNL     1       1.868  -2.845  -3.083  0.00  0.00    +0.218 C 
ATOM     28  O   UNL     1       0.818  -2.286  -3.318  0.00  0.00    -0.275 OA
ATOM     29  H   UNL     1       3.782  -2.574  -2.510  0.00  0.00    +0.149 HD
BRANCH  26  30
ATOM     30  C   UNL     1       2.841  -0.672  -2.563  0.00  0.00    +0.148 C 
BRANCH  30  32
ATOM     31  C   UNL     1       4.052   1.396  -1.857  0.00  0.00    +0.053 C 
ATOM     32  C   UNL     1       4.190  -0.106  -2.117  0.00  0.00    +0.187 C 
BRANCH  32  33
ATOM     33  O   UNL     1       5.161  -0.324  -3.143  0.00  0.00    -0.488 OA
BRANCH  33  34
ATOM     34  C   UNL     1       6.465  -0.361  -2.761  0.00  0.00    +0.121 A 
ATOM     35  C   UNL     1       6.800  -0.231  -1.421  0.00  0.00    +0.048 A 
ATOM     36  C   UNL     1       8.126  -0.269  -1.034  0.00  0.00    +0.042 A 
ATOM     37  C   UNL     1       9.120  -0.436  -1.984  0.00  0.00    +0.124 A 
ATOM     38  C   UNL     1       8.787  -0.565  -3.321  0.00  0.00    +0.042 A 
ATOM     39  C   UNL     1       7.462  -0.534  -3.710  0.00  0.00    +0.048 A 
ATOM     40  F   UNL     1      10.416  -0.472  -1.604  0.00  0.00    -0.205 F 
ENDBRANCH  33  34
ENDBRANCH  32  33
ENDBRANCH  30  32
ENDBRANCH  26  30
ENDBRANCH   1  27
TORSDOF 7
