REMARK  Name = ZINC59135356
REMARK  5 active torsions:
REMARK  status: ('A' for Active; 'I' for Inactive)
REMARK    1  A    between atoms: C_1  and  C_2
REMARK    2  A    between atoms: C_4  and  C_15
REMARK    3  A    between atoms: C_5  and  C_14
REMARK    4  A    between atoms: N_6  and  C_7
REMARK    5  A    between atoms: N_22  and  C_25
REMARK                            x       y       z     vdW  Elec       q    Type
REMARK                         _______ _______ _______ _____ _____    ______ ____
ROOT
ATOM      1  C   UNL     1       0.065  -3.330  -1.436  0.00  0.00    +0.028 C 
ATOM      2  C   UNL     1      -0.643  -3.362  -2.631  0.00  0.00    +0.102 C 
ATOM      3  C   UNL     1      -1.320  -2.167  -3.155  0.00  0.00    +0.276 C 
ATOM      4  O   UNL     1      -1.273  -0.997  -2.484  0.00  0.00    -0.268 OA
ATOM      5  N   UNL     1      -1.977  -2.265  -4.299  0.00  0.00    -0.123 NA
ATOM      6  C   UNL     1      -2.040  -3.405  -4.982  0.00  0.00    +0.340 C 
ATOM      7  O   UNL     1      -2.664  -3.416  -6.028  0.00  0.00    -0.250 OA
ATOM      8  N   UNL     1      -1.454  -4.543  -4.581  0.00  0.00    -0.188 N 
ATOM      9  C   UNL     1      -0.743  -4.595  -3.435  0.00  0.00    +0.264 C 
ATOM     10  O   UNL     1      -0.206  -5.625  -3.073  0.00  0.00    -0.269 OA
ENDROOT
BRANCH   1  14
ATOM     11  C   UNL     1       1.402   1.464  -0.592  0.00  0.00    +0.064 C 
ATOM     12  C   UNL     1       0.913   0.047  -0.430  0.00  0.00    +0.022 A 
ATOM     13  C   UNL     1       0.844  -0.868  -1.410  0.00  0.00    +0.031 A 
ATOM     14  C   UNL     1       0.314  -2.095  -0.795  0.00  0.00    -0.003 A 
ATOM     15  C   UNL     1       0.108  -1.790   0.544  0.00  0.00    +0.028 A 
ATOM     16  N   UNL     1       0.476  -0.510   0.741  0.00  0.00    -0.316 N 
ATOM     17  C   UNL     1      -0.429  -2.728   1.593  0.00  0.00    +0.064 C 
BRANCH  16  18
ATOM     18  C   UNL     1       0.418   0.158   1.972  0.00  0.00    +0.065 A 
ATOM     19  C   UNL     1      -0.734   0.842   2.338  0.00  0.00    +0.027 A 
ATOM     20  C   UNL     1      -0.788   1.499   3.551  0.00  0.00    +0.002 A 
ATOM     21  C   UNL     1       0.302   1.476   4.402  0.00  0.00    +0.002 A 
ATOM     22  C   UNL     1       1.450   0.796   4.041  0.00  0.00    +0.022 A 
ATOM     23  C   UNL     1       1.510   0.132   2.830  0.00  0.00    +0.065 A 
ATOM     24 CL   UNL     1       2.949  -0.729   2.381  0.00  0.00    -0.081 Cl
ENDBRANCH  16  18
ENDBRANCH   1  14
BRANCH   8  25
ATOM     25  C   UNL     1      -1.576  -5.696  -5.369  0.00  0.00    +0.046 A 
ATOM     26  C   UNL     1      -2.277  -6.794  -4.890  0.00  0.00    +0.027 A 
ATOM     27  C   UNL     1      -2.397  -7.929  -5.668  0.00  0.00    +0.040 A 
ATOM     28  C   UNL     1      -1.818  -7.973  -6.925  0.00  0.00    +0.124 A 
ATOM     29  C   UNL     1      -1.118  -6.878  -7.405  0.00  0.00    +0.040 A 
ATOM     30  C   UNL     1      -1.001  -5.740  -6.632  0.00  0.00    +0.027 A 
ATOM     31  F   UNL     1      -1.936  -9.084  -7.684  0.00  0.00    -0.205 F 
ENDBRANCH   8  25
TORSDOF 3
