REMARK  Name = ZINC35277501
REMARK  6 active torsions:
REMARK  status: ('A' for Active; 'I' for Inactive)
REMARK    1  A    between atoms: C_8  and  N_13
REMARK    2  A    between atoms: C_14  and  C_16
REMARK    3  A    between atoms: C_16  and  C_17
REMARK    4  A    between atoms: C_17  and  C_18
REMARK    5  A    between atoms: C_18  and  C_19
REMARK    6  A    between atoms: C_19  and  C_20
REMARK                            x       y       z     vdW  Elec       q    Type
REMARK                         _______ _______ _______ _____ _____    ______ ____
ROOT
ATOM      1  C   UNL     1       2.621  -4.354  -1.001  0.00  0.00    +0.096 C 
ENDROOT
BRANCH   1   3
ATOM      2  N   UNL     1       3.439  -2.033  -0.754  0.00  0.00    -0.308 N 
ATOM      3  C   UNL     1       2.851  -3.106  -0.189  0.00  0.00    +0.213 C 
ATOM      4  O   UNL     1       2.507  -3.066   0.973  0.00  0.00    -0.276 OA
ATOM      5  H   UNL     1       3.714  -2.064  -1.684  0.00  0.00    +0.149 HD
BRANCH   2  13
ATOM      6  C   UNL     1      -0.017   1.380   0.010  0.00  0.00    +0.021 A 
ATOM      7  C   UNL     1       1.173   2.075   0.002  0.00  0.00    +0.016 A 
ATOM      8  C   UNL     1       2.392   1.395  -0.007  0.00  0.00    +0.013 A 
ATOM      9  C   UNL     1       2.414   0.013  -0.000  0.00  0.00    -0.012 A 
ATOM     10  C   UNL     1       1.205  -0.678  -0.004  0.00  0.00    +0.026 A 
ATOM     11  C   UNL     1       0.002  -0.004   0.002  0.00  0.00    +0.041 A 
ATOM     12 CL   UNL     1      -1.490  -0.892   0.001  0.00  0.00    -0.084 Cl
ATOM     13  C   UNL     1       3.663  -0.819   0.035  0.00  0.00    +0.105 C 
ATOM     14  C   UNL     1       4.887  -0.106  -0.512  0.00  0.00    +0.038 C 
ATOM     15  C   UNL     1       5.168   1.138   0.344  0.00  0.00    +0.076 C 
ATOM     16  S   UNL     1       3.873   2.354  -0.037  0.00  0.00    -0.125 S 
ENDBRANCH   2  13
ENDBRANCH   1   3
BRANCH   1  17
ATOM     17  C   UNL     1       1.944  -5.412  -0.128  0.00  0.00    +0.009 C 
BRANCH  17  18
ATOM     18  C   UNL     1       1.710  -6.680  -0.953  0.00  0.00    +0.002 C 
BRANCH  18  19
ATOM     19  C   UNL     1       1.033  -7.739  -0.080  0.00  0.00    +0.028 C 
BRANCH  19  20
ATOM     20  C   UNL     1       0.799  -9.006  -0.905  0.00  0.00    +0.152 C 
ATOM     21  C   UNL     1       0.103 -10.066  -0.089  0.00  0.00    +0.120 C 
ATOM     22  C   UNL     1       0.477 -11.465  -0.669  0.00  0.00    +0.117 C 
ATOM     23  C   UNL     1       1.999 -11.549  -0.576  0.00  0.00    +0.190 C 
ATOM     24  S   UNL     1       2.399  -9.862  -1.285  0.00  0.00    -0.025 S 
ATOM     25  O   UNL     1       2.548  -9.962  -2.694  0.00  0.00    -0.174 OA
ATOM     26  O   UNL     1       3.435  -9.275  -0.509  0.00  0.00    -0.174 OA
ATOM     27  N   UNL     1      -0.377 -12.293   0.151  0.00  0.00    -0.293 N 
ATOM     28  C   UNL     1      -1.490 -11.538   0.397  0.00  0.00    +0.300 C 
ATOM     29  O   UNL     1      -2.526 -11.991   0.844  0.00  0.00    -0.253 OA
ATOM     30  N   UNL     1      -1.312 -10.229   0.072  0.00  0.00    -0.293 N 
ATOM     31  H   UNL     1      -0.198 -13.194   0.462  0.00  0.00    +0.151 HD
ATOM     32  H   UNL     1      -1.999  -9.551  -0.024  0.00  0.00    +0.151 HD
ENDBRANCH  19  20
ENDBRANCH  18  19
ENDBRANCH  17  18
ENDBRANCH   1  17
TORSDOF 6
