REMARK  Name = ZINC39856274
REMARK  10 active torsions:
REMARK  status: ('A' for Active; 'I' for Inactive)
REMARK    1  A    between atoms: C_1  and  C_2
REMARK    2  A    between atoms: C_2  and  C_3
REMARK    3  A    between atoms: C_3  and  C_4
REMARK    4  A    between atoms: C_4  and  C_5
REMARK    5  A    between atoms: C_8  and  N_11
REMARK    6  A    between atoms: C_12  and  C_14
REMARK    7  A    between atoms: C_15  and  C_30
REMARK    8  A    between atoms: C_20  and  C_28
REMARK    9  A    between atoms: C_20  and  C_29
REMARK   10  A    between atoms: N_23  and  N_24
REMARK                            x       y       z     vdW  Elec       q    Type
REMARK                         _______ _______ _______ _____ _____    ______ ____
ROOT
ATOM      1  C   UNL     1       3.576  -4.450   8.207  0.00  0.00    +0.193 A 
ATOM      2  C   UNL     1       3.026  -4.638   9.445  0.00  0.00    +0.009 A 
ATOM      3  C   UNL     1       4.082  -4.988  10.294  0.00  0.00    +0.042 A 
ATOM      4  C   UNL     1       5.232  -4.997   9.540  0.00  0.00    +0.116 A 
ATOM      5  O   UNL     1       4.906  -4.680   8.289  0.00  0.00    -0.454 OA
ATOM      6  C   UNL     1       6.587  -5.327  10.114  0.00  0.00    +0.081 C 
ATOM      7  C   UNL     1       6.558  -5.126  11.632  0.00  0.00    -0.023 C 
ATOM      8  C   UNL     1       5.395  -5.903  12.258  0.00  0.00    +0.064 C 
ATOM      9  C   UNL     1       4.093  -5.312  11.738  0.00  0.00    +0.071 C 
ATOM     10  N   UNL     1       3.067  -5.107  12.505  0.00  0.00    -0.183 NA
ATOM     11  C   UNL     1       7.876  -5.622  12.231  0.00  0.00    +0.011 C 
ATOM     12  C   UNL     1       6.394  -3.637  11.941  0.00  0.00    +0.011 C 
ATOM     13  C   UNL     1       1.573  -4.497   9.819  0.00  0.00    +0.048 C 
ENDROOT
BRANCH  10  14
ATOM     14  N   UNL     1       3.133  -5.432  13.866  0.00  0.00    -0.191 N 
ATOM     15  C   UNL     1       2.067  -5.219  14.663  0.00  0.00    +0.317 C 
ATOM     16  O   UNL     1       2.125  -5.502  15.844  0.00  0.00    -0.251 OA
ATOM     17  N   UNL     1       0.938  -4.693  14.150  0.00  0.00    -0.312 N 
ATOM     18  H   UNL     1       3.947  -5.811  14.235  0.00  0.00    +0.179 HD
ATOM     19  H   UNL     1       0.892  -4.467  13.208  0.00  0.00    +0.147 HD
ATOM     20  H   UNL     1       0.170  -4.539  14.723  0.00  0.00    +0.147 HD
ENDBRANCH  10  14
BRANCH   1  22
ATOM     21  N   UNL     1       3.506  -3.920   5.828  0.00  0.00    -0.279 N 
ATOM     22  C   UNL     1       2.845  -4.069   6.994  0.00  0.00    +0.284 C 
ATOM     23  O   UNL     1       1.643  -3.889   7.039  0.00  0.00    -0.266 OA
ATOM     24  H   UNL     1       4.450  -4.138   5.774  0.00  0.00    +0.155 HD
BRANCH  21  28
ATOM     25  C   UNL     1       1.495  -2.523   2.459  0.00  0.00    -0.047 A 
ATOM     26  C   UNL     1       2.522  -3.439   2.319  0.00  0.00    +0.005 A 
ATOM     27  C   UNL     1       3.191  -3.904   3.434  0.00  0.00    +0.023 A 
ATOM     28  C   UNL     1       2.831  -3.451   4.697  0.00  0.00    +0.034 A 
ATOM     29  C   UNL     1       1.800  -2.531   4.834  0.00  0.00    +0.023 A 
ATOM     30  C   UNL     1       1.139  -2.066   3.714  0.00  0.00    +0.005 A 
BRANCH  25  31
ATOM     31  C   UNL     1       0.767  -2.018   1.240  0.00  0.00    +0.035 C 
BRANCH  31  32
ATOM     32  C   UNL     1       1.473  -0.770   0.705  0.00  0.00    +0.004 C 
BRANCH  32  34
ATOM     33  C   UNL     1       1.440   0.990  -1.067  0.00  0.00    +0.004 C 
ATOM     34  C   UNL     1       0.735  -0.258  -0.533  0.00  0.00    -0.003 C 
ENDBRANCH  32  34
ENDBRANCH  31  32
ENDBRANCH  25  31
ENDBRANCH  21  28
ENDBRANCH   1  22
TORSDOF 6
