REMARK  Name = ZINC66708704
REMARK  4 active torsions:
REMARK  status: ('A' for Active; 'I' for Inactive)
REMARK    1  A    between atoms: C_1  and  C_2
REMARK    2  A    between atoms: C_2  and  C_4
REMARK    3  A    between atoms: C_2  and  N_21
REMARK    4  A    between atoms: C_10  and  C_13
REMARK                            x       y       z     vdW  Elec       q    Type
REMARK                         _______ _______ _______ _____ _____    ______ ____
ROOT
ATOM      1  C   UNL     1       0.821  -0.541   1.147  0.00  0.00    +0.236 C 
ATOM      2  O   UNL     1       1.841  -1.160   0.926  0.00  0.00    -0.274 OA
ATOM      3  N   UNL     1       0.420  -0.336   2.417  0.00  0.00    -0.295 N 
ATOM      4  C   UNL     1      -0.870   0.309   2.709  0.00  0.00    +0.136 C 
ATOM      5  C   UNL     1      -1.629  -0.563   3.716  0.00  0.00    +0.179 C 
ATOM      6  O   UNL     1      -0.784  -0.830   4.838  0.00  0.00    -0.369 OA
ATOM      7  C   UNL     1       0.397  -1.570   4.518  0.00  0.00    +0.166 C 
ATOM      8  C   UNL     1       1.257  -0.754   3.553  0.00  0.00    +0.144 C 
ENDROOT
BRANCH   7   9
ATOM      9  C   UNL     1       1.174  -1.846   5.779  0.00  0.00    -0.016 A 
ATOM     10  C   UNL     1       1.191  -0.913   6.800  0.00  0.00    +0.008 A 
ATOM     11  C   UNL     1       1.904  -1.165   7.956  0.00  0.00    +0.022 A 
ATOM     12  C   UNL     1       2.601  -2.352   8.094  0.00  0.00    +0.059 A 
ATOM     13  C   UNL     1       2.584  -3.287   7.073  0.00  0.00    +0.060 A 
ATOM     14  C   UNL     1       1.866  -3.035   5.918  0.00  0.00    +0.027 A 
ATOM     15 CL   UNL     1       3.459  -4.776   7.244  0.00  0.00    -0.082 Cl
ATOM     16 CL   UNL     1       3.497  -2.669   9.547  0.00  0.00    -0.082 Cl
ENDBRANCH   7   9
BRANCH   1  18
ATOM     17  C   UNL     1       0.271   1.495  -0.157  0.00  0.00    +0.038 C 
ATOM     18  C   UNL     1       0.003  -0.003   0.002  0.00  0.00    +0.157 C 
BRANCH  18  19
ATOM     19  N   UNL     1       0.373  -0.700  -1.233  0.00  0.00    -0.289 N 
ATOM     20  C   UNL     1      -0.508  -0.781  -2.250  0.00  0.00    +0.298 C 
ATOM     21  O   UNL     1      -1.609  -0.277  -2.143  0.00  0.00    -0.253 OA
ATOM     22  N   UNL     1      -0.167  -1.422  -3.386  0.00  0.00    -0.313 N 
ATOM     23  H   UNL     1       1.251  -1.102  -1.318  0.00  0.00    +0.151 HD
ATOM     24  H   UNL     1       0.711  -1.824  -3.471  0.00  0.00    +0.146 HD
ATOM     25  H   UNL     1      -0.801  -1.481  -4.118  0.00  0.00    +0.146 HD
ENDBRANCH  18  19
ENDBRANCH   1  18
TORSDOF 3
