REMARK  Name = ZINC61442238
REMARK  4 active torsions:
REMARK  status: ('A' for Active; 'I' for Inactive)
REMARK    1  A    between atoms: C_4  and  C_7
REMARK    2  A    between atoms: C_7  and  C_8
REMARK    3  A    between atoms: C_7  and  N_13
REMARK    4  A    between atoms: C_14  and  C_16
REMARK                            x       y       z     vdW  Elec       q    Type
REMARK                         _______ _______ _______ _____ _____    ______ ____
ROOT
ATOM      1  N   UNL     1       3.630  -1.873   0.845  0.00  0.00    -0.296 N 
ATOM      2  C   UNL     1       4.751  -2.385   1.391  0.00  0.00    +0.266 C 
ATOM      3  O   UNL     1       5.830  -1.879   1.150  0.00  0.00    -0.268 OA
ATOM      4  H   UNL     1       2.769  -2.277   1.038  0.00  0.00    +0.150 HD
ENDROOT
BRANCH   2   5
ATOM      5  C   UNL     1       4.670  -3.560   2.280  0.00  0.00    +0.153 A 
ATOM      6  C   UNL     1       5.888  -4.122   2.885  0.00  0.00    +0.020 A 
ATOM      7  C   UNL     1       7.154  -3.593   2.660  0.00  0.00    +0.011 A 
ATOM      8  C   UNL     1       8.248  -4.176   3.263  0.00  0.00    +0.001 A 
ATOM      9  C   UNL     1       8.100  -5.282   4.089  0.00  0.00    +0.001 A 
ATOM     10  C   UNL     1       6.854  -5.823   4.326  0.00  0.00    +0.014 A 
ATOM     11  C   UNL     1       5.737  -5.248   3.727  0.00  0.00    +0.050 A 
ATOM     12  C   UNL     1       4.373  -5.760   3.925  0.00  0.00    +0.272 A 
ATOM     13  O   UNL     1       4.167  -6.726   4.637  0.00  0.00    -0.266 OA
ATOM     14  N   UNL     1       3.355  -5.134   3.300  0.00  0.00    -0.242 N 
ATOM     15  H   UNL     1       2.456  -5.474   3.433  0.00  0.00    +0.192 HD
ATOM     16  N   UNL     1       3.511  -4.112   2.545  0.00  0.00    -0.166 NA
ENDBRANCH   2   5
BRANCH   1  17
ATOM     17  C   UNL     1       3.711  -0.707  -0.038  0.00  0.00    +0.170 C 
BRANCH  17  21
ATOM     18  C   UNL     1      -0.017   1.378   0.010  0.00  0.00    +0.000 A 
ATOM     19  C   UNL     1       1.171   2.086   0.002  0.00  0.00    +0.000 A 
ATOM     20  C   UNL     1       2.377   1.411  -0.013  0.00  0.00    +0.006 A 
ATOM     21  C   UNL     1       2.396   0.029  -0.020  0.00  0.00    -0.020 A 
ATOM     22  C   UNL     1       1.208  -0.679  -0.012  0.00  0.00    +0.006 A 
ATOM     23  C   UNL     1       0.002  -0.004   0.002  0.00  0.00    +0.000 A 
ENDBRANCH  17  21
BRANCH  17  24
ATOM     24  C   UNL     1       4.014  -1.161  -1.442  0.00  0.00    +0.129 A 
ATOM     25  C   UNL     1       4.853  -0.554  -2.301  0.00  0.00    +0.047 A 
ATOM     26  C   UNL     1       4.836  -1.311  -3.495  0.00  0.00    +0.041 A 
ATOM     27  C   UNL     1       3.988  -2.336  -3.294  0.00  0.00    +0.195 A 
ATOM     28  O   UNL     1       3.497  -2.243  -2.047  0.00  0.00    -0.466 OA
ENDBRANCH  17  24
ENDBRANCH   1  17
TORSDOF 4
