REMARK  Name = ZINC51147712
REMARK  4 active torsions:
REMARK  status: ('A' for Active; 'I' for Inactive)
REMARK    1  A    between atoms: N_8  and  C_12
REMARK    2  A    between atoms: C_12  and  C_13
REMARK    3  A    between atoms: C_14  and  N_18
REMARK    4  A    between atoms: N_18  and  N_19
REMARK                            x       y       z     vdW  Elec       q    Type
REMARK                         _______ _______ _______ _____ _____    ______ ____
ROOT
ATOM      1  C   UNL     1      -0.019   1.537   0.011  0.00  0.00    +0.003 C 
ATOM      2  C   UNL     1       1.454   1.997  -0.001  0.00  0.00    +0.003 C 
ATOM      3  C   UNL     1       2.238   0.792   0.582  0.00  0.00    +0.035 C 
ATOM      4  C   UNL     1       1.478  -0.414   0.006  0.00  0.00    +0.113 C 
ATOM      5  C   UNL     1       0.002  -0.004   0.002  0.00  0.00    +0.035 C 
ATOM      6  C   UNL     1       1.710  -1.653   0.828  0.00  0.00    +0.247 C 
ATOM      7  O   UNL     1       1.462  -1.815   2.003  0.00  0.00    -0.273 OA
ATOM      8  N   UNL     1       2.257  -2.546  -0.027  0.00  0.00    -0.218 N 
ATOM      9  C   UNL     1       2.392  -2.032  -1.256  0.00  0.00    +0.310 C 
ATOM     10  O   UNL     1       2.859  -2.643  -2.198  0.00  0.00    -0.252 OA
ATOM     11  N   UNL     1       1.952  -0.759  -1.332  0.00  0.00    -0.285 N 
ATOM     12  H   UNL     1       1.950  -0.188  -2.117  0.00  0.00    +0.151 HD
ENDROOT
BRANCH   8  13
ATOM     13  C   UNL     1       2.652  -3.907   0.345  0.00  0.00    +0.177 C 
BRANCH  13  14
ATOM     14  C   UNL     1       1.490  -4.843   0.134  0.00  0.00    +0.112 A 
ATOM     15  C   UNL     1       0.577  -5.092   1.119  0.00  0.00    +0.124 A 
ATOM     16  S   UNL     1      -0.466  -6.171   0.362  0.00  0.00    +0.053 S 
ATOM     17  N   UNL     1       0.286  -6.255  -1.132  0.00  0.00    -0.108 NA
ATOM     18  N   UNL     1       1.295  -5.460  -1.010  0.00  0.00    -0.143 NA
BRANCH  15  19
ATOM     19  N   UNL     1       0.524  -4.583   2.414  0.00  0.00    -0.274 N 
ATOM     20  H   UNL     1       1.202  -3.961   2.719  0.00  0.00    +0.167 HD
BRANCH  19  21
ATOM     21  N   UNL     1      -0.484  -4.962   3.256  0.00  0.00    -0.256 NA
ATOM     22  H   UNL     1      -0.516  -5.965   3.353  0.00  0.00    +0.140 HD
ATOM     23  H   UNL     1      -0.391  -4.514   4.155  0.00  0.00    +0.140 HD
ENDBRANCH  19  21
ENDBRANCH  15  19
ENDBRANCH  13  14
ENDBRANCH   8  13
TORSDOF 4
