REMARK  Name = ZINC67584646
REMARK  9 active torsions:
REMARK  status: ('A' for Active; 'I' for Inactive)
REMARK    1  A    between atoms: C_1  and  C_2
REMARK    2  A    between atoms: C_2  and  C_3
REMARK    3  A    between atoms: C_3  and  C_4
REMARK    4  A    between atoms: N_6  and  C_7
REMARK    5  A    between atoms: C_11  and  N_14
REMARK    6  A    between atoms: C_12  and  C_13
REMARK    7  A    between atoms: N_17  and  C_18
REMARK    8  A    between atoms: C_18  and  C_20
REMARK    9  A    between atoms: C_18  and  C_21
REMARK                            x       y       z     vdW  Elec       q    Type
REMARK                         _______ _______ _______ _____ _____    ______ ____
ROOT
ATOM      1  N   UNL     1       2.224  -6.943   4.349  0.00  0.00    -0.269 N 
ATOM      2  C   UNL     1       2.790  -8.145   4.123  0.00  0.00    +0.304 C 
ATOM      3  O   UNL     1       2.769  -8.627   3.006  0.00  0.00    -0.252 OA
ATOM      4  N   UNL     1       3.379  -8.814   5.134  0.00  0.00    -0.290 N 
ATOM      5  H   UNL     1       2.179  -6.590   5.252  0.00  0.00    +0.156 HD
ATOM      6  H   UNL     1       3.396  -8.430   6.025  0.00  0.00    +0.151 HD
ENDROOT
BRANCH   1  11
ATOM      7  C   UNL     1       1.266  -4.090   2.230  0.00  0.00    +0.038 A 
ATOM      8  C   UNL     1       0.662  -4.748   1.165  0.00  0.00    +0.024 A 
ATOM      9  C   UNL     1       0.579  -6.127   1.161  0.00  0.00    +0.004 A 
ATOM     10  C   UNL     1       1.097  -6.856   2.215  0.00  0.00    +0.024 A 
ATOM     11  C   UNL     1       1.701  -6.204   3.282  0.00  0.00    +0.039 A 
ATOM     12  C   UNL     1       1.791  -4.819   3.286  0.00  0.00    -0.008 A 
ATOM     13  C   UNL     1       2.452  -4.109   4.439  0.00  0.00    +0.047 C 
BRANCH   7  16
ATOM     14  C   UNL     1       1.327  -2.014   1.069  0.00  0.00    +0.217 C 
ATOM     15  O   UNL     1       1.336  -2.615   0.016  0.00  0.00    -0.275 OA
ATOM     16  N   UNL     1       1.349  -2.693   2.233  0.00  0.00    -0.285 N 
ATOM     17  H   UNL     1       1.423  -2.214   3.073  0.00  0.00    +0.155 HD
BRANCH  14  18
ATOM     18  C   UNL     1       1.290  -0.507   1.077  0.00  0.00    +0.096 C 
BRANCH  18  20
ATOM     19  C   UNL     1       1.232   1.539  -0.356  0.00  0.00    +0.004 C 
ATOM     20  C   UNL     1       1.270   0.009  -0.363  0.00  0.00    +0.006 C 
ENDBRANCH  18  20
ENDBRANCH  14  18
ENDBRANCH   7  16
ENDBRANCH   1  11
BRANCH   4  21
ATOM     21  C   UNL     1       3.994 -10.121   4.888  0.00  0.00    +0.137 C 
ATOM     22  C   UNL     1       2.926 -11.213   4.983  0.00  0.00    +0.036 C 
BRANCH  21  23
ATOM     23  C   UNL     1       5.064 -10.374   5.918  0.00  0.00    +0.126 A 
ATOM     24  C   UNL     1       6.252 -10.940   5.667  0.00  0.00    +0.055 A 
ATOM     25  C   UNL     1       6.963 -10.986   6.950  0.00  0.00    +0.020 A 
ATOM     26  C   UNL     1       8.216 -11.446   7.355  0.00  0.00    +0.011 A 
ATOM     27  C   UNL     1       8.586 -11.338   8.667  0.00  0.00    +0.001 A 
ATOM     28  C   UNL     1       7.723 -10.775   9.596  0.00  0.00    +0.004 A 
ATOM     29  C   UNL     1       6.481 -10.315   9.214  0.00  0.00    +0.047 A 
ATOM     30  C   UNL     1       6.086 -10.414   7.886  0.00  0.00    +0.135 A 
ATOM     31  O   UNL     1       4.967 -10.060   7.222  0.00  0.00    -0.458 OA
ENDBRANCH  21  23
ENDBRANCH   4  21
TORSDOF 6
