REMARK  Name = ZINC14478694
REMARK  8 active torsions:
REMARK  status: ('A' for Active; 'I' for Inactive)
REMARK    1  A    between atoms: C_1  and  C_2
REMARK    2  A    between atoms: C_7  and  C_8
REMARK    3  A    between atoms: C_19  and  S_24
REMARK    4  A    between atoms: S_24  and  N_27
REMARK    5  A    between atoms: N_27  and  C_28
REMARK    6  A    between atoms: C_28  and  C_29
REMARK    7  A    between atoms: C_28  and  C_30
REMARK    8  A    between atoms: C_28  and  C_31
REMARK                            x       y       z     vdW  Elec       q    Type
REMARK                         _______ _______ _______ _____ _____    ______ ____
ROOT
ATOM      1  C   UNL     1      -1.694   1.779  -1.775  0.00  0.00    +0.105 C 
ATOM      2  C   UNL     1      -0.976   2.547  -0.662  0.00  0.00    +0.029 C 
ATOM      3  C   UNL     1       0.550   2.483  -0.964  0.00  0.00    +0.033 C 
ATOM      4  C   UNL     1       0.960   1.130  -0.414  0.00  0.00    -0.030 C 
ATOM      5  C   UNL     1       0.095   0.717   0.480  0.00  0.00    -0.023 C 
ATOM      6  C   UNL     1      -1.011   1.732   0.646  0.00  0.00    +0.049 C 
ATOM      7  C   UNL     1      -2.330   1.070   0.885  0.00  0.00    -0.018 A 
ATOM      8  C   UNL     1      -2.583   0.522   2.135  0.00  0.00    +0.034 A 
ATOM      9  C   UNL     1      -3.789  -0.095   2.399  0.00  0.00    +0.106 A 
ATOM     10  C   UNL     1      -4.762  -0.173   1.420  0.00  0.00    +0.030 A 
ATOM     11  C   UNL     1      -4.522   0.368   0.173  0.00  0.00    +0.025 A 
ATOM     12  C   UNL     1      -3.308   0.988  -0.094  0.00  0.00    +0.031 A 
ATOM     13  N   UNL     1      -3.079   1.530  -1.363  0.00  0.00    -0.336 N 
ATOM     14  H   UNL     1      -3.818   1.736  -1.957  0.00  0.00    +0.147 HD
ENDROOT
BRANCH   1  21
ATOM     15  C   UNL     1       0.201   1.522  -3.941  0.00  0.00    +0.044 C 
ATOM     16  C   UNL     1      -0.088   0.342  -3.049  0.00  0.00    -0.045 A 
ATOM     17  C   UNL     1       0.554  -0.863  -3.268  0.00  0.00    +0.004 A 
ATOM     18  C   UNL     1       0.288  -1.945  -2.450  0.00  0.00    +0.000 A 
ATOM     19  C   UNL     1      -0.619  -1.822  -1.414  0.00  0.00    +0.000 A 
ATOM     20  C   UNL     1      -1.264  -0.619  -1.199  0.00  0.00    +0.006 A 
ATOM     21  C   UNL     1      -0.995   0.465  -2.013  0.00  0.00    -0.024 A 
ENDBRANCH   1  21
BRANCH   9  22
ATOM     22  S   UNL     1      -4.091  -0.786   3.992  0.00  0.00    +0.059 S 
ATOM     23  O   UNL     1      -3.469   0.078   4.934  0.00  0.00    -0.153 OA
ATOM     24  O   UNL     1      -5.476  -1.098   4.044  0.00  0.00    -0.153 OA
BRANCH  22  25
ATOM     25  N   UNL     1      -3.278  -2.227   4.063  0.00  0.00    -0.185 NA
ATOM     26  H   UNL     1      -2.525  -2.330   4.665  0.00  0.00    +0.149 HD
BRANCH  25  27
ATOM     27  C   UNL     1      -3.696  -3.346   3.215  0.00  0.00    +0.032 C 
ATOM     28  C   UNL     1      -3.753  -2.888   1.756  0.00  0.00    +0.029 C 
ATOM     29  C   UNL     1      -2.691  -4.492   3.351  0.00  0.00    +0.029 C 
ATOM     30  C   UNL     1      -5.081  -3.828   3.653  0.00  0.00    +0.029 C 
ENDBRANCH  25  27
ENDBRANCH  22  25
ENDBRANCH   9  22
TORSDOF 4
