REMARK  Name = ZINC16210885
REMARK  8 active torsions:
REMARK  status: ('A' for Active; 'I' for Inactive)
REMARK    1  A    between atoms: C_1  and  C_2
REMARK    2  A    between atoms: C_5  and  C_8
REMARK    3  A    between atoms: C_11  and  C_13
REMARK    4  A    between atoms: C_13  and  C_15
REMARK    5  A    between atoms: C_13  and  O_16
REMARK    6  A    between atoms: O_16  and  C_17
REMARK    7  A    between atoms: C_17  and  C_19
REMARK    8  A    between atoms: C_24  and  N_25
REMARK                            x       y       z     vdW  Elec       q    Type
REMARK                         _______ _______ _______ _____ _____    ______ ____
ROOT
ATOM      1  C   UNL     1      -4.698   5.187   0.221  0.00  0.00    +0.261 C 
ATOM      2  C   UNL     1      -4.993   5.594   1.666  0.00  0.00    +0.062 C 
ENDROOT
BRANCH   1   6
ATOM      3  C   UNL     1      -7.693   4.104  -1.508  0.00  0.00    +0.249 A 
ATOM      4  N   UNL     1      -7.382   3.051  -0.789  0.00  0.00    -0.107 NA
ATOM      5  N   UNL     1      -6.315   3.299  -0.114  0.00  0.00    -0.108 NA
ATOM      6  C   UNL     1      -5.910   4.511  -0.368  0.00  0.00    +0.258 A 
ATOM      7  O   UNL     1      -6.765   5.049  -1.255  0.00  0.00    -0.416 OA
BRANCH   3  12
ATOM      8  C   UNL     1     -12.179   4.597  -5.078  0.00  0.00    +0.044 C 
ATOM      9  C   UNL     1     -11.004   4.468  -4.144  0.00  0.00    -0.050 A 
ATOM     10  C   UNL     1     -10.803   3.289  -3.448  0.00  0.00    +0.004 A 
ATOM     11  C   UNL     1      -9.730   3.164  -2.591  0.00  0.00    +0.013 A 
ATOM     12  C   UNL     1      -8.845   4.231  -2.426  0.00  0.00    +0.038 A 
ATOM     13  C   UNL     1      -9.056   5.419  -3.126  0.00  0.00    +0.013 A 
ATOM     14  C   UNL     1     -10.131   5.529  -3.985  0.00  0.00    +0.004 A 
ENDBRANCH   3  12
ENDBRANCH   1   6
BRANCH   1  15
ATOM     15  O   UNL     1      -3.573   4.269   0.197  0.00  0.00    -0.448 OA
BRANCH  15  16
ATOM     16  C   UNL     1      -2.345   4.810   0.080  0.00  0.00    +0.342 C 
ATOM     17  O   UNL     1      -2.217   6.016  -0.000  0.00  0.00    -0.245 OA
BRANCH  16  18
ATOM     18  C   UNL     1      -1.157   3.940   0.049  0.00  0.00    +0.082 A 
ATOM     19  C   UNL     1      -1.303   2.550   0.016  0.00  0.00    +0.037 A 
ATOM     20  C   UNL     1      -0.188   1.741  -0.007  0.00  0.00    +0.043 A 
ATOM     21  C   UNL     1       1.082   2.299  -0.010  0.00  0.00    +0.042 A 
ATOM     22  C   UNL     1       1.244   3.669   0.015  0.00  0.00    +0.064 A 
ATOM     23  C   UNL     1       0.130   4.501   0.045  0.00  0.00    +0.057 A 
ATOM     24 CL   UNL     1       2.838   4.355   0.010  0.00  0.00    -0.082 Cl
ATOM     25 CL   UNL     1      -0.373   0.015  -0.040  0.00  0.00    -0.083 Cl
BRANCH  23  26
ATOM     26  N   UNL     1       0.290   5.881   0.071  0.00  0.00    -0.356 N 
ATOM     27  H   UNL     1       1.177   6.266   0.152  0.00  0.00    +0.142 HD
ATOM     28  H   UNL     1      -0.486   6.461   0.009  0.00  0.00    +0.142 HD
ENDBRANCH  23  26
ENDBRANCH  16  18
ENDBRANCH  15  16
ENDBRANCH   1  15
TORSDOF 6
