REMARK  Name = ZINC23939937
REMARK  7 active torsions:
REMARK  status: ('A' for Active; 'I' for Inactive)
REMARK    1  A    between atoms: C_1  and  N_2
REMARK    2  A    between atoms: C_6  and  C_8
REMARK    3  A    between atoms: C_8  and  C_10
REMARK    4  A    between atoms: C_8  and  S_16
REMARK    5  A    between atoms: S_16  and  C_17
REMARK    6  A    between atoms: C_20  and  C_23
REMARK    7  A    between atoms: N_21  and  N_22
REMARK                            x       y       z     vdW  Elec       q    Type
REMARK                         _______ _______ _______ _____ _____    ______ ____
ROOT
ATOM      1  C   UNL     1       3.981   2.692  -0.021  0.00  0.00    +0.170 C 
ENDROOT
BRANCH   1   7
ATOM      2  C   UNL     1       8.896   6.093   1.338  0.00  0.00    +0.129 C 
ATOM      3  N   UNL     1       7.476   5.746   1.229  0.00  0.00    -0.302 N 
ATOM      4  C   UNL     1       7.111   4.557   0.710  0.00  0.00    +0.306 C 
ATOM      5  O   UNL     1       7.959   3.773   0.333  0.00  0.00    -0.252 OA
ATOM      6  N   UNL     1       5.806   4.238   0.610  0.00  0.00    -0.239 N 
ATOM      7  C   UNL     1       5.441   3.049   0.091  0.00  0.00    +0.238 C 
ATOM      8  O   UNL     1       6.287   2.267  -0.285  0.00  0.00    -0.274 OA
ATOM      9  H   UNL     1       6.709   6.456   1.571  0.00  0.00    +0.150 HD
ATOM     10  H   UNL     1       5.038   4.948   0.951  0.00  0.00    +0.159 HD
ENDBRANCH   1   7
BRANCH   1  11
ATOM     11  C   UNL     1       3.422   3.259  -1.301  0.00  0.00    -0.025 A 
ATOM     12  C   UNL     1       3.958   2.879  -2.517  0.00  0.00    +0.005 A 
ATOM     13  C   UNL     1       3.442   3.396  -3.691  0.00  0.00    +0.000 A 
ATOM     14  C   UNL     1       2.397   4.299  -3.649  0.00  0.00    +0.000 A 
ATOM     15  C   UNL     1       1.865   4.683  -2.432  0.00  0.00    +0.000 A 
ATOM     16  C   UNL     1       2.377   4.163  -1.258  0.00  0.00    +0.005 A 
ENDBRANCH   1  11
BRANCH   1  17
ATOM     17  S   UNL     1       3.799   0.891  -0.029  0.00  0.00    -0.067 S 
BRANCH  17  18
ATOM     18  C   UNL     1       2.042   0.761  -0.013  0.00  0.00    +0.210 A 
ATOM     19  N   UNL     1       1.185   1.756   0.000  0.00  0.00    -0.121 NA
ATOM     20  N   UNL     1      -0.016   1.299   0.009  0.00  0.00    -0.123 NA
ATOM     21  C   UNL     1       0.002  -0.004   0.002  0.00  0.00    +0.255 A 
ATOM     22  N   UNL     1       1.313  -0.393  -0.013  0.00  0.00    -0.220 N 
BRANCH  21  23
ATOM     23  C   UNL     1      -1.200  -0.913   0.008  0.00  0.00    +0.454 C 
ATOM     24  F   UNL     1      -2.343  -0.177  -0.319  0.00  0.00    -0.163 F 
ATOM     25  F   UNL     1      -1.017  -1.933  -0.932  0.00  0.00    -0.163 F 
ATOM     26  F   UNL     1      -1.354  -1.474   1.280  0.00  0.00    -0.163 F 
ENDBRANCH  21  23
BRANCH  22  27
ATOM     27  N   UNL     1       1.794  -1.672  -0.024  0.00  0.00    -0.295 N 
ATOM     28  H   UNL     1       1.095  -2.522  -0.022  0.00  0.00    +0.163 HD
ATOM     29  H   UNL     1       2.879  -1.852  -0.035  0.00  0.00    +0.163 HD
ENDBRANCH  22  27
ENDBRANCH  17  18
ENDBRANCH   1  17
TORSDOF 6
