REMARK  Name = ZINC23606924
REMARK  6 active torsions:
REMARK  status: ('A' for Active; 'I' for Inactive)
REMARK    1  A    between atoms: C_1  and  C_2
REMARK    2  A    between atoms: C_2  and  C_4
REMARK    3  A    between atoms: C_7  and  N_11
REMARK    4  A    between atoms: N_14  and  C_17
REMARK    5  A    between atoms: C_17  and  N_18
REMARK    6  A    between atoms: C_25  and  N_29
REMARK                            x       y       z     vdW  Elec       q    Type
REMARK                         _______ _______ _______ _____ _____    ______ ____
ROOT
ATOM      1  N   UNL     1       1.137  -2.567  -0.494  0.00  0.00    -0.325 N 
ATOM      2  C   UNL     1       0.053  -2.051  -1.341  0.00  0.00    +0.120 C 
ATOM      3  C   UNL     1       0.116  -0.522  -1.369  0.00  0.00    +0.105 C 
ATOM      4  N   UNL     1       0.002  -0.004   0.002  0.00  0.00    -0.283 NA
ATOM      5  C   UNL     1       1.087  -0.521   0.849  0.00  0.00    +0.105 C 
ATOM      6  C   UNL     1       1.024  -2.050   0.877  0.00  0.00    +0.120 C 
ENDROOT
BRANCH   1  10
ATOM      7  C   UNL     1       1.187  -6.726  -0.515  0.00  0.00    +0.020 A 
ATOM      8  C   UNL     1       0.056  -6.035  -0.063  0.00  0.00    +0.013 A 
ATOM      9  C   UNL     1       0.045  -4.669  -0.058  0.00  0.00    +0.027 A 
ATOM     10  C   UNL     1       1.156  -3.958  -0.502  0.00  0.00    +0.065 A 
ATOM     11  C   UNL     1       2.287  -4.635  -0.959  0.00  0.00    +0.145 A 
ATOM     12  C   UNL     1       2.308  -6.012  -0.961  0.00  0.00    +0.051 A 
ATOM     13  F   UNL     1       3.361  -3.942  -1.393  0.00  0.00    -0.204 F 
BRANCH   7  15
ATOM     14  C   UNL     1       2.418  -8.935  -1.006  0.00  0.00    +0.091 C 
ATOM     15  C   UNL     1       1.200  -8.193  -0.520  0.00  0.00    +0.160 C 
ATOM     16  O   UNL     1       0.229  -8.809  -0.133  0.00  0.00    -0.292 OA
ENDBRANCH   7  15
ENDBRANCH   1  10
BRANCH   4  17
ATOM     17  C   UNL     1      -0.018   1.465   0.010  0.00  0.00    +0.204 C 
BRANCH  17  18
ATOM     18  N   UNL     1      -0.704   1.937   1.215  0.00  0.00    -0.220 N 
ATOM     19  C   UNL     1      -0.094   2.193   2.387  0.00  0.00    +0.255 C 
ATOM     20  O   UNL     1       1.094   2.071   2.611  0.00  0.00    -0.269 OA
ATOM     21  C   UNL     1      -1.113   2.648   3.356  0.00  0.00    +0.051 A 
ATOM     22  C   UNL     1      -1.078   3.044   4.682  0.00  0.00    +0.014 A 
ATOM     23  C   UNL     1      -2.249   3.425   5.322  0.00  0.00    +0.003 A 
ATOM     24  C   UNL     1      -3.452   3.414   4.650  0.00  0.00    +0.023 A 
ATOM     25  C   UNL     1      -3.510   3.019   3.312  0.00  0.00    +0.038 A 
ATOM     26  C   UNL     1      -2.340   2.634   2.659  0.00  0.00    +0.070 A 
ATOM     27  C   UNL     1      -2.025   2.178   1.295  0.00  0.00    +0.257 C 
ATOM     28  O   UNL     1      -2.825   2.039   0.391  0.00  0.00    -0.269 OA
BRANCH  25  29
ATOM     29  N   UNL     1      -4.722   3.009   2.637  0.00  0.00    -0.357 N 
ATOM     30  H   UNL     1      -4.762   2.696   1.583  0.00  0.00    +0.142 HD
ATOM     31  H   UNL     1      -5.643   3.314   3.156  0.00  0.00    +0.142 HD
ENDBRANCH  25  29
ENDBRANCH  17  18
ENDBRANCH   4  17
TORSDOF 5
