REMARK  Name = ZINC65455877
REMARK  9 active torsions:
REMARK  status: ('A' for Active; 'I' for Inactive)
REMARK    1  A    between atoms: C_1  and  C_2
REMARK    2  A    between atoms: C_2  and  N_3
REMARK    3  A    between atoms: C_10  and  C_21
REMARK    4  A    between atoms: C_10  and  C_29
REMARK    5  A    between atoms: C_12  and  C_14
REMARK    6  A    between atoms: C_19  and  C_20
REMARK    7  A    between atoms: C_21  and  C_22
REMARK    8  A    between atoms: C_25  and  O_28
REMARK    9  A    between atoms: C_29  and  O_30
REMARK                            x       y       z     vdW  Elec       q    Type
REMARK                         _______ _______ _______ _____ _____    ______ ____
ROOT
ATOM      1  N   UNL     1      -1.225  -0.659  -0.005  0.00  0.00    +0.380 N 
ATOM      2  C   UNL     1      -1.928  -0.322  -1.269  0.00  0.00    -0.073 C 
ATOM      3  C   UNL     1      -3.122  -1.298  -1.326  0.00  0.00    -0.003 C 
ATOM      4  C   UNL     1      -2.693  -2.503  -0.446  0.00  0.00    -0.002 C 
ATOM      5  C   UNL     1      -1.281  -2.142   0.059  0.00  0.00    -0.073 C 
ATOM      6  C   UNL     1      -2.596  -3.692  -1.425  0.00  0.00    +0.048 C 
ATOM      7  N   UNL     1      -2.365  -3.070  -2.753  0.00  0.00    -0.301 NA
ATOM      8  C   UNL     1      -3.239  -1.858  -2.759  0.00  0.00    +0.086 C 
ATOM      9  H   UNL     1      -1.397  -2.809  -2.866  0.00  0.00    +0.123 HD
ATOM     10  H   UNL     1      -1.703  -0.254   0.786  0.00  0.00    -0.082 HD
ENDROOT
BRANCH   8  11
ATOM     11  C   UNL     1      -2.761  -0.839  -3.761  0.00  0.00    -0.027 A 
ATOM     12  C   UNL     1      -1.499  -0.952  -4.314  0.00  0.00    +0.005 A 
ATOM     13  C   UNL     1      -1.062  -0.018  -5.234  0.00  0.00    +0.000 A 
ATOM     14  C   UNL     1      -1.886   1.030  -5.601  0.00  0.00    +0.000 A 
ATOM     15  C   UNL     1      -3.148   1.142  -5.049  0.00  0.00    +0.003 A 
ATOM     16  C   UNL     1      -3.587   0.205  -4.132  0.00  0.00    -0.046 A 
ATOM     17  C   UNL     1      -4.965   0.325  -3.534  0.00  0.00    +0.044 C 
ENDBRANCH   8  11
BRANCH   1  19
ATOM     18  C   UNL     1       0.204   1.330   0.007  0.00  0.00    -0.017 C 
ATOM     19  C   UNL     1       0.169  -0.199  -0.053  0.00  0.00    -0.082 C 
ENDBRANCH   1  19
BRANCH   6  20
ATOM     20  C   UNL     1      -3.904  -4.487  -1.429  0.00  0.00    +0.059 C 
BRANCH  20  21
ATOM     21  C   UNL     1      -3.787  -5.642  -2.389  0.00  0.00    -0.045 A 
ATOM     22  C   UNL     1      -4.147  -5.476  -3.714  0.00  0.00    +0.007 A 
ATOM     23  C   UNL     1      -4.041  -6.534  -4.597  0.00  0.00    +0.045 A 
ATOM     24  C   UNL     1      -3.573  -7.762  -4.154  0.00  0.00    +0.117 A 
ATOM     25  C   UNL     1      -3.213  -7.925  -2.824  0.00  0.00    +0.045 A 
ATOM     26  C   UNL     1      -3.315  -6.864  -1.946  0.00  0.00    +0.007 A 
BRANCH  24  27
ATOM     27  O   UNL     1      -3.469  -8.804  -5.020  0.00  0.00    -0.507 OA
ATOM     28  H   UNL     1      -2.612  -8.861  -5.465  0.00  0.00    +0.292 HD
ENDBRANCH  24  27
ENDBRANCH  20  21
ENDBRANCH   6  20
BRANCH   6  29
ATOM     29  C   UNL     1      -1.422  -4.598  -1.048  0.00  0.00    +0.178 C 
BRANCH  29  30
ATOM     30  O   UNL     1      -1.544  -4.993   0.320  0.00  0.00    -0.393 OA
ATOM     31  H   UNL     1      -0.832  -5.570   0.627  0.00  0.00    +0.209 HD
ENDBRANCH  29  30
ENDBRANCH   6  29
TORSDOF 7
