REMARK  Name = ZINC39443270
REMARK  2 active torsions:
REMARK  status: ('A' for Active; 'I' for Inactive)
REMARK    1  A    between atoms: C_10  and  C_15
REMARK    2  A    between atoms: C_18  and  C_21
REMARK                            x       y       z     vdW  Elec       q    Type
REMARK                         _______ _______ _______ _____ _____    ______ ____
ROOT
ATOM      1  C   UNL     1      -0.017   1.381   0.010  0.00  0.00    +0.001 A 
ATOM      2  C   UNL     1       1.171   2.091   0.002  0.00  0.00    +0.002 A 
ATOM      3  C   UNL     1       2.380   1.429  -0.017  0.00  0.00    +0.028 A 
ATOM      4  C   UNL     1       2.411   0.032  -0.027  0.00  0.00    +0.072 A 
ATOM      5  C   UNL     1       1.202  -0.674  -0.012  0.00  0.00    +0.018 A 
ATOM      6  C   UNL     1       0.002  -0.004   0.002  0.00  0.00    +0.009 A 
ATOM      7  C   UNL     1       1.260  -2.180  -0.001  0.00  0.00    +0.216 C 
ATOM      8  N   UNL     1       0.269  -2.762   0.910  0.00  0.00    -0.306 N 
ATOM      9  C   UNL     1       0.975  -3.554   1.801  0.00  0.00    +0.146 C 
ATOM     10  N   UNL     1       2.250  -3.429   1.654  0.00  0.00    -0.164 NA
ATOM     11  N   UNL     1       2.554  -2.510   0.646  0.00  0.00    -0.187 N 
ATOM     12  C   UNL     1       3.713  -1.884   0.297  0.00  0.00    +0.209 C 
ATOM     13  N   UNL     1       3.615  -0.622  -0.056  0.00  0.00    -0.238 NA
ATOM     14  H   UNL     1      -0.690  -2.621   0.892  0.00  0.00    +0.149 HD
ENDROOT
BRANCH   9  15
ATOM     15  C   UNL     1       0.328  -4.455   2.821  0.00  0.00    +0.217 C 
ATOM     16  C   UNL     1       0.267  -3.773   4.176  0.00  0.00    +0.039 C 
ATOM     17  C   UNL     1       1.008  -4.568   4.972  0.00  0.00    +0.092 C 
ATOM     18  N   UNL     1       1.495  -5.623   4.267  0.00  0.00    -0.153 NA
ATOM     19  N   UNL     1       1.166  -5.639   3.075  0.00  0.00    -0.172 NA
BRANCH  17  20
ATOM     20  C   UNL     1       1.257  -4.326   6.414  0.00  0.00    +0.006 A 
ATOM     21  C   UNL     1       0.703  -3.212   7.041  0.00  0.00    +0.014 A 
ATOM     22  C   UNL     1       0.935  -2.988   8.383  0.00  0.00    +0.050 A 
ATOM     23  C   UNL     1       1.719  -3.869   9.111  0.00  0.00    +0.166 A 
ATOM     24  C   UNL     1       2.276  -4.986   8.489  0.00  0.00    +0.167 A 
ATOM     25  C   UNL     1       2.042  -5.216   7.146  0.00  0.00    +0.059 A 
ATOM     26  O   UNL     1       2.997  -5.686   9.414  0.00  0.00    -0.453 OA
ATOM     27  C   UNL     1       3.213  -4.772  10.505  0.00  0.00    +0.466 C 
ATOM     28  O   UNL     1       2.092  -3.872  10.425  0.00  0.00    -0.453 OA
ENDBRANCH  17  20
ENDBRANCH   9  15
TORSDOF 2
