REMARK  Name = ZINC63646925
REMARK  5 active torsions:
REMARK  status: ('A' for Active; 'I' for Inactive)
REMARK    1  A    between atoms: C_1  and  C_2
REMARK    2  A    between atoms: C_11  and  C_13
REMARK    3  A    between atoms: C_13  and  S_14
REMARK    4  A    between atoms: S_14  and  C_15
REMARK    5  A    between atoms: C_18  and  C_21
REMARK                            x       y       z     vdW  Elec       q    Type
REMARK                         _______ _______ _______ _____ _____    ______ ____
ROOT
ATOM      1  C   UNL     1      -0.018   1.503   0.010  0.00  0.00    +0.061 C 
ATOM      2  C   UNL     1       0.002  -0.004   0.002  0.00  0.00    +0.020 C 
ATOM      3  C   UNL     1       0.005  -0.640  -1.165  0.00  0.00    +0.062 C 
ATOM      4  S   UNL     1       0.010  -2.366  -0.692  0.00  0.00    -0.089 S 
ATOM      5  C   UNL     1       0.425  -2.111   1.081  0.00  0.00    +0.230 C 
ATOM      6  N   UNL     1       0.023  -0.677   1.206  0.00  0.00    -0.243 N 
ATOM      7  C   UNL     1      -0.304  -0.175   2.426  0.00  0.00    +0.247 C 
ATOM      8  O   UNL     1      -0.319   1.026   2.627  0.00  0.00    -0.270 OA
ATOM      9  C   UNL     1      -0.628  -1.092   3.457  0.00  0.00    +0.087 C 
ATOM     10  C   UNL     1      -0.725  -2.412   3.195  0.00  0.00    +0.021 C 
ATOM     11  N   UNL     1      -0.495  -2.895   1.916  0.00  0.00    -0.319 N 
ATOM     12  H   UNL     1      -0.920  -3.700   1.581  0.00  0.00    +0.148 HD
ENDROOT
BRANCH  10  13
ATOM     13  C   UNL     1      -1.078  -3.377   4.298  0.00  0.00    +0.128 C 
BRANCH  13  14
ATOM     14  S   UNL     1      -2.800  -3.913   4.104  0.00  0.00    -0.081 S 
BRANCH  14  15
ATOM     15  C   UNL     1      -3.056  -5.021   5.450  0.00  0.00    +0.185 A 
ATOM     16  H   UNL     1      -5.035  -5.633   5.239  0.00  0.00    +0.191 HD
ATOM     17  N   UNL     1      -2.166  -5.351   6.362  0.00  0.00    -0.206 NA
ATOM     18  C   UNL     1      -2.706  -6.211   7.226  0.00  0.00    +0.149 A 
ATOM     19  N   UNL     1      -3.944  -6.444   6.882  0.00  0.00    -0.157 NA
ATOM     20  N   UNL     1      -4.202  -5.678   5.733  0.00  0.00    -0.254 N 
ATOM     21  C   UNL     1      -2.000  -6.819   8.411  0.00  0.00    +0.090 C 
ENDBRANCH  14  15
ENDBRANCH  13  14
ENDBRANCH  10  13
TORSDOF 3
