REMARK  Name = ZINC62208533
REMARK  2 active torsions:
REMARK  status: ('A' for Active; 'I' for Inactive)
REMARK    1  A    between atoms: C_1  and  C_2
REMARK    2  A    between atoms: C_11  and  C_14
REMARK                            x       y       z     vdW  Elec       q    Type
REMARK                         _______ _______ _______ _____ _____    ______ ____
ROOT
ATOM      1  C   UNL     1      -0.018   1.503   0.010  0.00  0.00    +0.066 C 
ATOM      2  C   UNL     1       0.002  -0.004   0.002  0.00  0.00    +0.047 A 
ATOM      3  C   UNL     1      -0.099  -0.701  -1.200  0.00  0.00    -0.005 A 
ATOM      4  C   UNL     1      -0.089  -2.074  -1.163  0.00  0.00    +0.050 A 
ATOM      5  N   UNL     1       0.044  -2.689   0.009  0.00  0.00    -0.219 NA
ATOM      6  C   UNL     1       0.142  -1.999   1.133  0.00  0.00    +0.218 A 
ATOM      7  N   UNL     1       0.121  -0.674   1.133  0.00  0.00    -0.219 NA
ATOM      8  N   UNL     1       0.276  -2.675   2.333  0.00  0.00    -0.300 N 
ATOM      9  C   UNL     1       0.315  -4.144   2.365  0.00  0.00    +0.109 C 
ATOM     10  C   UNL     1       1.572  -4.587   3.119  0.00  0.00    +0.034 C 
ATOM     11  C   UNL     1       1.593  -3.928   4.500  0.00  0.00    +0.105 C 
ATOM     12  C   UNL     1       1.638  -2.407   4.340  0.00  0.00    +0.034 C 
ATOM     13  C   UNL     1       0.387  -1.938   3.599  0.00  0.00    +0.109 C 
ATOM     14  C   UNL     1      -0.254  -2.925  -2.393  0.00  0.00    +0.056 C 
ATOM     15  C   UNL     1       0.718  -2.484  -3.492  0.00  0.00    +0.006 C 
ATOM     16  C   UNL     1      -0.003  -1.476  -4.381  0.00  0.00    +0.001 C 
ATOM     17  C   UNL     1      -0.984  -0.654  -3.543  0.00  0.00    +0.005 C 
ATOM     18  C   UNL     1      -0.198   0.101  -2.471  0.00  0.00    +0.039 C 
ENDROOT
BRANCH  11  19
ATOM     19  C   UNL     1       2.812  -4.389   5.257  0.00  0.00    +0.359 C 
ATOM     20  O   UNL     1       3.333  -3.654   6.079  0.00  0.00    -0.246 OA
ATOM     21  O   UNL     1       3.277  -5.497   5.049  0.00  0.00    -0.246 OA
ENDBRANCH  11  19
TORSDOF 1
