REMARK  Name = ZINC08710076
REMARK  5 active torsions:
REMARK  status: ('A' for Active; 'I' for Inactive)
REMARK    1  A    between atoms: C_8  and  C_11
REMARK    2  A    between atoms: C_11  and  C_12
REMARK    3  A    between atoms: C_12  and  N_14
REMARK    4  A    between atoms: N_15  and  C_16
REMARK    5  A    between atoms: C_16  and  C_18
REMARK                            x       y       z     vdW  Elec       q    Type
REMARK                         _______ _______ _______ _____ _____    ______ ____
ROOT
ATOM      1  N   UNL     1      -0.290   1.189   2.456  0.00  0.00    -0.088 NA
ATOM      2  N   UNL     1      -0.887   1.615   3.518  0.00  0.00    -0.086 NA
ENDROOT
BRANCH   1   3
ATOM      3  C   UNL     1      -0.784   1.484   1.248  0.00  0.00    +0.252 C 
ATOM      4  O   UNL     1      -1.794   2.152   1.151  0.00  0.00    -0.272 OA
BRANCH   3   5
ATOM      5  C   UNL     1      -0.087   0.987   0.008  0.00  0.00    +0.106 C 
BRANCH   5  13
ATOM      6  C   UNL     1      -0.953   2.958  -3.746  0.00  0.00    +0.007 C 
ATOM      7  C   UNL     1      -1.660   3.463  -2.487  0.00  0.00    -0.010 C 
ATOM      8  C   UNL     1      -3.086   2.912  -2.448  0.00  0.00    +0.007 C 
ATOM      9  C   UNL     1      -3.042   1.382  -2.429  0.00  0.00    -0.010 C 
ATOM     10  C   UNL     1      -2.335   0.878  -3.689  0.00  0.00    +0.007 C 
ATOM     11  C   UNL     1      -0.908   1.429  -3.728  0.00  0.00    -0.010 C 
ATOM     12  C   UNL     1      -0.144   0.955  -2.490  0.00  0.00    +0.011 C 
ATOM     13  C   UNL     1      -0.851   1.460  -1.231  0.00  0.00    -0.020 C 
ATOM     14  C   UNL     1      -0.896   2.989  -1.249  0.00  0.00    +0.011 C 
ATOM     15  C   UNL     1      -2.278   0.909  -1.191  0.00  0.00    +0.011 C 
ENDBRANCH   5  13
ENDBRANCH   3   5
ENDBRANCH   1   3
BRANCH   2  16
ATOM     16  C   UNL     1      -0.393   1.320   4.726  0.00  0.00    +0.279 C 
ATOM     17  O   UNL     1       0.716   0.586   4.833  0.00  0.00    -0.270 OA
BRANCH  16  18
ATOM     18  C   UNL     1      -1.043   1.784   5.885  0.00  0.00    +0.224 C 
ATOM     19  C   UNL     1      -0.606   1.373   7.164  0.00  0.00    +0.122 C 
ATOM     20  N   UNL     1      -1.245   1.831   8.260  0.00  0.00    -0.241 NA
ATOM     21  C   UNL     1      -2.312   2.691   8.135  0.00  0.00    +0.127 C 
ATOM     22  C   UNL     1      -2.738   3.088   6.929  0.00  0.00    +0.088 C 
ATOM     23  N   UNL     1      -2.110   2.650   5.787  0.00  0.00    -0.332 N 
ATOM     24  N   UNL     1       0.450   0.523   7.289  0.00  0.00    -0.345 N 
ATOM     25  H   UNL     1      -1.817   3.490   5.330  0.00  0.00    +0.147 HD
ATOM     26  H   UNL     1       0.957   0.261   6.505  0.00  0.00    +0.143 HD
ATOM     27  H   UNL     1       0.695   0.179   8.162  0.00  0.00    +0.143 HD
ENDBRANCH  16  18
ENDBRANCH   2  16
TORSDOF 5
