REMARK  Name = ZINC03595783
REMARK  6 active torsions:
REMARK  status: ('A' for Active; 'I' for Inactive)
REMARK    1  A    between atoms: C_1  and  C_2
REMARK    2  A    between atoms: C_5  and  N_9
REMARK    3  A    between atoms: C_7  and  C_8
REMARK    4  A    between atoms: C_10  and  C_12
REMARK    5  A    between atoms: C_12  and  N_13
REMARK    6  A    between atoms: C_21  and  C_23
REMARK                            x       y       z     vdW  Elec       q    Type
REMARK                         _______ _______ _______ _____ _____    ______ ____
ROOT
ATOM      1  N   UNL     1       2.387   1.023   0.343  0.00  0.00    -0.215 N 
ATOM      2  C   UNL     1       2.899   0.676   1.542  0.00  0.00    +0.247 C 
ATOM      3  O   UNL     1       2.541   1.066   2.633  0.00  0.00    -0.273 OA
ATOM      4  C   UNL     1       4.010  -0.303   1.240  0.00  0.00    +0.115 C 
ATOM      5  C   UNL     1       3.715  -1.660   1.868  0.00  0.00    +0.035 C 
ATOM      6  C   UNL     1       3.690  -1.525   3.393  0.00  0.00    +0.003 C 
ATOM      7  C   UNL     1       5.043  -1.001   3.880  0.00  0.00    +0.000 C 
ATOM      8  C   UNL     1       5.313   0.371   3.260  0.00  0.00    +0.006 C 
ATOM      9  C   UNL     1       5.345   0.243   1.734  0.00  0.00    +0.018 C 
ATOM     10  C   UNL     1       5.594   1.619   1.113  0.00  0.00    +0.010 C 
ATOM     11  N   UNL     1       4.007  -0.404  -0.226  0.00  0.00    -0.285 N 
ATOM     12  C   UNL     1       3.024   0.407  -0.661  0.00  0.00    +0.310 C 
ATOM     13  O   UNL     1       2.746   0.562  -1.834  0.00  0.00    -0.252 OA
ATOM     14  H   UNL     1       4.597  -0.947  -0.772  0.00  0.00    +0.151 HD
ENDROOT
BRANCH   1  15
ATOM     15  C   UNL     1       1.277   1.961   0.161  0.00  0.00    +0.214 C 
BRANCH  15  17
ATOM     16  N   UNL     1      -1.191   1.867   0.018  0.00  0.00    -0.284 N 
ATOM     17  C   UNL     1      -0.027   1.205   0.174  0.00  0.00    +0.235 C 
ATOM     18  O   UNL     1      -0.028   0.001   0.321  0.00  0.00    -0.274 OA
ATOM     19  H   UNL     1      -1.196   2.836  -0.023  0.00  0.00    +0.155 HD
BRANCH  16  24
ATOM     20  C   UNL     1      -6.057  -1.018  -0.402  0.00  0.00    +0.044 C 
ATOM     21  C   UNL     1      -4.765  -0.252  -0.291  0.00  0.00    -0.047 A 
ATOM     22  C   UNL     1      -3.597  -0.791  -0.799  0.00  0.00    +0.005 A 
ATOM     23  C   UNL     1      -2.412  -0.089  -0.704  0.00  0.00    +0.023 A 
ATOM     24  C   UNL     1      -2.391   1.155  -0.086  0.00  0.00    +0.034 A 
ATOM     25  C   UNL     1      -3.565   1.694   0.423  0.00  0.00    +0.027 A 
ATOM     26  C   UNL     1      -4.748   0.989   0.319  0.00  0.00    -0.046 A 
ATOM     27  C   UNL     1      -6.023   1.573   0.872  0.00  0.00    +0.044 C 
ENDBRANCH  16  24
ENDBRANCH  15  17
ENDBRANCH   1  15
TORSDOF 3
