REMARK  Name = ZINC00969383
REMARK  13 active torsions:
REMARK  status: ('A' for Active; 'I' for Inactive)
REMARK    1  A    between atoms: C_1  and  C_2
REMARK    2  A    between atoms: C_2  and  C_24
REMARK    3  A    between atoms: C_3  and  C_4
REMARK    4  A    between atoms: C_4  and  C_5
REMARK    5  A    between atoms: C_5  and  C_6
REMARK    6  A    between atoms: C_6  and  C_23
REMARK    7  A    between atoms: C_7  and  C_21
REMARK    8  A    between atoms: C_7  and  O_22
REMARK    9  A    between atoms: N_8  and  C_12
REMARK   10  A    between atoms: C_14  and  C_19
REMARK   11  A    between atoms: C_14  and  C_20
REMARK   12  A    between atoms: C_15  and  C_17
REMARK   13  A    between atoms: C_15  and  C_18
REMARK                            x       y       z     vdW  Elec       q    Type
REMARK                         _______ _______ _______ _____ _____    ______ ____
ROOT
ATOM      1  C   UNL     1      -0.524  -2.955   2.861  0.00  0.00    +0.158 C 
ATOM      2  C   UNL     1      -0.146  -3.681   4.166  0.00  0.00    +0.175 C 
ATOM      3  N   UNL     1       1.169  -4.274   3.865  0.00  0.00    -0.233 N 
ATOM      4  C   UNL     1       1.510  -3.959   2.608  0.00  0.00    +0.406 C 
ATOM      5  O   UNL     1       2.550  -4.319   2.093  0.00  0.00    -0.226 OA
ATOM      6  O   UNL     1       0.601  -3.212   1.972  0.00  0.00    -0.439 OA
ATOM      7  C   UNL     1      -1.169  -4.772   4.489  0.00  0.00    +0.068 C 
ATOM      8  C   UNL     1      -1.813  -3.537   2.277  0.00  0.00    +0.060 C 
ENDROOT
BRANCH   3   9
ATOM      9  C   UNL     1       1.974  -5.079   4.792  0.00  0.00    +0.080 C 
ATOM     10  C   UNL     1       3.329  -4.403   5.001  0.00  0.00    +0.010 C 
ATOM     11  C   UNL     1       4.196  -5.231   5.946  0.00  0.00    -0.072 C 
ATOM     12  C   UNL     1       3.066  -7.315   5.116  0.00  0.00    -0.072 C 
ATOM     13  C   UNL     1       2.211  -6.461   4.184  0.00  0.00    +0.010 C 
ATOM     14  C   UNL     1       2.213  -7.798   6.295  0.00  0.00    -0.010 C 
ATOM     15  C   UNL     1       3.507  -8.568   4.327  0.00  0.00    -0.010 C 
ATOM     16  C   UNL     1       3.695  -5.057   7.385  0.00  0.00    -0.010 C 
ATOM     17  C   UNL     1       5.628  -4.655   5.888  0.00  0.00    -0.010 C 
ATOM     18  N   UNL     1       4.322  -6.668   5.583  0.00  0.00    +0.386 N 
ATOM     19  H   UNL     1       4.653  -7.177   6.411  0.00  0.00    -0.084 HD
ATOM     20  H   UNL     1       5.018  -6.746   4.832  0.00  0.00    -0.084 HD
ENDBRANCH   3   9
BRANCH   2  21
ATOM     21  O   UNL     1      -0.044  -2.751   5.246  0.00  0.00    -0.368 OA
ATOM     22  H   UNL     1       0.192  -3.156   6.093  0.00  0.00    +0.212 HD
ENDBRANCH   2  21
BRANCH   1  23
ATOM     23  C   UNL     1      -0.679  -1.453   3.108  0.00  0.00    +0.056 C 
BRANCH  23  24
ATOM     24  C   UNL     1      -1.129  -0.767   1.817  0.00  0.00    +0.031 C 
BRANCH  24  27
ATOM     25  C   UNL     1       0.140   1.086   0.110  0.00  0.00    +0.038 C 
ATOM     26  C   UNL     1      -0.645   1.570   1.302  0.00  0.00    -0.080 C 
ATOM     27  C   UNL     1      -1.282   0.712   2.060  0.00  0.00    -0.028 C 
ATOM     28  C   UNL     1      -0.699   3.042   1.621  0.00  0.00    +0.038 C 
ENDBRANCH  24  27
ENDBRANCH  23  24
ENDBRANCH   1  23
TORSDOF 5
