REMARK  Name = ZINC59564752
REMARK  9 active torsions:
REMARK  status: ('A' for Active; 'I' for Inactive)
REMARK    1  A    between atoms: C_1  and  C_2
REMARK    2  A    between atoms: C_2  and  C_3
REMARK    3  A    between atoms: C_3  and  C_29
REMARK    4  A    between atoms: N_5  and  C_23
REMARK    5  A    between atoms: C_6  and  S_8
REMARK    6  A    between atoms: S_8  and  C_9
REMARK    7  A    between atoms: C_9  and  C_10
REMARK    8  A    between atoms: N_12  and  C_13
REMARK    9  A    between atoms: C_14  and  C_22
REMARK                            x       y       z     vdW  Elec       q    Type
REMARK                         _______ _______ _______ _____ _____    ______ ____
ROOT
ATOM      1  C   UNL     1      -1.240  -0.521  -0.147  0.00  0.00    +0.104 C 
ATOM      2  N   UNL     1      -1.095  -1.987  -0.242  0.00  0.00    -0.209 NA
ATOM      3  N   UNL     1      -2.073  -2.398  -1.105  0.00  0.00    -0.213 N 
ATOM      4  C   UNL     1      -2.798  -1.321  -1.543  0.00  0.00    +0.151 C 
ATOM      5  N   UNL     1      -2.373  -0.205  -1.031  0.00  0.00    -0.348 N 
ATOM      6  C   UNL     1      -1.553  -0.104   1.291  0.00  0.00    +0.053 C 
ATOM      7  H   UNL     1      -0.180  -2.238  -0.586  0.00  0.00    +0.147 HD
ATOM      8  H   UNL     1      -2.737   0.678  -1.200  0.00  0.00    +0.163 HD
ENDROOT
BRANCH   3   9
ATOM      9  C   UNL     1      -2.300  -3.724  -1.485  0.00  0.00    +0.052 A 
ATOM     10  C   UNL     1      -2.455  -4.047  -2.827  0.00  0.00    +0.025 A 
ATOM     11  C   UNL     1      -2.679  -5.358  -3.199  0.00  0.00    +0.002 A 
ATOM     12  C   UNL     1      -2.749  -6.349  -2.237  0.00  0.00    +0.000 A 
ATOM     13  C   UNL     1      -2.595  -6.031  -0.900  0.00  0.00    +0.002 A 
ATOM     14  C   UNL     1      -2.364  -4.723  -0.522  0.00  0.00    +0.025 A 
ENDBRANCH   3   9
BRANCH   1  16
ATOM     15  C   UNL     1      -0.129   1.690  -0.496  0.00  0.00    +0.007 C 
ATOM     16  C   UNL     1       0.031   0.175  -0.639  0.00  0.00    +0.042 C 
ENDBRANCH   1  16
BRANCH   4  17
ATOM     17  S   UNL     1      -4.149  -1.437  -2.669  0.00  0.00    -0.082 S 
BRANCH  17  18
ATOM     18  C   UNL     1      -4.700   0.280  -2.870  0.00  0.00    +0.173 C 
BRANCH  18  19
ATOM     19  C   UNL     1      -5.867   0.325  -3.822  0.00  0.00    +0.228 C 
ATOM     20  O   UNL     1      -6.286  -0.701  -4.317  0.00  0.00    -0.275 OA
ATOM     21  N   UNL     1      -6.445   1.504  -4.125  0.00  0.00    -0.279 N 
ATOM     22  H   UNL     1      -6.110   2.324  -3.730  0.00  0.00    +0.155 HD
BRANCH  21  23
ATOM     23  C   UNL     1      -7.528   1.545  -5.008  0.00  0.00    +0.075 A 
ATOM     24  C   UNL     1      -8.239   2.619  -5.442  0.00  0.00    -0.019 A 
ATOM     25  C   UNL     1      -9.295   2.438  -6.335  0.00  0.00    -0.032 A 
ATOM     26  C   UNL     1      -9.552   1.160  -6.724  0.00  0.00    -0.005 A 
ATOM     27  S   UNL     1      -8.332   0.201  -5.866  0.00  0.00    -0.078 S 
ATOM     28  C   UNL     1     -10.616   0.689  -7.662  0.00  0.00    +0.043 C 
ATOM     29  C   UNL     1     -11.630   1.828  -7.852  0.00  0.00    +0.005 C 
ATOM     30  C   UNL     1     -10.865   3.124  -8.134  0.00  0.00    +0.005 C 
ATOM     31  C   UNL     1     -10.141   3.590  -6.871  0.00  0.00    +0.036 C 
ATOM     32  C   UNL     1      -7.887   4.003  -4.959  0.00  0.00    +0.046 C 
ENDBRANCH  21  23
ENDBRANCH  18  19
ENDBRANCH  17  18
ENDBRANCH   4  17
TORSDOF 6
