REMARK  Name = ZINC67247421
REMARK  9 active torsions:
REMARK  status: ('A' for Active; 'I' for Inactive)
REMARK    1  A    between atoms: C_1  and  C_2
REMARK    2  A    between atoms: C_2  and  C_3
REMARK    3  A    between atoms: C_4  and  C_12
REMARK    4  A    between atoms: C_12  and  N_13
REMARK    5  A    between atoms: N_13  and  C_14
REMARK    6  A    between atoms: C_14  and  C_15
REMARK    7  A    between atoms: C_18  and  N_21
REMARK    8  A    between atoms: C_24  and  C_27
REMARK    9  A    between atoms: C_27  and  O_28
REMARK                            x       y       z     vdW  Elec       q    Type
REMARK                         _______ _______ _______ _____ _____    ______ ____
ROOT
ATOM      1  C   UNL     1      -0.673  -1.712  -4.386  0.00  0.00    -0.046 C 
ENDROOT
BRANCH   1   2
ATOM      2  C   UNL     1      -0.037  -2.990  -4.870  0.00  0.00    -0.064 A 
ATOM      3  C   UNL     1       1.321  -3.190  -4.706  0.00  0.00    +0.003 A 
ATOM      4  C   UNL     1       1.907  -4.360  -5.148  0.00  0.00    +0.023 A 
ATOM      5  C   UNL     1       1.129  -5.337  -5.758  0.00  0.00    +0.030 A 
ATOM      6  C   UNL     1      -0.235  -5.132  -5.921  0.00  0.00    +0.023 A 
ATOM      7  C   UNL     1      -0.815  -3.962  -5.471  0.00  0.00    +0.003 A 
BRANCH   5   8
ATOM      8  N   UNL     1       1.718  -6.521  -6.206  0.00  0.00    -0.330 N 
ATOM      9  C   UNL     1       0.892  -7.611  -6.743  0.00  0.00    +0.105 C 
ATOM     10  C   UNL     1       1.420  -7.993  -8.130  0.00  0.00    +0.024 C 
ATOM     11  C   UNL     1       2.911  -8.324  -8.030  0.00  0.00    +0.017 C 
ATOM     12  C   UNL     1       3.678  -7.092  -7.543  0.00  0.00    +0.024 C 
ATOM     13  C   UNL     1       3.176  -6.698  -6.156  0.00  0.00    +0.105 C 
BRANCH  11  14
ATOM     14  C   UNL     1       3.434  -8.740  -9.406  0.00  0.00    +0.159 C 
BRANCH  14  15
ATOM     15  O   UNL     1       4.795  -9.160  -9.292  0.00  0.00    -0.395 OA
ATOM     16  H   UNL     1       5.192  -9.438 -10.128  0.00  0.00    +0.209 HD
ENDBRANCH  14  15
ENDBRANCH  11  14
ENDBRANCH   5   8
ENDBRANCH   1   2
BRANCH   1  17
ATOM     17  N   UNL     1      -1.108  -1.878  -2.993  0.00  0.00    +0.384 N 
ATOM     18  H   UNL     1      -0.310  -2.097  -2.415  0.00  0.00    -0.085 HD
ATOM     19  H   UNL     1      -1.780  -2.629  -2.938  0.00  0.00    -0.085 HD
BRANCH  17  20
ATOM     20  C   UNL     1      -1.727  -0.632  -2.522  0.00  0.00    -0.042 C 
BRANCH  20  22
ATOM     21  C   UNL     1      -1.457  -0.548   0.011  0.00  0.00    +0.107 A 
ATOM     22  C   UNL     1      -2.174  -0.803  -1.092  0.00  0.00    -0.016 A 
ATOM     23  C   UNL     1      -3.482  -1.282  -0.629  0.00  0.00    +0.022 A 
ATOM     24  C   UNL     1      -4.648  -1.703  -1.267  0.00  0.00    +0.012 A 
ATOM     25  C   UNL     1      -5.723  -2.098  -0.521  0.00  0.00    +0.001 A 
ATOM     26  C   UNL     1      -5.661  -2.083   0.865  0.00  0.00    +0.004 A 
ATOM     27  C   UNL     1      -4.517  -1.670   1.513  0.00  0.00    +0.047 A 
ATOM     28  C   UNL     1      -3.412  -1.264   0.774  0.00  0.00    +0.135 A 
ATOM     29  O   UNL     1      -2.183  -0.824   1.109  0.00  0.00    -0.459 OA
BRANCH  21  31
ATOM     30  C   UNL     1      -0.056   1.498   0.036  0.00  0.00    +0.012 C 
ATOM     31  C   UNL     1      -0.041  -0.032   0.019  0.00  0.00    +0.071 C 
ENDBRANCH  21  31
ENDBRANCH  20  22
ENDBRANCH  17  20
ENDBRANCH   1  17
TORSDOF 8
