REMARK  Name = ZINC05678950
REMARK  10 active torsions:
REMARK  status: ('A' for Active; 'I' for Inactive)
REMARK    1  A    between atoms: C_1  and  C_2
REMARK    2  A    between atoms: C_5  and  O_22
REMARK    3  A    between atoms: C_6  and  C_8
REMARK    4  A    between atoms: C_8  and  O_10
REMARK    5  A    between atoms: O_10  and  C_11
REMARK    6  A    between atoms: C_11  and  C_12
REMARK    7  A    between atoms: N_17  and  C_18
REMARK    8  A    between atoms: C_18  and  C_19
REMARK    9  A    between atoms: C_18  and  C_20
REMARK   10  A    between atoms: C_18  and  C_21
REMARK                            x       y       z     vdW  Elec       q    Type
REMARK                         _______ _______ _______ _____ _____    ______ ____
ROOT
ATOM      1  C   UNL     1      -0.071   0.149  -4.875  0.00  0.00    +0.328 C 
ENDROOT
BRANCH   1   2
ATOM      2  C   UNL     1      -0.075  -0.770  -6.070  0.00  0.00    +0.258 C 
ATOM      3  O   UNL     1      -0.056  -1.971  -5.910  0.00  0.00    -0.272 OA
ATOM      4  N   UNL     1      -0.100  -0.256  -7.315  0.00  0.00    -0.237 N 
ATOM      5  C   UNL     1      -0.104  -1.078  -8.384  0.00  0.00    +0.306 C 
ATOM      6  O   UNL     1      -0.085  -2.282  -8.224  0.00  0.00    -0.252 OA
ATOM      7  N   UNL     1      -0.130  -0.564  -9.629  0.00  0.00    -0.294 N 
ATOM      8  H   UNL     1      -0.116   0.706  -7.443  0.00  0.00    +0.159 HD
ATOM      9  H   UNL     1      -0.145   0.398  -9.757  0.00  0.00    +0.151 HD
BRANCH   7  10
ATOM     10  C   UNL     1      -0.134  -1.457 -10.790  0.00  0.00    +0.028 C 
ATOM     11  C   UNL     1      -1.370  -2.357 -10.737  0.00  0.00    +0.031 C 
ATOM     12  C   UNL     1      -0.164  -0.625 -12.074  0.00  0.00    +0.031 C 
ATOM     13  C   UNL     1       1.128  -2.322 -10.773  0.00  0.00    +0.031 C 
ENDBRANCH   7  10
ENDBRANCH   1   2
BRANCH   1  14
ATOM     14  O   UNL     1      -0.042  -0.641  -3.657  0.00  0.00    -0.452 OA
BRANCH  14  15
ATOM     15  C   UNL     1      -0.035   0.034  -2.491  0.00  0.00    +0.343 C 
ATOM     16  O   UNL     1      -0.052   1.249  -2.492  0.00  0.00    -0.245 OA
BRANCH  15  22
ATOM     17  C   UNL     1       0.059  -4.288  -0.007  0.00  0.00    +0.044 C 
ATOM     18  C   UNL     1       0.039  -2.781  -0.011  0.00  0.00    -0.049 A 
ATOM     19  C   UNL     1       0.041  -2.088   1.188  0.00  0.00    +0.007 A 
ATOM     20  C   UNL     1       0.023  -0.707   1.198  0.00  0.00    +0.046 A 
ATOM     21  C   UNL     1       0.002  -0.004   0.002  0.00  0.00    +0.131 A 
ATOM     22  C   UNL     1      -0.006  -0.702  -1.214  0.00  0.00    +0.101 A 
ATOM     23  C   UNL     1       0.019  -2.099  -1.208  0.00  0.00    +0.022 A 
BRANCH  21  24
ATOM     24  O   UNL     1      -0.016   1.352   0.009  0.00  0.00    -0.506 OA
ATOM     25  H   UNL     1       0.862   1.758   0.003  0.00  0.00    +0.292 HD
ENDBRANCH  21  24
ENDBRANCH  15  22
ENDBRANCH  14  15
ENDBRANCH   1  14
TORSDOF 6
