REMARK  Name = ZINC41301251
REMARK  7 active torsions:
REMARK  status: ('A' for Active; 'I' for Inactive)
REMARK    1  A    between atoms: C_1  and  C_2
REMARK    2  A    between atoms: C_2  and  C_3
REMARK    3  A    between atoms: C_3  and  N_4
REMARK    4  A    between atoms: C_8  and  N_23
REMARK    5  A    between atoms: C_9  and  N_11
REMARK    6  A    between atoms: N_11  and  C_12
REMARK    7  A    between atoms: C_19  and  C_22
REMARK                            x       y       z     vdW  Elec       q    Type
REMARK                         _______ _______ _______ _____ _____    ______ ____
ROOT
ATOM      1  N   UNL     1       0.738  -1.962  -1.265  0.00  0.00    -0.313 N 
ATOM      2  C   UNL     1       1.337  -2.640  -2.312  0.00  0.00    +0.219 A 
ATOM      3  N   UNL     1       1.891  -1.948  -3.296  0.00  0.00    -0.197 NA
ATOM      4  C   UNL     1       2.476  -2.566  -4.319  0.00  0.00    +0.154 A 
ATOM      5  C   UNL     1       2.500  -3.958  -4.346  0.00  0.00    +0.205 A 
ATOM      6  C   UNL     1       1.907  -4.651  -3.295  0.00  0.00    +0.163 A 
ATOM      7  N   UNL     1       1.345  -3.965  -2.302  0.00  0.00    -0.197 NA
ATOM      8  N   UNL     1       3.054  -1.834  -5.344  0.00  0.00    -0.341 N 
ATOM      9  H   UNL     1       0.332  -2.457  -0.536  0.00  0.00    +0.149 HD
ATOM     10  H   UNL     1       3.034  -0.865  -5.319  0.00  0.00    +0.144 HD
ATOM     11  H   UNL     1       3.479  -2.291  -6.087  0.00  0.00    +0.144 HD
ENDROOT
BRANCH   5  12
ATOM     12  N   UNL     1       3.140  -4.684  -5.466  0.00  0.00    +0.063 N 
ATOM     13  O   UNL     1       4.312  -4.974  -5.406  0.00  0.00    -0.126 OA
ATOM     14  O   UNL     1       2.491  -4.985  -6.440  0.00  0.00    -0.126 OA
ENDBRANCH   5  12
BRANCH   6  15
ATOM     15  N   UNL     1       1.907  -6.039  -3.279  0.00  0.00    -0.266 N 
ATOM     16  H   UNL     1       2.321  -6.532  -4.004  0.00  0.00    +0.157 HD
BRANCH  15  17
ATOM     17  C   UNL     1       1.314  -6.719  -2.229  0.00  0.00    +0.226 A 
ATOM     18  C   UNL     1       1.246  -8.061  -2.084  0.00  0.00    +0.037 A 
ATOM     19  C   UNL     1       0.565  -8.339  -0.884  0.00  0.00    +0.089 A 
ATOM     20  N   UNL     1       0.236  -7.211  -0.333  0.00  0.00    -0.081 NA
ATOM     21  O   UNL     1       0.706  -6.162  -1.164  0.00  0.00    -0.339 OA
ATOM     22  C   UNL     1       0.301  -9.738  -0.382  0.00  0.00    +0.059 C 
ATOM     23  C   UNL     1       1.227 -10.700  -1.136  0.00  0.00    +0.010 C 
ATOM     24  C   UNL     1       1.109 -10.458  -2.642  0.00  0.00    -0.009 C 
ATOM     25  C   UNL     1       1.782  -9.128  -3.007  0.00  0.00    +0.045 C 
ATOM     26  C   UNL     1       1.796 -11.598  -3.397  0.00  0.00    +0.008 C 
ENDBRANCH  15  17
ENDBRANCH   6  15
BRANCH   1  27
ATOM     27  C   UNL     1       0.718  -0.497  -1.257  0.00  0.00    +0.104 C 
BRANCH  27  29
ATOM     28  C   UNL     1      -0.019   1.526   0.010  0.00  0.00    +0.005 C 
ATOM     29  C   UNL     1       0.002  -0.004   0.002  0.00  0.00    +0.015 C 
ENDBRANCH  27  29
ENDBRANCH   1  27
TORSDOF 5
