REMARK  Name = ZINC61053146
REMARK  2 active torsions:
REMARK  status: ('A' for Active; 'I' for Inactive)
REMARK    1  A    between atoms: C_3  and  C_16
REMARK    2  A    between atoms: C_16  and  O_17
REMARK                            x       y       z     vdW  Elec       q    Type
REMARK                         _______ _______ _______ _____ _____    ______ ____
ROOT
ATOM      1  C   UNL     1      -0.019   1.528   0.010  0.00  0.00    +0.019 C 
ATOM      2  C   UNL     1       1.419   2.053  -0.001  0.00  0.00    +0.009 C 
ATOM      3  C   UNL     1       2.149   1.573   1.256  0.00  0.00    +0.032 C 
ATOM      4  C   UNL     1       2.194   0.042   1.262  0.00  0.00    +0.113 C 
ATOM      5  N   UNL     1       0.824  -0.472   1.126  0.00  0.00    -0.299 N 
ATOM      6  C   UNL     1       0.002  -0.004   0.002  0.00  0.00    +0.108 C 
ATOM      7  C   UNL     1       0.320  -1.378   2.037  0.00  0.00    +0.223 A 
ATOM      8  N   UNL     1       1.072  -1.790   3.053  0.00  0.00    -0.184 NA
ATOM      9  C   UNL     1       0.586  -2.658   3.925  0.00  0.00    +0.228 A 
ATOM     10  N   UNL     1      -0.648  -3.116   3.786  0.00  0.00    -0.187 NA
ATOM     11  C   UNL     1      -1.400  -2.708   2.775  0.00  0.00    +0.228 A 
ATOM     12  N   UNL     1      -0.921  -1.836   1.904  0.00  0.00    -0.184 NA
ATOM     13 CL   UNL     1      -3.018  -3.312   2.597  0.00  0.00    -0.041 Cl
ATOM     14 CL   UNL     1       1.568  -3.197   5.251  0.00  0.00    -0.041 Cl
ENDROOT
BRANCH   3  15
ATOM     15  C   UNL     1       3.575   2.127   1.261  0.00  0.00    +0.160 C 
BRANCH  15  16
ATOM     16  O   UNL     1       4.218   1.776   2.488  0.00  0.00    -0.395 OA
ATOM     17  H   UNL     1       5.128   2.095   2.560  0.00  0.00    +0.209 HD
ENDBRANCH  15  16
ENDBRANCH   3  15
TORSDOF 2
