REMARK  Name = ZINC08976400
REMARK  6 active torsions:
REMARK  status: ('A' for Active; 'I' for Inactive)
REMARK    1  A    between atoms: C_1  and  C_2
REMARK    2  A    between atoms: C_5  and  C_30
REMARK    3  A    between atoms: N_8  and  S_10
REMARK    4  A    between atoms: S_10  and  C_13
REMARK    5  A    between atoms: C_16  and  C_19
REMARK    6  A    between atoms: N_21  and  C_22
REMARK                            x       y       z     vdW  Elec       q    Type
REMARK                         _______ _______ _______ _____ _____    ______ ____
ROOT
ATOM      1  C   UNL     1       0.002  -0.004   0.002  0.00  0.00    +0.106 A 
ATOM      2  C   UNL     1       1.116  -0.680   0.468  0.00  0.00    +0.029 A 
ATOM      3  C   UNL     1       1.139  -2.060   0.468  0.00  0.00    +0.015 A 
ATOM      4  C   UNL     1       0.040  -2.773  -0.014  0.00  0.00    +0.037 A 
ATOM      5  C   UNL     1      -1.078  -2.084  -0.488  0.00  0.00    +0.015 A 
ATOM      6  C   UNL     1      -1.091  -0.705  -0.477  0.00  0.00    +0.029 A 
ENDROOT
BRANCH   4   7
ATOM      7  C   UNL     1       0.060  -4.251  -0.023  0.00  0.00    +0.250 C 
ATOM      8  O   UNL     1      -0.898  -4.869  -0.444  0.00  0.00    -0.270 OA
ATOM      9  N   UNL     1       1.141  -4.913   0.435  0.00  0.00    -0.250 N 
ATOM     10  H   UNL     1       1.906  -4.419   0.770  0.00  0.00    +0.158 HD
BRANCH   9  11
ATOM     11  C   UNL     1       1.161  -6.299   0.426  0.00  0.00    +0.228 A 
ATOM     12  C   UNL     1       2.172  -7.105   0.846  0.00  0.00    +0.037 A 
ATOM     13  C   UNL     1       1.691  -8.409   0.628  0.00  0.00    +0.089 A 
ATOM     14  N   UNL     1       0.500  -8.280   0.117  0.00  0.00    -0.081 NA
ATOM     15  O   UNL     1       0.186  -7.118  -0.004  0.00  0.00    -0.339 OA
ATOM     16  C   UNL     1       2.738  -9.405   1.068  0.00  0.00    +0.059 C 
ATOM     17  C   UNL     1       4.055  -8.600   1.154  0.00  0.00    +0.011 C 
ATOM     18  C   UNL     1       3.557  -7.165   1.434  0.00  0.00    +0.042 C 
ENDBRANCH   9  11
ENDBRANCH   4   7
BRANCH   1  19
ATOM     19  S   UNL     1      -0.022   1.758   0.012  0.00  0.00    +0.061 S 
ATOM     20  O   UNL     1       1.334   2.182   0.001  0.00  0.00    -0.153 OA
ATOM     21  O   UNL     1      -0.953   2.157  -0.985  0.00  0.00    -0.153 OA
BRANCH  19  27
ATOM     22  C   UNL     1      -2.418   0.110   2.496  0.00  0.00    +0.009 C 
ATOM     23  C   UNL     1      -2.589   1.597   2.813  0.00  0.00    +0.002 C 
ATOM     24  C   UNL     1      -1.766   1.953   4.053  0.00  0.00    +0.009 C 
ATOM     25  C   UNL     1      -0.293   1.623   3.803  0.00  0.00    +0.002 C 
ATOM     26  C   UNL     1       0.221   2.458   2.626  0.00  0.00    +0.112 C 
ATOM     27  N   UNL     1      -0.654   2.231   1.467  0.00  0.00    -0.176 NA
ATOM     28  C   UNL     1      -2.101   2.438   1.623  0.00  0.00    +0.112 C 
ATOM     29  C   UNL     1       0.523   1.948   5.055  0.00  0.00    +0.009 C 
ENDBRANCH  19  27
ENDBRANCH   1  19
TORSDOF 4
