REMARK  Name = ZINC51618519
REMARK  9 active torsions:
REMARK  status: ('A' for Active; 'I' for Inactive)
REMARK    1  A    between atoms: C_1  and  C_2
REMARK    2  A    between atoms: C_2  and  C_3
REMARK    3  A    between atoms: C_2  and  C_4
REMARK    4  A    between atoms: C_2  and  C_5
REMARK    5  A    between atoms: C_14  and  N_17
REMARK    6  A    between atoms: N_20  and  C_21
REMARK    7  A    between atoms: C_21  and  C_22
REMARK    8  A    between atoms: N_24  and  C_25
REMARK    9  A    between atoms: C_25  and  C_26
REMARK                            x       y       z     vdW  Elec       q    Type
REMARK                         _______ _______ _______ _____ _____    ______ ____
ROOT
ATOM      1  C   UNL     1       0.603  -0.653  -1.007  0.00  0.00    +0.225 C 
ATOM      2  O   UNL     1       1.333   0.105  -1.610  0.00  0.00    -0.275 OA
ATOM      3  N   UNL     1       0.591  -1.965  -1.316  0.00  0.00    -0.265 N 
ATOM      4  C   UNL     1      -0.358  -2.891  -0.673  0.00  0.00    +0.154 C 
ATOM      5  C   UNL     1       0.406  -4.180  -0.340  0.00  0.00    +0.248 C 
ATOM      6  O   UNL     1       0.951  -4.718  -1.547  0.00  0.00    -0.489 OA
ATOM      7  C   UNL     1       1.647  -3.877  -2.358  0.00  0.00    +0.142 A 
ATOM      8  C   UNL     1       1.479  -2.496  -2.267  0.00  0.00    +0.080 A 
ATOM      9  C   UNL     1       2.184  -1.649  -3.105  0.00  0.00    +0.050 A 
ATOM     10  C   UNL     1       3.063  -2.178  -4.042  0.00  0.00    +0.037 A 
ATOM     11  C   UNL     1       3.231  -3.553  -4.134  0.00  0.00    +0.027 A 
ATOM     12  C   UNL     1       2.531  -4.400  -3.290  0.00  0.00    +0.049 A 
ENDROOT
BRANCH  10  13
ATOM     13  N   UNL     1       3.779  -1.325  -4.892  0.00  0.00    -0.269 N 
ATOM     14  C   UNL     1       5.037  -1.640  -5.259  0.00  0.00    +0.304 C 
ATOM     15  O   UNL     1       5.522  -2.701  -4.918  0.00  0.00    -0.252 OA
ATOM     16  N   UNL     1       5.757  -0.779  -6.005  0.00  0.00    -0.291 N 
ATOM     17  H   UNL     1       3.369  -0.508  -5.217  0.00  0.00    +0.156 HD
ATOM     18  H   UNL     1       5.370   0.068  -6.277  0.00  0.00    +0.151 HD
BRANCH  16  19
ATOM     19  C   UNL     1       7.124  -1.121  -6.404  0.00  0.00    +0.201 C 
BRANCH  19  20
ATOM     20  C   UNL     1       7.704   0.002  -7.225  0.00  0.00    +0.231 C 
ATOM     21  O   UNL     1       7.040   0.991  -7.454  0.00  0.00    -0.274 OA
ATOM     22  N   UNL     1       8.960  -0.092  -7.704  0.00  0.00    -0.303 N 
ATOM     23  H   UNL     1       9.491  -0.883  -7.521  0.00  0.00    +0.150 HD
BRANCH  22  24
ATOM     24  C   UNL     1       9.524   0.999  -8.502  0.00  0.00    +0.193 C 
BRANCH  24  25
ATOM     25  C   UNL     1      10.898   0.655  -8.903  0.00  0.00    -0.087 C 
ATOM     26  C   UNL     1      11.994   0.381  -9.223  0.00  0.00    +0.005 C 
ENDBRANCH  24  25
ENDBRANCH  22  24
ENDBRANCH  19  20
ENDBRANCH  16  19
ENDBRANCH  10  13
BRANCH   1  28
ATOM     27  C   UNL     1      -0.146   1.391   0.179  0.00  0.00    +0.020 C 
ATOM     28  C   UNL     1      -0.290  -0.129   0.088  0.00  0.00    +0.039 C 
ATOM     29  C   UNL     1       0.113  -0.761   1.422  0.00  0.00    +0.020 C 
ATOM     30  C   UNL     1      -1.745  -0.485  -0.226  0.00  0.00    +0.020 C 
ENDBRANCH   1  28
TORSDOF 6
