REMARK  Name = ZINC20622654
REMARK  9 active torsions:
REMARK  status: ('A' for Active; 'I' for Inactive)
REMARK    1  A    between atoms: C_1  and  C_2
REMARK    2  A    between atoms: C_2  and  C_3
REMARK    3  A    between atoms: C_2  and  C_4
REMARK    4  A    between atoms: C_4  and  C_5
REMARK    5  A    between atoms: C_8  and  C_28
REMARK    6  A    between atoms: C_9  and  N_11
REMARK    7  A    between atoms: C_17  and  C_19
REMARK    8  A    between atoms: N_21  and  C_22
REMARK    9  A    between atoms: C_22  and  C_23
REMARK                            x       y       z     vdW  Elec       q    Type
REMARK                         _______ _______ _______ _____ _____    ______ ____
ROOT
ATOM      1  N   UNL     1       1.030  -2.030  -0.065  0.00  0.00    -0.311 N 
ATOM      2  C   UNL     1       1.652  -2.542  -1.292  0.00  0.00    +0.125 C 
ATOM      3  C   UNL     1       1.821  -4.061  -1.180  0.00  0.00    +0.127 C 
ATOM      4  N   UNL     1       0.516  -4.654  -0.851  0.00  0.00    -0.291 N 
ATOM      5  C   UNL     1      -0.233  -4.098   0.287  0.00  0.00    +0.127 C 
ATOM      6  C   UNL     1      -0.321  -2.578   0.117  0.00  0.00    +0.125 C 
ATOM      7  C   UNL     1       0.019  -5.678  -1.573  0.00  0.00    +0.302 C 
ATOM      8  O   UNL     1      -1.111  -6.071  -1.369  0.00  0.00    -0.265 OA
ENDROOT
BRANCH   1  13
ATOM      9  C   UNL     1       0.333   1.324  -1.058  0.00  0.00    +0.047 A 
ATOM     10  C   UNL     1       0.947   2.090  -0.080  0.00  0.00    -0.022 A 
ATOM     11  C   UNL     1       1.619   1.459   0.950  0.00  0.00    -0.022 A 
ATOM     12  C   UNL     1       1.655   0.060   0.969  0.00  0.00    +0.095 A 
ATOM     13  C   UNL     1       1.008  -0.646  -0.060  0.00  0.00    +0.139 A 
ATOM     14  N   UNL     1       0.378   0.007  -1.024  0.00  0.00    -0.235 NA
ATOM     15  C   UNL     1       2.203   2.487   1.891  0.00  0.00    +0.037 C 
ATOM     16  C   UNL     1       1.454   3.799   1.569  0.00  0.00    +0.009 C 
ATOM     17  C   UNL     1       1.035   3.589   0.098  0.00  0.00    +0.037 C 
BRANCH  12  18
ATOM     18  C   UNL     1       2.339  -0.638   2.015  0.00  0.00    +0.103 C 
ATOM     19  N   UNL     1       2.882  -1.192   2.846  0.00  0.00    -0.191 NA
ENDBRANCH  12  18
BRANCH   9  20
ATOM     20  C   UNL     1      -0.395   2.010  -2.185  0.00  0.00    +0.058 C 
BRANCH  20  22
ATOM     21  C   UNL     1      -2.568   3.026  -2.883  0.00  0.00    +0.007 C 
ATOM     22  C   UNL     1      -1.859   2.220  -1.793  0.00  0.00    -0.011 C 
ATOM     23  C   UNL     1      -2.545   0.862  -1.635  0.00  0.00    +0.007 C 
ENDBRANCH  20  22
ENDBRANCH   9  20
ENDBRANCH   1  13
BRANCH   7  24
ATOM     24  C   UNL     1       0.859  -6.329  -2.623  0.00  0.00    +0.300 C 
ATOM     25  O   UNL     1       2.025  -6.016  -2.747  0.00  0.00    -0.265 OA
ATOM     26  N   UNL     1       0.322  -7.263  -3.432  0.00  0.00    -0.300 N 
ATOM     27  H   UNL     1      -0.735  -7.546  -3.320  0.00  0.00    +0.150 HD
BRANCH  26  28
ATOM     28  C   UNL     1       1.146  -7.901  -4.462  0.00  0.00    +0.179 C 
BRANCH  28  29
ATOM     29  C   UNL     1       0.314  -8.900  -5.224  0.00  0.00    +0.122 A 
ATOM     30  C   UNL     1      -0.405  -8.643  -6.331  0.00  0.00    +0.046 A 
ATOM     31  C   UNL     1      -1.024  -9.857  -6.708  0.00  0.00    +0.041 A 
ATOM     32  C   UNL     1      -0.646 -10.783  -5.809  0.00  0.00    +0.195 A 
ATOM     33  O   UNL     1       0.169 -10.199  -4.915  0.00  0.00    -0.466 OA
ENDBRANCH  28  29
ENDBRANCH  26  28
ENDBRANCH   7  24
TORSDOF 7
