REMARK  Name = ZINC36545238
REMARK  19 active torsions:
REMARK  status: ('A' for Active; 'I' for Inactive)
REMARK    1  A    between atoms: C_1  and  C_2
REMARK    2  A    between atoms: C_2  and  C_3
REMARK    3  A    between atoms: C_3  and  C_4
REMARK    4  A    between atoms: C_3  and  C_6
REMARK    5  A    between atoms: C_4  and  C_5
REMARK    6  A    between atoms: C_6  and  C_8
REMARK    7  A    between atoms: C_6  and  N_19
REMARK    8  A    between atoms: N_10  and  C_11
REMARK    9  A    between atoms: C_11  and  C_12
REMARK   10  A    between atoms: C_11  and  C_13
REMARK   11  A    between atoms: C_11  and  C_14
REMARK   12  A    between atoms: C_14  and  C_15
REMARK   13  A    between atoms: C_15  and  C_16
REMARK   14  A    between atoms: C_15  and  C_17
REMARK   15  A    between atoms: C_15  and  C_18
REMARK   16  A    between atoms: N_19  and  C_20
REMARK   17  A    between atoms: C_27  and  C_29
REMARK   18  A    between atoms: C_30  and  O_36
REMARK   19  A    between atoms: C_34  and  O_35
REMARK                            x       y       z     vdW  Elec       q    Type
REMARK                         _______ _______ _______ _____ _____    ______ ____
ROOT
ATOM      1  N   UNL     1       1.802   1.283   3.522  0.00  0.00    -0.254 N 
ATOM      2  C   UNL     1       2.448   0.309   4.193  0.00  0.00    +0.259 C 
ATOM      3  O   UNL     1       2.823  -0.688   3.607  0.00  0.00    -0.269 OA
ENDROOT
BRANCH   1   4
ATOM      4  C   UNL     1       1.493   2.488   4.162  0.00  0.00    +0.056 A 
ATOM      5  C   UNL     1       0.369   2.578   4.972  0.00  0.00    +0.025 A 
ATOM      6  C   UNL     1       0.068   3.769   5.603  0.00  0.00    +0.002 A 
ATOM      7  C   UNL     1       0.883   4.872   5.428  0.00  0.00    +0.002 A 
ATOM      8  C   UNL     1       2.003   4.787   4.621  0.00  0.00    +0.022 A 
ATOM      9  C   UNL     1       2.314   3.597   3.992  0.00  0.00    +0.062 A 
ATOM     10 CL   UNL     1       3.724   3.488   2.984  0.00  0.00    -0.082 Cl
ENDBRANCH   1   4
BRANCH   2  11
ATOM     11  C   UNL     1       2.700   0.454   5.637  0.00  0.00    +0.120 A 
ATOM     12  C   UNL     1       1.730   0.052   6.567  0.00  0.00    +0.133 A 
ATOM     13  C   UNL     1       1.978   0.193   7.923  0.00  0.00    +0.046 A 
ATOM     14  C   UNL     1       3.176   0.726   8.360  0.00  0.00    +0.007 A 
ATOM     15  C   UNL     1       4.139   1.125   7.452  0.00  0.00    +0.046 A 
ATOM     16  C   UNL     1       3.915   0.988   6.091  0.00  0.00    +0.133 A 
BRANCH  16  17
ATOM     17  O   UNL     1       4.864   1.375   5.202  0.00  0.00    -0.506 OA
ATOM     18  H   UNL     1       4.773   2.290   4.904  0.00  0.00    +0.292 HD
ENDBRANCH  16  17
BRANCH  12  19
ATOM     19  O   UNL     1       0.553  -0.471   6.140  0.00  0.00    -0.506 OA
ATOM     20  H   UNL     1       0.565  -1.432   6.036  0.00  0.00    +0.292 HD
ENDBRANCH  12  19
ENDBRANCH   2  11
BRANCH   1  21
ATOM     21  C   UNL     1       1.422   1.079   2.122  0.00  0.00    +0.170 C 
BRANCH  21  22
ATOM     22  C   UNL     1       0.955   2.385   1.532  0.00  0.00    +0.235 C 
ATOM     23  O   UNL     1       1.004   3.400   2.193  0.00  0.00    -0.274 OA
ATOM     24  N   UNL     1       0.482   2.424   0.271  0.00  0.00    -0.309 N 
ATOM     25  H   UNL     1       0.361   1.601  -0.228  0.00  0.00    +0.149 HD
BRANCH  24  26
ATOM     26  C   UNL     1       0.150   3.710  -0.348  0.00  0.00    +0.030 C 
ATOM     27  C   UNL     1      -1.193   4.205   0.193  0.00  0.00    +0.031 C 
ATOM     28  C   UNL     1       1.241   4.731  -0.017  0.00  0.00    +0.031 C 
BRANCH  26  29
ATOM     29  C   UNL     1       0.056   3.537  -1.865  0.00  0.00    +0.031 C 
BRANCH  29  30
ATOM     30  C   UNL     1       1.244   2.709  -2.358  0.00  0.00    -0.036 C 
ATOM     31  C   UNL     1       0.992   1.229  -2.064  0.00  0.00    +0.010 C 
ATOM     32  C   UNL     1       1.414   2.908  -3.866  0.00  0.00    +0.010 C 
ATOM     33  C   UNL     1       2.516   3.162  -1.638  0.00  0.00    +0.010 C 
ENDBRANCH  29  30
ENDBRANCH  26  29
ENDBRANCH  24  26
ENDBRANCH  21  22
BRANCH  21  34
ATOM     34  C   UNL     1       0.291   0.051   2.044  0.00  0.00    +0.018 C 
BRANCH  34  36
ATOM     35  C   UNL     1       1.921  -1.729   1.399  0.00  0.00    +0.004 C 
ATOM     36  C   UNL     1       0.835  -1.334   2.401  0.00  0.00    +0.002 C 
ENDBRANCH  34  36
BRANCH  34  37
ATOM     37  C   UNL     1      -0.815   0.434   3.030  0.00  0.00    +0.002 C 
ATOM     38  C   UNL     1      -1.502   1.715   2.553  0.00  0.00    +0.004 C 
ENDBRANCH  34  37
ENDBRANCH  21  34
ENDBRANCH   1  21
TORSDOF 12
