REMARK  Name = ZINC54185567
REMARK  5 active torsions:
REMARK  status: ('A' for Active; 'I' for Inactive)
REMARK    1  A    between atoms: C_3  and  S_8
REMARK    2  A    between atoms: S_8  and  C_9
REMARK    3  A    between atoms: C_12  and  C_18
REMARK    4  A    between atoms: C_14  and  N_15
REMARK    5  A    between atoms: N_19  and  O_20
REMARK                            x       y       z     vdW  Elec       q    Type
REMARK                         _______ _______ _______ _____ _____    ______ ____
ROOT
ATOM      1  C   UNL     1       5.155   1.092   0.199  0.00  0.00    +0.043 A 
ATOM      2  C   UNL     1       4.788  -0.247   0.094  0.00  0.00    +0.018 A 
ATOM      3  C   UNL     1       5.747  -1.232   0.166  0.00  0.00    +0.012 A 
ATOM      4  C   UNL     1       7.088  -0.888   0.345  0.00  0.00    +0.020 A 
ATOM      5  C   UNL     1       7.454   0.455   0.450  0.00  0.00    +0.045 A 
ATOM      6  C   UNL     1       6.491   1.438   0.372  0.00  0.00    +0.141 A 
ENDROOT
BRANCH   4   7
ATOM      7  C   UNL     1       8.120  -1.945   0.423  0.00  0.00    +0.162 C 
ATOM      8  N   UNL     1       9.344  -1.686   0.066  0.00  0.00    -0.072 NA
ATOM      9  N   UNL     1       7.783  -3.209   0.876  0.00  0.00    -0.340 N 
ATOM     10  H   UNL     1       6.870  -3.402   1.143  0.00  0.00    +0.144 HD
ATOM     11  H   UNL     1       8.460  -3.902   0.928  0.00  0.00    +0.144 HD
BRANCH   8  12
ATOM     12  O   UNL     1       9.661  -0.439  -0.526  0.00  0.00    -0.408 OA
ATOM     13  H   UNL     1      10.595  -0.340  -0.757  0.00  0.00    +0.328 HD
ENDBRANCH   8  12
ENDBRANCH   4   7
BRANCH   6  14
ATOM     14  N   UNL     1       6.879   2.862   0.476  0.00  0.00    +0.058 N 
ATOM     15  O   UNL     1       8.040   3.164   0.626  0.00  0.00    -0.126 OA
ATOM     16  O   UNL     1       6.034   3.725   0.412  0.00  0.00    -0.126 OA
ENDBRANCH   6  14
BRANCH   1  17
ATOM     17  S   UNL     1       3.925   2.351   0.106  0.00  0.00    -0.087 S 
BRANCH  17  20
ATOM     18  C   UNL     1       0.604   0.350   1.179  0.00  0.00    +0.003 A 
ATOM     19  C   UNL     1       1.795   1.048   1.227  0.00  0.00    +0.015 A 
ATOM     20  C   UNL     1       2.406   1.460   0.049  0.00  0.00    +0.014 A 
ATOM     21  C   UNL     1       1.817   1.167  -1.175  0.00  0.00    +0.035 A 
ATOM     22  C   UNL     1       0.625   0.469  -1.216  0.00  0.00    +0.042 A 
ATOM     23  C   UNL     1       0.019   0.061  -0.040  0.00  0.00    +0.020 A 
ATOM     24 CL   UNL     1      -0.113   0.103  -2.744  0.00  0.00    -0.084 Cl
ENDBRANCH  17  20
ENDBRANCH   1  17
TORSDOF 5
