REMARK  Name = ZINC32967720
REMARK  8 active torsions:
REMARK  status: ('A' for Active; 'I' for Inactive)
REMARK    1  A    between atoms: C_1  and  C_2
REMARK    2  A    between atoms: C_2  and  C_3
REMARK    3  A    between atoms: C_3  and  C_4
REMARK    4  A    between atoms: C_3  and  C_5
REMARK    5  A    between atoms: C_3  and  N_6
REMARK    6  A    between atoms: C_7  and  C_9
REMARK    7  A    between atoms: N_12  and  S_15
REMARK    8  A    between atoms: S_15  and  N_18
REMARK                            x       y       z     vdW  Elec       q    Type
REMARK                         _______ _______ _______ _____ _____    ______ ____
ROOT
ATOM      1  C   UNL     1      -2.482   0.853   0.018  0.00  0.00    +0.077 C 
ATOM      2  C   UNL     1      -2.556  -0.023  -1.235  0.00  0.00    +0.030 C 
ATOM      3  C   UNL     1      -3.857  -0.831  -1.212  0.00  0.00    +0.111 C 
ATOM      4  N   UNL     1      -4.987   0.096  -1.056  0.00  0.00    -0.167 NA
ATOM      5  C   UNL     1      -4.972   1.044   0.066  0.00  0.00    +0.111 C 
ATOM      6  C   UNL     1      -3.658   1.831   0.029  0.00  0.00    +0.030 C 
ENDROOT
BRANCH   1   8
ATOM      7  N   UNL     1      -0.011   0.966   0.007  0.00  0.00    -0.310 N 
ATOM      8  C   UNL     1      -1.187   1.624   0.017  0.00  0.00    +0.217 C 
ATOM      9  O   UNL     1      -1.204   2.837   0.023  0.00  0.00    -0.275 OA
ATOM     10  H   UNL     1       0.004  -0.134   0.006  0.00  0.00    +0.149 HD
BRANCH   7  11
ATOM     11  C   UNL     1       1.248   1.716  -0.001  0.00  0.00    +0.029 C 
ATOM     12  C   UNL     1       1.305   2.603  -1.246  0.00  0.00    +0.031 C 
ATOM     13  C   UNL     1       1.329   2.589   1.253  0.00  0.00    +0.031 C 
BRANCH  11  15
ATOM     14  C   UNL     1       3.738   1.520  -0.025  0.00  0.00    +0.006 C 
ATOM     15  C   UNL     1       2.424   0.737  -0.017  0.00  0.00    +0.022 C 
ENDBRANCH  11  15
ENDBRANCH   7  11
ENDBRANCH   1   8
BRANCH   4  16
ATOM     16  S   UNL     1      -6.252   0.072  -2.124  0.00  0.00    +0.095 S 
ATOM     17  O   UNL     1      -6.273  -1.227  -2.700  0.00  0.00    -0.141 OA
ATOM     18  O   UNL     1      -7.371   0.620  -1.441  0.00  0.00    -0.141 OA
BRANCH  16  19
ATOM     19  N   UNL     1      -5.881   1.125  -3.346  0.00  0.00    -0.193 NA
ATOM     20  H   UNL     1      -6.700   1.139  -4.080  0.00  0.00    +0.145 HD
ATOM     21  H   UNL     1      -4.952   0.803  -3.839  0.00  0.00    +0.145 HD
ENDBRANCH  16  19
ENDBRANCH   4  16
TORSDOF 5
