REMARK  Name = ZINC46680614
REMARK  11 active torsions:
REMARK  status: ('A' for Active; 'I' for Inactive)
REMARK    1  A    between atoms: C_1  and  C_2
REMARK    2  A    between atoms: C_2  and  C_4
REMARK    3  A    between atoms: C_2  and  N_32
REMARK    4  A    between atoms: N_6  and  C_7
REMARK    5  A    between atoms: C_10  and  N_13
REMARK    6  A    between atoms: C_14  and  C_16
REMARK    7  A    between atoms: C_16  and  C_17
REMARK    8  A    between atoms: C_17  and  N_18
REMARK    9  A    between atoms: N_18  and  C_19
REMARK   10  A    between atoms: C_22  and  C_28
REMARK   11  A    between atoms: C_24  and  N_25
REMARK                            x       y       z     vdW  Elec       q    Type
REMARK                         _______ _______ _______ _____ _____    ______ ____
ROOT
ATOM      1  N   UNL     1       3.952  -0.861   6.972  0.00  0.00    -0.285 N 
ATOM      2  C   UNL     1       3.378  -0.939   8.189  0.00  0.00    +0.219 C 
ATOM      3  O   UNL     1       2.288  -0.442   8.379  0.00  0.00    -0.275 OA
ATOM      4  H   UNL     1       4.847  -1.209   6.834  0.00  0.00    +0.155 HD
ENDROOT
BRANCH   1   8
ATOM      5  C   UNL     1       1.878   0.875   3.798  0.00  0.00    +0.034 A 
ATOM      6  C   UNL     1       2.741  -0.188   3.565  0.00  0.00    +0.025 A 
ATOM      7  C   UNL     1       3.428  -0.762   4.616  0.00  0.00    +0.025 A 
ATOM      8  C   UNL     1       3.255  -0.278   5.906  0.00  0.00    +0.033 A 
ATOM      9  C   UNL     1       2.392   0.785   6.139  0.00  0.00    +0.025 A 
ATOM     10  C   UNL     1       1.710   1.363   5.087  0.00  0.00    +0.025 A 
BRANCH   5  13
ATOM     11  C   UNL     1       0.927   2.781   2.737  0.00  0.00    +0.242 C 
ATOM     12  O   UNL     1       1.239   3.456   3.695  0.00  0.00    -0.273 OA
ATOM     13  N   UNL     1       1.181   1.458   2.732  0.00  0.00    -0.284 N 
ATOM     14  H   UNL     1       0.882   0.909   1.990  0.00  0.00    +0.155 HD
BRANCH  11  16
ATOM     15  C   UNL     1      -1.119   2.784   1.335  0.00  0.00    +0.042 C 
ATOM     16  C   UNL     1       0.254   3.424   1.551  0.00  0.00    +0.191 C 
BRANCH  16  17
ATOM     17  N   UNL     1       0.091   4.858   1.800  0.00  0.00    -0.240 N 
ATOM     18  C   UNL     1      -0.913   5.451   2.468  0.00  0.00    +0.219 A 
ATOM     19  N   UNL     1      -0.693   6.741   2.471  0.00  0.00    -0.223 NA
ATOM     20  C   UNL     1       0.437   7.008   1.818  0.00  0.00    +0.245 A 
ATOM     21  N   UNL     1       0.956   5.887   1.392  0.00  0.00    -0.158 NA
ENDBRANCH  16  17
ENDBRANCH  11  16
ENDBRANCH   5  13
ENDBRANCH   1   8
BRANCH   2  22
ATOM     22  C   UNL     1       4.091  -1.644   9.314  0.00  0.00    +0.114 C 
BRANCH  22  23
ATOM     23  C   UNL     1       3.230  -1.589  10.578  0.00  0.00    +0.111 C 
BRANCH  23  24
ATOM     24  N   UNL     1       3.923  -2.275  11.671  0.00  0.00    -0.342 N 
ATOM     25  H   UNL     1       4.795  -2.672  11.520  0.00  0.00    +0.146 HD
BRANCH  24  26
ATOM     26  C   UNL     1       3.329  -2.356  12.933  0.00  0.00    +0.058 A 
ATOM     27  C   UNL     1       2.102  -1.746  13.165  0.00  0.00    +0.026 A 
ATOM     28  C   UNL     1       1.517  -1.829  14.413  0.00  0.00    +0.014 A 
ATOM     29  C   UNL     1       2.151  -2.517  15.431  0.00  0.00    +0.057 A 
ATOM     30  C   UNL     1       3.372  -3.124  15.204  0.00  0.00    +0.047 A 
ATOM     31  C   UNL     1       3.960  -3.050  13.956  0.00  0.00    +0.147 A 
BRANCH  29  32
ATOM     32  C   UNL     1       1.509  -2.604  16.792  0.00  0.00    +0.417 C 
ATOM     33  F   UNL     1       0.290  -1.919  16.778  0.00  0.00    -0.166 F 
ATOM     34  F   UNL     1       1.285  -3.947  17.116  0.00  0.00    -0.166 F 
ATOM     35  F   UNL     1       2.357  -2.029  17.745  0.00  0.00    -0.166 F 
ENDBRANCH  29  32
BRANCH  31  36
ATOM     36  N   UNL     1       5.264  -3.706  13.712  0.00  0.00    +0.058 N 
ATOM     37  O   UNL     1       5.478  -4.251  12.655  0.00  0.00    -0.126 OA
ATOM     38  O   UNL     1       6.116  -3.696  14.570  0.00  0.00    -0.126 OA
ENDBRANCH  31  36
ENDBRANCH  24  26
ENDBRANCH  23  24
ENDBRANCH  22  23
ENDBRANCH   2  22
TORSDOF 10
