REMARK  Name = ZINC63869761
REMARK  3 active torsions:
REMARK  status: ('A' for Active; 'I' for Inactive)
REMARK    1  A    between atoms: C_1  and  C_2
REMARK    2  A    between atoms: C_5  and  N_9
REMARK    3  A    between atoms: C_15  and  N_18
REMARK                            x       y       z     vdW  Elec       q    Type
REMARK                         _______ _______ _______ _____ _____    ______ ____
ROOT
ATOM      1  N   UNL     1      -1.995  -4.667   0.121  0.00  0.00    -0.274 N 
ATOM      2  C   UNL     1      -1.609  -4.051  -1.013  0.00  0.00    +0.304 C 
ATOM      3  O   UNL     1      -1.426  -2.849  -1.019  0.00  0.00    -0.253 OA
ATOM      4  N   UNL     1      -1.427  -4.766  -2.141  0.00  0.00    -0.285 N 
ATOM      5  C   UNL     1      -0.895  -4.129  -3.353  0.00  0.00    +0.111 C 
ATOM      6  C   UNL     1       0.321  -4.926  -3.837  0.00  0.00    +0.044 C 
ATOM      7  C   UNL     1      -0.075  -6.393  -4.019  0.00  0.00    +0.095 C 
ATOM      8  C   UNL     1      -0.529  -6.971  -2.676  0.00  0.00    +0.044 C 
ATOM      9  C   UNL     1      -1.749  -6.199  -2.179  0.00  0.00    +0.111 C 
ATOM     10  H   UNL     1      -2.212  -5.613   0.110  0.00  0.00    +0.153 HD
ENDROOT
BRANCH   7  11
ATOM     11  N   UNL     1       1.077  -7.152  -4.512  0.00  0.00    -0.289 N 
ATOM     12  C   UNL     1       1.137  -7.853  -5.715  0.00  0.00    +0.070 A 
ATOM     13  C   UNL     1       0.231  -8.053  -6.745  0.00  0.00    +0.028 A 
ATOM     14  C   UNL     1       0.591  -8.818  -7.837  0.00  0.00    +0.002 A 
ATOM     15  C   UNL     1       1.852  -9.385  -7.908  0.00  0.00    +0.002 A 
ATOM     16  C   UNL     1       2.760  -9.191  -6.886  0.00  0.00    +0.028 A 
ATOM     17  C   UNL     1       2.409  -8.424  -5.785  0.00  0.00    +0.067 A 
ATOM     18  N   UNL     1       3.082  -8.053  -4.624  0.00  0.00    -0.306 N 
ATOM     19  H   UNL     1       3.990  -8.301  -4.391  0.00  0.00    +0.170 HD
ATOM     20  C   UNL     1       2.260  -7.285  -3.884  0.00  0.00    +0.328 A 
ATOM     21  O   UNL     1       2.542  -6.791  -2.808  0.00  0.00    -0.247 OA
ENDBRANCH   7  11
BRANCH   1  25
ATOM     22  C   UNL     1      -3.658  -5.847   4.207  0.00  0.00    +0.042 C 
ATOM     23  C   UNL     1      -3.579  -5.143   2.851  0.00  0.00    +0.131 C 
ATOM     24  N   UNL     1      -2.172  -4.825   2.545  0.00  0.00    -0.273 NA
ATOM     25  C   UNL     1      -2.086  -3.910   1.372  0.00  0.00    +0.219 C 
ATOM     26  S   UNL     1      -3.690  -3.014   1.487  0.00  0.00    -0.040 S 
ATOM     27  N   UNL     1      -4.381  -3.884   2.896  0.00  0.00    -0.245 NA
ATOM     28  H   UNL     1      -1.708  -4.427   3.348  0.00  0.00    +0.126 HD
ATOM     29  H   UNL     1      -4.212  -3.378   3.753  0.00  0.00    +0.137 HD
ENDBRANCH   1  25
TORSDOF 2
