REMARK  Name = ZINC24177023
REMARK  9 active torsions:
REMARK  status: ('A' for Active; 'I' for Inactive)
REMARK    1  A    between atoms: C_1  and  C_2
REMARK    2  A    between atoms: C_2  and  C_3
REMARK    3  A    between atoms: C_6  and  C_9
REMARK    4  A    between atoms: C_10  and  C_11
REMARK    5  A    between atoms: N_13  and  N_14
REMARK    6  A    between atoms: C_15  and  C_17
REMARK    7  A    between atoms: C_21  and  S_23
REMARK    8  A    between atoms: S_23  and  N_26
REMARK    9  A    between atoms: N_26  and  C_27
REMARK                            x       y       z     vdW  Elec       q    Type
REMARK                         _______ _______ _______ _____ _____    ______ ____
ROOT
ATOM      1  N   UNL     1       1.065  -2.320  -0.449  0.00  0.00    -0.230 N 
ATOM      2  C   UNL     1       2.264  -2.930  -0.386  0.00  0.00    +0.260 C 
ATOM      3  O   UNL     1       3.284  -2.268  -0.383  0.00  0.00    -0.269 OA
ATOM      4  H   UNL     1       0.142  -2.919  -0.452  0.00  0.00    +0.173 HD
ENDROOT
BRANCH   2   5
ATOM      5  C   UNL     1       2.341  -4.405  -0.321  0.00  0.00    +0.040 A 
ATOM      6  C   UNL     1       1.172  -5.168  -0.319  0.00  0.00    +0.013 A 
ATOM      7  C   UNL     1       1.250  -6.544  -0.262  0.00  0.00    +0.003 A 
ATOM      8  C   UNL     1       2.483  -7.168  -0.198  0.00  0.00    +0.029 A 
ATOM      9  C   UNL     1       3.646  -6.418  -0.195  0.00  0.00    +0.111 A 
ATOM     10  C   UNL     1       3.581  -5.041  -0.255  0.00  0.00    +0.042 A 
BRANCH   9  11
ATOM     11  S   UNL     1       5.211  -7.222  -0.112  0.00  0.00    +0.092 S 
ATOM     12  O   UNL     1       5.019  -8.538  -0.613  0.00  0.00    -0.148 OA
ATOM     13  O   UNL     1       6.159  -6.324  -0.672  0.00  0.00    -0.148 OA
BRANCH  11  14
ATOM     14  N   UNL     1       5.597  -7.378   1.491  0.00  0.00    -0.096 NA
BRANCH  14  15
ATOM     15  C   UNL     1       4.767  -8.113   2.341  0.00  0.00    +0.093 A 
ATOM     16  C   UNL     1       4.118  -9.248   1.872  0.00  0.00    +0.028 A 
ATOM     17  C   UNL     1       3.302  -9.975   2.716  0.00  0.00    +0.002 A 
ATOM     18  C   UNL     1       3.121  -9.568   4.025  0.00  0.00    +0.002 A 
ATOM     19  C   UNL     1       3.760  -8.436   4.496  0.00  0.00    +0.022 A 
ATOM     20  C   UNL     1       4.583  -7.707   3.658  0.00  0.00    +0.065 A 
ATOM     21 CL   UNL     1       5.384  -6.285   4.248  0.00  0.00    -0.082 Cl
ENDBRANCH  14  15
ENDBRANCH  11  14
ENDBRANCH   9  11
ENDBRANCH   2   5
BRANCH   1  24
ATOM     22  C   UNL     1      -0.207  -0.311  -0.574  0.00  0.00    +0.253 C 
ATOM     23  O   UNL     1      -1.228  -0.974  -0.577  0.00  0.00    -0.269 OA
ATOM     24  N   UNL     1       0.992  -0.922  -0.511  0.00  0.00    -0.231 N 
ATOM     25  H   UNL     1       1.915  -0.323  -0.508  0.00  0.00    +0.173 HD
BRANCH  22  27
ATOM     26  C   UNL     1      -1.483   1.760  -0.707  0.00  0.00    +0.013 C 
ATOM     27  C   UNL     1      -0.283   1.150  -0.639  0.00  0.00    +0.069 C 
BRANCH  26  31
ATOM     28  C   UNL     1      -1.702   5.993  -0.893  0.00  0.00    -0.048 A 
ATOM     29  C   UNL     1      -2.865   5.242  -0.904  0.00  0.00    +0.004 A 
ATOM     30  C   UNL     1      -2.802   3.866  -0.844  0.00  0.00    +0.008 A 
ATOM     31  C   UNL     1      -1.559   3.229  -0.772  0.00  0.00    -0.025 A 
ATOM     32  C   UNL     1      -0.389   3.994  -0.757  0.00  0.00    +0.008 A 
ATOM     33  C   UNL     1      -0.468   5.370  -0.822  0.00  0.00    +0.004 A 
BRANCH  28  35
ATOM     34  C   UNL     1      -1.858   8.065   0.460  0.00  0.00    +0.009 C 
ATOM     35  C   UNL     1      -1.780   7.496  -0.959  0.00  0.00    +0.032 C 
ENDBRANCH  28  35
ENDBRANCH  26  31
ENDBRANCH  22  27
ENDBRANCH   1  24
TORSDOF 8
