REMARK  Name = ZINC31853515
REMARK  5 active torsions:
REMARK  status: ('A' for Active; 'I' for Inactive)
REMARK    1  A    between atoms: C_4  and  N_7
REMARK    2  A    between atoms: C_11  and  C_13
REMARK    3  A    between atoms: C_13  and  S_14
REMARK    4  A    between atoms: S_14  and  C_15
REMARK    5  A    between atoms: N_19  and  C_20
REMARK                            x       y       z     vdW  Elec       q    Type
REMARK                         _______ _______ _______ _____ _____    ______ ____
ROOT
ATOM      1  N   UNL     1       7.576  -3.850  -3.031  0.00  0.00    -0.296 N 
ATOM      2  C   UNL     1       6.310  -3.527  -2.701  0.00  0.00    +0.306 C 
ATOM      3  O   UNL     1       5.420  -4.344  -2.833  0.00  0.00    -0.252 OA
ATOM      4  N   UNL     1       6.030  -2.297  -2.225  0.00  0.00    -0.239 N 
ATOM      5  C   UNL     1       4.764  -1.974  -1.895  0.00  0.00    +0.231 C 
ATOM      6  O   UNL     1       3.877  -2.789  -2.027  0.00  0.00    -0.274 OA
ATOM      7  H   UNL     1       8.381  -3.110  -2.912  0.00  0.00    +0.151 HD
ATOM      8  H   UNL     1       6.836  -1.558  -2.106  0.00  0.00    +0.159 HD
ENDROOT
BRANCH   1  12
ATOM      9  C   UNL     1       9.681  -7.486  -3.772  0.00  0.00    +0.000 C 
ATOM     10  C   UNL     1       9.466  -6.523  -4.941  0.00  0.00    +0.002 C 
ATOM     11  C   UNL     1       9.149  -5.127  -4.400  0.00  0.00    +0.022 C 
ATOM     12  C   UNL     1       7.880  -5.186  -3.549  0.00  0.00    +0.074 C 
ATOM     13  C   UNL     1       8.094  -6.150  -2.380  0.00  0.00    +0.022 C 
ATOM     14  C   UNL     1       8.411  -7.545  -2.920  0.00  0.00    +0.002 C 
ENDBRANCH   1  12
BRANCH   5  15
ATOM     15  C   UNL     1       4.452  -0.599  -1.363  0.00  0.00    +0.173 C 
BRANCH  15  16
ATOM     16  S   UNL     1       2.676  -0.474  -1.015  0.00  0.00    -0.077 S 
BRANCH  16  17
ATOM     17  C   UNL     1       2.475   1.168  -0.408  0.00  0.00    +0.194 A 
ATOM     18  N   UNL     1       3.427   2.057  -0.262  0.00  0.00    -0.121 NA
ATOM     19  N   UNL     1       2.849   3.229   0.245  0.00  0.00    -0.113 NA
ATOM     20  C   UNL     1       1.564   3.019   0.386  0.00  0.00    +0.215 A 
ATOM     21  N   UNL     1       1.299   1.738  -0.008  0.00  0.00    -0.288 N 
ATOM     22  N   UNL     1       0.634   3.936   0.858  0.00  0.00    -0.328 N 
ATOM     23  H   UNL     1      -0.426   3.654   0.936  0.00  0.00    +0.145 HD
ATOM     24  H   UNL     1       0.958   4.946   1.153  0.00  0.00    +0.145 HD
BRANCH  21  25
ATOM     25  C   UNL     1      -0.015   1.091  -0.008  0.00  0.00    +0.093 C 
ATOM     26  C   UNL     1      -0.185  -0.165  -0.865  0.00  0.00    +0.027 C 
ATOM     27  C   UNL     1      -0.127  -0.281   0.660  0.00  0.00    +0.027 C 
ENDBRANCH  21  25
ENDBRANCH  16  17
ENDBRANCH  15  16
ENDBRANCH   5  15
TORSDOF 5
