REMARK  Name = ZINC33933477
REMARK  8 active torsions:
REMARK  status: ('A' for Active; 'I' for Inactive)
REMARK    1  A    between atoms: C_1  and  C_2
REMARK    2  A    between atoms: C_2  and  C_4
REMARK    3  A    between atoms: C_2  and  O_39
REMARK    4  A    between atoms: C_4  and  C_36
REMARK    5  A    between atoms: C_9  and  C_12
REMARK    6  A    between atoms: C_16  and  C_18
REMARK    7  A    between atoms: N_24  and  C_27
REMARK    8  A    between atoms: C_31  and  N_33
REMARK                            x       y       z     vdW  Elec       q    Type
REMARK                         _______ _______ _______ _____ _____    ______ ____
ROOT
ATOM      1  C   UNL     1       0.718  -0.497  -1.257  0.00  0.00    +0.074 C 
ATOM      2  C   UNL     1       0.805  -2.015  -1.251  0.00  0.00    +0.089 C 
ATOM      3  C   UNL     1      -0.597  -2.331  -1.899  0.00  0.00    +0.077 C 
ATOM      4  C   UNL     1      -0.604  -1.433  -3.066  0.00  0.00    -0.027 C 
ATOM      5  N   UNL     1      -0.074  -0.146  -2.474  0.00  0.00    +0.397 N 
ATOM      6  C   UNL     1      -0.761  -3.726  -1.575  0.00  0.00    +0.229 C 
ATOM      7  O   UNL     1      -1.309  -4.578  -2.241  0.00  0.00    -0.275 OA
ATOM      8  N   UNL     1      -0.161  -3.881  -0.350  0.00  0.00    -0.210 N 
ATOM      9  C   UNL     1       0.618  -2.804   0.007  0.00  0.00    +0.229 C 
ATOM     10  O   UNL     1       1.059  -2.541   1.105  0.00  0.00    -0.275 OA
ATOM     11  H   UNL     1      -0.840   0.461  -2.219  0.00  0.00    -0.083 HD
ATOM     12  H   UNL     1       0.519   0.316  -3.147  0.00  0.00    -0.083 HD
ENDROOT
BRANCH   4  13
ATOM     13  C   UNL     1       0.298  -1.960  -4.152  0.00  0.00    -0.060 A 
ATOM     14  C   UNL     1       1.665  -1.767  -4.070  0.00  0.00    +0.002 A 
ATOM     15  C   UNL     1       2.493  -2.251  -5.066  0.00  0.00    +0.001 A 
ATOM     16  C   UNL     1       1.954  -2.928  -6.144  0.00  0.00    +0.012 A 
ATOM     17  C   UNL     1       0.588  -3.122  -6.226  0.00  0.00    +0.055 A 
ATOM     18  C   UNL     1      -0.239  -2.642  -5.228  0.00  0.00    +0.014 A 
BRANCH  17  19
ATOM     19  C   UNL     1       0.001  -3.859  -7.402  0.00  0.00    +0.417 C 
ATOM     20  F   UNL     1       1.028  -4.247  -8.269  0.00  0.00    -0.166 F 
ATOM     21  F   UNL     1      -0.679  -4.995  -6.947  0.00  0.00    -0.166 F 
ATOM     22  F   UNL     1      -0.891  -3.022  -8.079  0.00  0.00    -0.166 F 
ENDBRANCH  17  19
ENDBRANCH   4  13
BRANCH   8  23
ATOM     23  C   UNL     1      -0.316  -5.021   0.452  0.00  0.00    +0.046 A 
ATOM     24  C   UNL     1       0.321  -5.097   1.683  0.00  0.00    +0.024 A 
ATOM     25  C   UNL     1       0.167  -6.221   2.471  0.00  0.00    +0.004 A 
ATOM     26  C   UNL     1      -0.622  -7.270   2.034  0.00  0.00    +0.033 A 
ATOM     27  C   UNL     1      -1.257  -7.197   0.808  0.00  0.00    +0.128 A 
ATOM     28  C   UNL     1      -1.111  -6.073   0.019  0.00  0.00    +0.056 A 
BRANCH  27  29
ATOM     29  N   UNL     1      -2.099  -8.322   0.344  0.00  0.00    +0.056 N 
ATOM     30  O   UNL     1      -2.232  -9.304   1.038  0.00  0.00    -0.126 OA
ATOM     31  O   UNL     1      -2.655  -8.260  -0.727  0.00  0.00    -0.126 OA
ENDBRANCH  27  29
ENDBRANCH   8  23
BRANCH   1  32
ATOM     32  C   UNL     1       2.097   0.105  -1.341  0.00  0.00    +0.349 C 
ATOM     33  O   UNL     1       2.911  -0.111  -0.460  0.00  0.00    -0.248 OA
ATOM     34  O   UNL     1       2.398   0.808  -2.290  0.00  0.00    -0.248 OA
ENDBRANCH   1  32
BRANCH   1  36
ATOM     35  C   UNL     1      -0.027   1.526   0.006  0.00  0.00    +0.037 C 
ATOM     36  C   UNL     1       0.002  -0.004   0.002  0.00  0.00    +0.112 C 
BRANCH  36  37
ATOM     37  O   UNL     1      -1.336  -0.506   0.017  0.00  0.00    -0.393 OA
ATOM     38  H   UNL     1      -1.850  -0.232   0.788  0.00  0.00    +0.210 HD
ENDBRANCH  36  37
ENDBRANCH   1  36
TORSDOF 7
