REMARK  Name = ZINC00616336
REMARK  4 active torsions:
REMARK  status: ('A' for Active; 'I' for Inactive)
REMARK    1  A    between atoms: C_4  and  C_7
REMARK    2  A    between atoms: C_12  and  C_20
REMARK    3  A    between atoms: C_14  and  C_18
REMARK    4  A    between atoms: C_15  and  N_17
REMARK                            x       y       z     vdW  Elec       q    Type
REMARK                         _______ _______ _______ _____ _____    ______ ____
ROOT
ATOM      1  C   UNL     1       2.874   5.625  -3.370  0.00  0.00    +0.034 C 
ATOM      2  C   UNL     1       3.888   4.985  -2.420  0.00  0.00    +0.083 C 
ATOM      3  C   UNL     1       3.182   4.499  -1.175  0.00  0.00    +0.115 C 
ATOM      4  C   UNL     1       1.909   4.074  -1.230  0.00  0.00    +0.046 C 
ATOM      5  C   UNL     1       1.207   3.577   0.010  0.00  0.00    +0.101 C 
ATOM      6  C   UNL     1       1.930   4.058   1.237  0.00  0.00    +0.098 C 
ATOM      7  C   UNL     1       3.211   4.493   1.151  0.00  0.00    +0.198 C 
ATOM      8  O   UNL     1       3.869   4.502  -0.018  0.00  0.00    -0.445 OA
ATOM      9  C   UNL     1       1.186   4.079  -2.441  0.00  0.00    +0.164 C 
ATOM     10  O   UNL     1       0.041   3.672  -2.455  0.00  0.00    -0.292 OA
ATOM     11  C   UNL     1       1.807   4.581  -3.716  0.00  0.00    +0.088 C 
ENDROOT
BRANCH   1  15
ATOM     12  C   UNL     1       4.853   6.893  -6.937  0.00  0.00    +0.000 A 
ATOM     13  C   UNL     1       4.194   7.816  -6.147  0.00  0.00    +0.000 A 
ATOM     14  C   UNL     1       3.554   7.406  -4.992  0.00  0.00    +0.004 A 
ATOM     15  C   UNL     1       3.572   6.072  -4.628  0.00  0.00    -0.043 A 
ATOM     16  C   UNL     1       4.236   5.150  -5.416  0.00  0.00    +0.004 A 
ATOM     17  C   UNL     1       4.872   5.560  -6.573  0.00  0.00    +0.000 A 
ENDBRANCH   1  15
BRANCH   5  18
ATOM     18  C   UNL     1       1.185   2.070   0.002  0.00  0.00    -0.032 A 
ATOM     19  C   UNL     1      -0.017   1.378   0.010  0.00  0.00    +0.024 A 
ATOM     20  C   UNL     1       0.002  -0.004   0.002  0.00  0.00    +0.111 A 
ATOM     21  N   UNL     1       1.144  -0.663  -0.012  0.00  0.00    -0.263 NA
ATOM     22  C   UNL     1       2.305  -0.038  -0.020  0.00  0.00    +0.111 A 
ATOM     23  C   UNL     1       2.365   1.343  -0.013  0.00  0.00    +0.024 A 
ENDBRANCH   5  18
BRANCH   7  24
ATOM     24  N   UNL     1       3.848   4.933   2.285  0.00  0.00    -0.328 N 
ATOM     25  H   UNL     1       3.382   4.931   3.135  0.00  0.00    +0.145 HD
ATOM     26  H   UNL     1       4.765   5.247   2.235  0.00  0.00    +0.145 HD
ENDBRANCH   7  24
BRANCH   6  27
ATOM     27  C   UNL     1       1.262   4.057   2.504  0.00  0.00    +0.101 C 
ATOM     28  N   UNL     1       0.732   4.056   3.508  0.00  0.00    -0.191 NA
ENDBRANCH   6  27
TORSDOF 4
