REMARK  Name = ZINC63390588
REMARK  7 active torsions:
REMARK  status: ('A' for Active; 'I' for Inactive)
REMARK    1  A    between atoms: C_1  and  C_2
REMARK    2  A    between atoms: C_2  and  O_3
REMARK    3  A    between atoms: O_3  and  C_4
REMARK    4  A    between atoms: C_8  and  C_10
REMARK    5  A    between atoms: C_10  and  C_11
REMARK    6  A    between atoms: C_10  and  N_12
REMARK    7  A    between atoms: N_15  and  C_16
REMARK                            x       y       z     vdW  Elec       q    Type
REMARK                         _______ _______ _______ _____ _____    ______ ____
ROOT
ATOM      1  N   UNL     1      -4.348  -5.524  -0.889  0.00  0.00    -0.293 N 
ATOM      2  C   UNL     1      -5.514  -5.918  -1.439  0.00  0.00    +0.304 C 
ATOM      3  O   UNL     1      -6.538  -5.310  -1.193  0.00  0.00    -0.252 OA
ATOM      4  N   UNL     1      -5.544  -6.985  -2.262  0.00  0.00    -0.269 N 
ATOM      5  H   UNL     1      -3.531  -6.008  -1.086  0.00  0.00    +0.151 HD
ATOM      6  H   UNL     1      -4.719  -7.428  -2.512  0.00  0.00    +0.156 HD
ENDROOT
BRANCH   4   7
ATOM      7  C   UNL     1      -6.769  -7.453  -2.757  0.00  0.00    +0.035 A 
ATOM      8  C   UNL     1      -6.967  -8.815  -2.943  0.00  0.00    +0.025 A 
ATOM      9  C   UNL     1      -8.173  -9.277  -3.430  0.00  0.00    +0.025 A 
ATOM     10  C   UNL     1      -9.189  -8.379  -3.733  0.00  0.00    +0.037 A 
ATOM     11  C   UNL     1      -8.990  -7.018  -3.546  0.00  0.00    -0.024 A 
ATOM     12  C   UNL     1      -7.786  -6.556  -3.055  0.00  0.00    +0.028 A 
ATOM     13  C   UNL     1     -10.095  -6.047  -3.875  0.00  0.00    +0.046 C 
ATOM     14  C   UNL     1     -10.890  -6.564  -5.074  0.00  0.00    +0.101 C 
ATOM     15  C   UNL     1     -11.254  -8.009  -4.863  0.00  0.00    +0.218 C 
ATOM     16  O   UNL     1     -12.318  -8.425  -5.272  0.00  0.00    -0.275 OA
ATOM     17  N   UNL     1     -10.414  -8.845  -4.226  0.00  0.00    -0.285 N 
ATOM     18  H   UNL     1     -10.658  -9.776  -4.108  0.00  0.00    +0.155 HD
ENDBRANCH   4   7
BRANCH   1  19
ATOM     19  C   UNL     1      -4.315  -4.364   0.005  0.00  0.00    +0.102 C 
ATOM     20  C   UNL     1      -4.667  -4.806   1.427  0.00  0.00    +0.033 C 
BRANCH  19  25
ATOM     21  C   UNL     1      -1.509  -1.833  -0.009  0.00  0.00    +0.121 A 
ATOM     22  C   UNL     1      -0.394  -2.659  -0.026  0.00  0.00    +0.045 A 
ATOM     23  C   UNL     1      -0.553  -4.031  -0.033  0.00  0.00    +0.004 A 
ATOM     24  C   UNL     1      -1.822  -4.582  -0.022  0.00  0.00    +0.006 A 
ATOM     25  C   UNL     1      -2.934  -3.761  -0.006  0.00  0.00    -0.024 A 
ATOM     26  C   UNL     1      -2.780  -2.388   0.007  0.00  0.00    +0.051 A 
BRANCH  21  27
ATOM     27  O   UNL     1      -1.355  -0.483  -0.002  0.00  0.00    -0.492 OA
BRANCH  27  29
ATOM     28  C   UNL     1      -0.045   1.548  -0.008  0.00  0.00    +0.048 C 
ATOM     29  C   UNL     1      -0.017   0.018  -0.019  0.00  0.00    +0.225 C 
ENDBRANCH  27  29
ENDBRANCH  21  27
ENDBRANCH  19  25
ENDBRANCH   1  19
TORSDOF 5
