REMARK  Name = ZINC09255348
REMARK  7 active torsions:
REMARK  status: ('A' for Active; 'I' for Inactive)
REMARK    1  A    between atoms: C_1  and  N_2
REMARK    2  A    between atoms: N_2  and  C_3
REMARK    3  A    between atoms: C_4  and  N_19
REMARK    4  A    between atoms: N_5  and  C_12
REMARK    5  A    between atoms: C_12  and  C_13
REMARK    6  A    between atoms: C_20  and  C_22
REMARK    7  A    between atoms: C_23  and  C_24
REMARK                            x       y       z     vdW  Elec       q    Type
REMARK                         _______ _______ _______ _____ _____    ______ ____
ROOT
ATOM      1  C   UNL     1      -3.656  -5.038   0.103  0.00  0.00    +0.140 A 
ATOM      2  C   UNL     1      -4.619  -5.049  -0.886  0.00  0.00    +0.128 A 
ATOM      3  N   UNL     1      -5.689  -5.905  -0.772  0.00  0.00    -0.276 N 
ATOM      4  C   UNL     1      -5.802  -6.715   0.296  0.00  0.00    +0.331 A 
ATOM      5  O   UNL     1      -6.759  -7.461   0.381  0.00  0.00    -0.246 OA
ATOM      6  N   UNL     1      -4.877  -6.715   1.272  0.00  0.00    -0.273 N 
ATOM      7  H   UNL     1      -4.985  -7.328   2.055  0.00  0.00    +0.173 HD
ATOM      8  C   UNL     1      -3.806  -5.900   1.207  0.00  0.00    +0.277 A 
ATOM      9  O   UNL     1      -2.973  -5.908   2.097  0.00  0.00    -0.266 OA
ENDROOT
BRANCH   1  11
ATOM     10  C   UNL     1      -1.199  -4.731  -0.153  0.00  0.00    +0.139 C 
ATOM     11  N   UNL     1      -2.544  -4.176   0.013  0.00  0.00    -0.264 N 
ATOM     12  C   UNL     1      -2.720  -2.842   0.079  0.00  0.00    +0.244 C 
ATOM     13  O   UNL     1      -3.844  -2.377   0.116  0.00  0.00    -0.270 OA
BRANCH  12  14
ATOM     14  C   UNL     1      -1.555  -1.950   0.107  0.00  0.00    +0.070 C 
ATOM     15  C   UNL     1      -1.730  -0.616   0.174  0.00  0.00    +0.033 C 
BRANCH  15  16
ATOM     16  C   UNL     1      -0.560   0.280   0.201  0.00  0.00    +0.065 A 
ATOM     17  C   UNL     1      -0.761   1.671   0.271  0.00  0.00    +0.028 A 
ATOM     18  C   UNL     1       0.313   2.509   0.297  0.00  0.00    +0.012 A 
ATOM     19  C   UNL     1       1.603   1.944   0.252  0.00  0.00    +0.000 A 
ATOM     20  C   UNL     1       2.752   2.751   0.275  0.00  0.00    +0.010 A 
ATOM     21  C   UNL     1       3.983   2.171   0.231  0.00  0.00    +0.001 A 
ATOM     22  C   UNL     1       4.120   0.785   0.162  0.00  0.00    +0.002 A 
ATOM     23  C   UNL     1       3.030  -0.028   0.138  0.00  0.00    +0.028 A 
ATOM     24  C   UNL     1       1.739   0.534   0.183  0.00  0.00    +0.072 A 
ATOM     25  N   UNL     1       0.654  -0.240   0.160  0.00  0.00    -0.247 NA
ENDBRANCH  15  16
ENDBRANCH  12  14
ENDBRANCH   1  11
BRANCH   2  26
ATOM     26  N   UNL     1      -4.506  -4.217  -1.974  0.00  0.00    -0.343 N 
ATOM     27  H   UNL     1      -3.787  -3.568  -2.016  0.00  0.00    +0.144 HD
ATOM     28  H   UNL     1      -5.146  -4.279  -2.700  0.00  0.00    +0.144 HD
ENDBRANCH   2  26
BRANCH   3  29
ATOM     29  C   UNL     1      -6.715  -5.930  -1.817  0.00  0.00    +0.163 C 
BRANCH  29  30
ATOM     30  C   UNL     1      -7.793  -4.930  -1.487  0.00  0.00    -0.028 A 
ATOM     31  C   UNL     1      -8.886  -5.315  -0.734  0.00  0.00    +0.005 A 
ATOM     32  C   UNL     1      -9.873  -4.396  -0.427  0.00  0.00    +0.000 A 
ATOM     33  C   UNL     1      -9.770  -3.095  -0.881  0.00  0.00    +0.000 A 
ATOM     34  C   UNL     1      -8.680  -2.711  -1.639  0.00  0.00    +0.000 A 
ATOM     35  C   UNL     1      -7.691  -3.628  -1.941  0.00  0.00    +0.005 A 
ENDBRANCH  29  30
ENDBRANCH   3  29
TORSDOF 6
