REMARK  Name = ZINC07723742
REMARK  10 active torsions:
REMARK  status: ('A' for Active; 'I' for Inactive)
REMARK    1  A    between atoms: C_1  and  C_2
REMARK    2  A    between atoms: C_2  and  C_3
REMARK    3  A    between atoms: C_3  and  C_4
REMARK    4  A    between atoms: C_4  and  N_5
REMARK    5  A    between atoms: C_6  and  N_27
REMARK    6  A    between atoms: C_7  and  N_14
REMARK    7  A    between atoms: N_14  and  C_15
REMARK    8  A    between atoms: C_15  and  C_16
REMARK    9  A    between atoms: C_16  and  C_17
REMARK   10  A    between atoms: C_18  and  C_20
REMARK                            x       y       z     vdW  Elec       q    Type
REMARK                         _______ _______ _______ _____ _____    ______ ____
ROOT
ATOM      1  N   UNL     1      -0.791   2.234   0.352  0.00  0.00    -0.280 N 
ATOM      2  C   UNL     1       0.259   3.120   0.418  0.00  0.00    +0.127 A 
ATOM      3  C   UNL     1       1.551   2.640   0.345  0.00  0.00    +0.140 A 
ATOM      4  C   UNL     1       1.753   1.254   0.204  0.00  0.00    +0.277 A 
ATOM      5  O   UNL     1       2.884   0.802   0.137  0.00  0.00    -0.266 OA
ATOM      6  N   UNL     1       0.689   0.429   0.145  0.00  0.00    -0.273 N 
ATOM      7  H   UNL     1       0.832  -0.556   0.049  0.00  0.00    +0.173 HD
ATOM      8  C   UNL     1      -0.562   0.916   0.213  0.00  0.00    +0.331 A 
ATOM      9  O   UNL     1      -1.505   0.150   0.152  0.00  0.00    -0.246 OA
ENDROOT
BRANCH   3  10
ATOM     10  N   UNL     1       2.649   3.522   0.409  0.00  0.00    -0.260 N 
ATOM     11  C   UNL     1       3.542   3.562  -0.599  0.00  0.00    +0.251 C 
ATOM     12  O   UNL     1       4.530   4.266  -0.510  0.00  0.00    -0.270 OA
BRANCH  11  13
ATOM     13  C   UNL     1       3.321   2.750  -1.813  0.00  0.00    +0.037 A 
ATOM     14  C   UNL     1       2.042   2.284  -2.122  0.00  0.00    +0.016 A 
ATOM     15  C   UNL     1       1.840   1.531  -3.259  0.00  0.00    +0.039 A 
ATOM     16  C   UNL     1       2.907   1.228  -4.090  0.00  0.00    +0.123 A 
ATOM     17  C   UNL     1       4.181   1.683  -3.786  0.00  0.00    +0.039 A 
ATOM     18  C   UNL     1       4.393   2.441  -2.654  0.00  0.00    +0.016 A 
ATOM     19  F   UNL     1       2.705   0.485  -5.201  0.00  0.00    -0.205 F 
ENDBRANCH  11  13
BRANCH  10  20
ATOM     20  C   UNL     1       2.819   4.396   1.573  0.00  0.00    +0.114 C 
BRANCH  20  21
ATOM     21  C   UNL     1       3.651   3.673   2.635  0.00  0.00    +0.016 C 
ATOM     22  C   UNL     1       3.828   4.586   3.851  0.00  0.00    +0.005 C 
ENDBRANCH  20  21
ENDBRANCH  10  20
ENDBRANCH   3  10
BRANCH   2  23
ATOM     23  N   UNL     1       0.025   4.467   0.556  0.00  0.00    -0.343 N 
ATOM     24  H   UNL     1       0.756   5.098   0.462  0.00  0.00    +0.144 HD
ATOM     25  H   UNL     1      -0.870   4.787   0.746  0.00  0.00    +0.144 HD
ENDBRANCH   2  23
BRANCH   1  26
ATOM     26  C   UNL     1      -2.168   2.731   0.429  0.00  0.00    +0.128 C 
BRANCH  26  27
ATOM     27  C   UNL     1      -2.676   3.044  -0.979  0.00  0.00    +0.021 C 
BRANCH  27  29
ATOM     28  C   UNL     1      -4.622   3.876  -2.308  0.00  0.00    +0.004 C 
ATOM     29  C   UNL     1      -4.113   3.562  -0.899  0.00  0.00    -0.002 C 
ENDBRANCH  27  29
ENDBRANCH  26  27
ENDBRANCH   1  26
TORSDOF 8
