REMARK  Name = ZINC59599968
REMARK  10 active torsions:
REMARK  status: ('A' for Active; 'I' for Inactive)
REMARK    1  A    between atoms: C_1  and  C_2
REMARK    2  A    between atoms: C_2  and  O_3
REMARK    3  A    between atoms: O_3  and  C_4
REMARK    4  A    between atoms: C_6  and  C_15
REMARK    5  A    between atoms: C_9  and  O_10
REMARK    6  A    between atoms: O_10  and  C_11
REMARK    7  A    between atoms: C_11  and  C_12
REMARK    8  A    between atoms: N_19  and  C_32
REMARK    9  A    between atoms: N_21  and  C_22
REMARK   10  A    between atoms: C_26  and  C_28
REMARK                            x       y       z     vdW  Elec       q    Type
REMARK                         _______ _______ _______ _____ _____    ______ ____
ROOT
ATOM      1  C   UNL     1       0.927  -4.846   1.529  0.00  0.00    +0.028 C 
ATOM      2  C   UNL     1       0.661  -6.176   1.484  0.00  0.00    +0.078 C 
ATOM      3  C   UNL     1      -0.542  -6.905   1.929  0.00  0.00    +0.259 C 
ATOM      4  O   UNL     1      -1.492  -6.324   2.422  0.00  0.00    -0.269 OA
ATOM      5  N   UNL     1      -0.542  -8.217   1.769  0.00  0.00    -0.249 N 
ATOM      6  C   UNL     1       0.543  -8.856   1.209  0.00  0.00    +0.168 C 
ATOM      7  N   UNL     1       0.707 -10.139   0.979  0.00  0.00    -0.225 NA
ATOM      8  S   UNL     1       1.669  -7.514   0.864  0.00  0.00    -0.049 S 
ATOM      9  C   UNL     1      -1.706  -9.000   2.190  0.00  0.00    +0.140 C 
ENDROOT
BRANCH   1  12
ATOM     10  C   UNL     1      -1.118  -1.824   2.398  0.00  0.00    +0.164 A 
ATOM     11  C   UNL     1      -0.265  -2.672   1.720  0.00  0.00    +0.057 A 
ATOM     12  C   UNL     1       0.021  -3.939   2.245  0.00  0.00    -0.019 A 
ATOM     13  C   UNL     1      -0.559  -4.338   3.455  0.00  0.00    +0.032 A 
ATOM     14  C   UNL     1      -1.410  -3.484   4.125  0.00  0.00    +0.087 A 
ATOM     15  C   UNL     1      -1.688  -2.226   3.605  0.00  0.00    +0.182 A 
ATOM     16 CL   UNL     1      -2.130  -3.979   5.625  0.00  0.00    -0.080 Cl
BRANCH  10  17
ATOM     17  O   UNL     1      -1.398  -0.594   1.891  0.00  0.00    -0.489 OA
BRANCH  17  19
ATOM     18  C   UNL     1      -1.209   1.163   0.242  0.00  0.00    +0.048 C 
ATOM     19  C   UNL     1      -0.779  -0.248   0.650  0.00  0.00    +0.226 C 
ENDBRANCH  17  19
ENDBRANCH  10  17
BRANCH  15  20
ATOM     20  O   UNL     1      -2.523  -1.386   4.273  0.00  0.00    -0.474 OA
BRANCH  20  21
ATOM     21  C   UNL     1      -3.914  -1.472   3.960  0.00  0.00    +0.317 C 
BRANCH  21  22
ATOM     22  C   UNL     1      -4.660  -0.497   4.772  0.00  0.00    -0.065 C 
ATOM     23  C   UNL     1      -5.255   0.281   5.420  0.00  0.00    +0.007 C 
ENDBRANCH  21  22
ENDBRANCH  20  21
ENDBRANCH  15  20
ENDBRANCH   1  12
BRANCH   7  24
ATOM     24  C   UNL     1      -0.315 -11.015   1.231  0.00  0.00    +0.067 A 
ATOM     25  C   UNL     1      -1.292 -11.250   0.260  0.00  0.00    +0.028 A 
ATOM     26  C   UNL     1      -2.323 -12.133   0.512  0.00  0.00    +0.003 A 
ATOM     27  C   UNL     1      -2.397 -12.791   1.724  0.00  0.00    +0.015 A 
ATOM     28  C   UNL     1      -1.427 -12.566   2.705  0.00  0.00    +0.065 A 
ATOM     29  C   UNL     1      -0.379 -11.680   2.455  0.00  0.00    +0.043 A 
BRANCH  28  30
ATOM     30  C   UNL     1      -1.507 -13.269   4.000  0.00  0.00    +0.387 C 
ATOM     31  O   UNL     1      -2.424 -14.049   4.216  0.00  0.00    -0.241 OA
ATOM     32  O   UNL     1      -0.658 -13.071   4.857  0.00  0.00    -0.241 OA
ENDBRANCH  28  30
ENDBRANCH   7  24
TORSDOF 8
