REMARK  Name = ZINC16856566
REMARK  8 active torsions:
REMARK  status: ('A' for Active; 'I' for Inactive)
REMARK    1  A    between atoms: C_1  and  C_2
REMARK    2  A    between atoms: N_5  and  C_7
REMARK    3  A    between atoms: C_10  and  C_13
REMARK    4  A    between atoms: C_13  and  O_15
REMARK    5  A    between atoms: O_15  and  C_16
REMARK    6  A    between atoms: C_18  and  N_31
REMARK    7  A    between atoms: C_19  and  C_29
REMARK    8  A    between atoms: C_20  and  C_22
REMARK                            x       y       z     vdW  Elec       q    Type
REMARK                         _______ _______ _______ _____ _____    ______ ____
ROOT
ATOM      1  C   UNL     1      -0.244   6.756  -0.894  0.00  0.00    +0.068 C 
ATOM      2  C   UNL     1       0.514   5.554  -0.394  0.00  0.00    +0.068 A 
ATOM      3  C   UNL     1       1.659   5.582   0.391  0.00  0.00    +0.050 A 
ATOM      4  C   UNL     1       2.038   4.292   0.636  0.00  0.00    +0.230 A 
ATOM      5  N   UNL     1       1.154   3.483   0.010  0.00  0.00    -0.200 N 
ATOM      6  N   UNL     1       0.206   4.300  -0.626  0.00  0.00    -0.168 NA
ATOM      7  O   UNL     1       3.130   3.977   1.375  0.00  0.00    -0.423 OA
ATOM      8  C   UNL     1       3.690   4.958   2.111  0.00  0.00    +0.200 C 
ATOM      9  C   UNL     1       3.403   6.270   1.957  0.00  0.00    +0.098 C 
ATOM     10  C   UNL     1       2.418   6.768   0.929  0.00  0.00    +0.101 C 
ENDROOT
BRANCH  10  11
ATOM     11  C   UNL     1       3.157   7.451  -0.194  0.00  0.00    -0.034 A 
ATOM     12  C   UNL     1       4.108   6.756  -0.918  0.00  0.00    +0.005 A 
ATOM     13  C   UNL     1       4.782   7.381  -1.950  0.00  0.00    +0.015 A 
ATOM     14  C   UNL     1       4.512   8.704  -2.252  0.00  0.00    +0.018 A 
ATOM     15  C   UNL     1       3.564   9.399  -1.524  0.00  0.00    +0.015 A 
ATOM     16  C   UNL     1       2.887   8.773  -0.495  0.00  0.00    +0.005 A 
ATOM     17 BR   UNL     1       5.440   9.560  -3.660  0.00  0.00    -0.050 Br
ENDBRANCH  10  11
BRANCH   5  18
ATOM     18  C   UNL     1       1.177   2.086   0.002  0.00  0.00    +0.069 A 
ATOM     19  C   UNL     1      -0.017   1.373   0.010  0.00  0.00    +0.029 A 
ATOM     20  C   UNL     1       0.002  -0.004   0.002  0.00  0.00    +0.017 A 
ATOM     21  C   UNL     1       1.223  -0.685  -0.013  0.00  0.00    +0.059 A 
ATOM     22  C   UNL     1       2.421   0.036  -0.021  0.00  0.00    +0.017 A 
ATOM     23  C   UNL     1       2.394   1.413  -0.013  0.00  0.00    +0.029 A 
BRANCH  21  24
ATOM     24  C   UNL     1       1.247  -2.160  -0.021  0.00  0.00    +0.339 C 
ATOM     25  O   UNL     1       0.205  -2.784  -0.014  0.00  0.00    -0.245 OA
BRANCH  24  26
ATOM     26  O   UNL     1       2.425  -2.814  -0.036  0.00  0.00    -0.464 OA
ATOM     27  C   UNL     1       2.373  -4.265  -0.043  0.00  0.00    +0.280 C 
ENDBRANCH  24  26
ENDBRANCH  21  24
ENDBRANCH   5  18
BRANCH   8  28
ATOM     28  N   UNL     1       4.604   4.605   3.072  0.00  0.00    -0.328 N 
ATOM     29  H   UNL     1       5.023   5.289   3.618  0.00  0.00    +0.145 HD
ATOM     30  H   UNL     1       4.830   3.671   3.207  0.00  0.00    +0.145 HD
ENDBRANCH   8  28
BRANCH   9  31
ATOM     31  C   UNL     1       4.058   7.223   2.802  0.00  0.00    +0.101 C 
ATOM     32  N   UNL     1       4.578   7.978   3.472  0.00  0.00    -0.191 NA
ENDBRANCH   9  31
TORSDOF 6
