REMARK  Name = ZINC40758426
REMARK  4 active torsions:
REMARK  status: ('A' for Active; 'I' for Inactive)
REMARK    1  A    between atoms: C_9  and  N_11
REMARK    2  A    between atoms: C_13  and  N_27
REMARK    3  A    between atoms: C_14  and  N_18
REMARK    4  A    between atoms: N_18  and  C_19
REMARK                            x       y       z     vdW  Elec       q    Type
REMARK                         _______ _______ _______ _____ _____    ______ ____
ROOT
ATOM      1  N   UNL     1       1.199  -2.096  -0.087  0.00  0.00    -0.296 N 
ATOM      2  C   UNL     1       0.004  -2.793   0.049  0.00  0.00    +0.149 A 
ATOM      3  C   UNL     1       0.004  -4.185   0.162  0.00  0.00    +0.106 A 
ATOM      4  C   UNL     1      -1.224  -4.835   0.297  0.00  0.00    +0.149 A 
ATOM      5  N   UNL     1      -2.340  -4.109   0.312  0.00  0.00    -0.219 NA
ATOM      6  C   UNL     1      -2.295  -2.797   0.203  0.00  0.00    +0.225 A 
ATOM      7  N   UNL     1      -1.158  -2.144   0.079  0.00  0.00    -0.219 NA
ATOM      8  H   UNL     1       2.036  -2.579  -0.172  0.00  0.00    +0.154 HD
ENDROOT
BRANCH   1  17
ATOM      9  C   UNL     1       0.130   1.376  -0.696  0.00  0.00    +0.003 A 
ATOM     10  C   UNL     1       1.148   2.097  -0.149  0.00  0.00    +0.010 A 
ATOM     11  C   UNL     1       2.234   1.435   0.446  0.00  0.00    +0.002 A 
ATOM     12  C   UNL     1       3.301   2.152   1.021  0.00  0.00    +0.011 A 
ATOM     13  C   UNL     1       4.324   1.443   1.583  0.00  0.00    +0.020 A 
ATOM     14  C   UNL     1       4.291   0.051   1.577  0.00  0.00    +0.111 A 
ATOM     15  N   UNL     1       3.296  -0.613   1.040  0.00  0.00    -0.253 NA
ATOM     16  C   UNL     1       2.264   0.020   0.475  0.00  0.00    +0.092 A 
ATOM     17  C   UNL     1       1.195  -0.701  -0.101  0.00  0.00    +0.059 A 
ATOM     18  C   UNL     1       0.146  -0.015  -0.676  0.00  0.00    +0.025 A 
ENDBRANCH   1  17
BRANCH   3  19
ATOM     19  N   UNL     1       1.206  -4.910   0.140  0.00  0.00    -0.353 N 
ATOM     20  H   UNL     1       2.052  -4.445   0.046  0.00  0.00    +0.143 HD
ATOM     21  H   UNL     1       1.190  -5.877   0.220  0.00  0.00    +0.143 HD
ENDBRANCH   3  19
BRANCH   4  22
ATOM     22  N   UNL     1      -1.280  -6.220   0.413  0.00  0.00    -0.296 N 
ATOM     23  H   UNL     1      -0.462  -6.734   0.490  0.00  0.00    +0.154 HD
BRANCH  22  24
ATOM     24  C   UNL     1      -2.519  -6.871   0.418  0.00  0.00    +0.068 A 
ATOM     25  C   UNL     1      -3.621  -6.275  -0.179  0.00  0.00    +0.027 A 
ATOM     26  C   UNL     1      -4.843  -6.920  -0.173  0.00  0.00    +0.017 A 
ATOM     27  C   UNL     1      -4.969  -8.160   0.428  0.00  0.00    +0.021 A 
ATOM     28  C   UNL     1      -3.874  -8.758   1.024  0.00  0.00    +0.055 A 
ATOM     29  C   UNL     1      -2.647  -8.120   1.016  0.00  0.00    +0.145 A 
ATOM     30  F   UNL     1      -1.575  -8.707   1.593  0.00  0.00    -0.204 F 
ATOM     31 BR   UNL     1      -6.644  -9.038   0.434  0.00  0.00    -0.050 Br
ENDBRANCH  22  24
ENDBRANCH   4  22
TORSDOF 4
