REMARK  Name = ZINC22239106
REMARK  2 active torsions:
REMARK  status: ('A' for Active; 'I' for Inactive)
REMARK    1  A    between atoms: C_12  and  C_18
REMARK    2  A    between atoms: C_23  and  O_24
REMARK                            x       y       z     vdW  Elec       q    Type
REMARK                         _______ _______ _______ _____ _____    ______ ____
ROOT
ATOM      1  C   UNL     1      -0.017   1.374   0.010  0.00  0.00    +0.001 A 
ATOM      2  C   UNL     1       1.170   2.093   0.002  0.00  0.00    +0.002 A 
ATOM      3  C   UNL     1       2.386   1.443  -0.013  0.00  0.00    +0.027 A 
ATOM      4  C   UNL     1       2.425   0.055  -0.021  0.00  0.00    +0.059 A 
ATOM      5  C   UNL     1       1.223  -0.674  -0.013  0.00  0.00    +0.065 A 
ATOM      6  C   UNL     1       0.002  -0.004   0.002  0.00  0.00    +0.015 A 
ATOM      7  C   UNL     1       1.303  -2.147  -0.021  0.00  0.00    +0.282 A 
ATOM      8  O   UNL     1       0.291  -2.827  -0.026  0.00  0.00    -0.265 OA
ATOM      9  N   UNL     1       2.515  -2.721  -0.021  0.00  0.00    -0.176 NA
ATOM     10  C   UNL     1       3.617  -2.008  -0.026  0.00  0.00    +0.208 A 
ATOM     11  N   UNL     1       3.615  -0.643  -0.041  0.00  0.00    -0.286 N 
ATOM     12  C   UNL     1       4.903   0.057  -0.092  0.00  0.00    +0.245 C 
ATOM     13  N   UNL     1       5.882  -0.682   0.716  0.00  0.00    -0.226 NA
ATOM     14  C   UNL     1       5.848  -1.989   0.729  0.00  0.00    +0.182 C 
ATOM     15  N   UNL     1       4.855  -2.626  -0.008  0.00  0.00    -0.258 N 
ATOM     16  N   UNL     1       6.767  -2.714   1.450  0.00  0.00    -0.331 N 
ATOM     17  H   UNL     1       5.021  -3.455  -0.482  0.00  0.00    +0.158 HD
ATOM     18  H   UNL     1       7.454  -2.256   1.959  0.00  0.00    +0.145 HD
ATOM     19  H   UNL     1       6.729  -3.683   1.449  0.00  0.00    +0.145 HD
ENDROOT
BRANCH  12  20
ATOM     20  C   UNL     1       5.380   0.133  -1.520  0.00  0.00    +0.039 A 
ATOM     21  C   UNL     1       4.468   0.084  -2.557  0.00  0.00    +0.011 A 
ATOM     22  C   UNL     1       4.905   0.153  -3.866  0.00  0.00    +0.001 A 
ATOM     23  C   UNL     1       6.255   0.271  -4.142  0.00  0.00    +0.004 A 
ATOM     24  C   UNL     1       7.170   0.321  -3.109  0.00  0.00    +0.046 A 
ATOM     25  C   UNL     1       6.734   0.257  -1.794  0.00  0.00    +0.124 A 
BRANCH  25  26
ATOM     26  O   UNL     1       7.632   0.312  -0.775  0.00  0.00    -0.506 OA
ATOM     27  H   UNL     1       7.969  -0.552  -0.501  0.00  0.00    +0.292 HD
ENDBRANCH  25  26
ENDBRANCH  12  20
TORSDOF 2
