REMARK  Name = ZINC20420203
REMARK  4 active torsions:
REMARK  status: ('A' for Active; 'I' for Inactive)
REMARK    1  A    between atoms: C_1  and  C_2
REMARK    2  A    between atoms: C_2  and  C_4
REMARK    3  A    between atoms: C_2  and  N_10
REMARK    4  A    between atoms: N_10  and  C_11
REMARK                            x       y       z     vdW  Elec       q    Type
REMARK                         _______ _______ _______ _____ _____    ______ ____
ROOT
ATOM      1  C   UNL     1      -4.104   2.781  -1.400  0.00  0.00    +0.038 C 
ATOM      2  C   UNL     1      -3.714   2.414   0.033  0.00  0.00    +0.154 C 
ENDROOT
BRANCH   2   3
ATOM      3  C   UNL     1      -4.779   1.534   0.633  0.00  0.00    +0.240 C 
ATOM      4  O   UNL     1      -4.499   0.418   1.016  0.00  0.00    -0.273 OA
ATOM      5  N   UNL     1      -6.043   1.988   0.746  0.00  0.00    -0.239 N 
ATOM      6  C   UNL     1      -6.997   1.200   1.283  0.00  0.00    +0.303 C 
ATOM      7  O   UNL     1      -6.716   0.082   1.666  0.00  0.00    -0.253 OA
ATOM      8  N   UNL     1      -8.261   1.654   1.396  0.00  0.00    -0.313 N 
ATOM      9  H   UNL     1      -6.298   3.000   0.399  0.00  0.00    +0.159 HD
ATOM     10  H   UNL     1      -9.039   1.011   1.834  0.00  0.00    +0.146 HD
ATOM     11  H   UNL     1      -8.515   2.666   1.049  0.00  0.00    +0.146 HD
ENDBRANCH   2   3
BRANCH   2  12
ATOM     12  N   UNL     1      -2.436   1.697   0.023  0.00  0.00    -0.332 N 
ATOM     13  H   UNL     1      -2.423   0.597   0.017  0.00  0.00    +0.147 HD
BRANCH  12  14
ATOM     14  C   UNL     1      -1.234   2.411   0.021  0.00  0.00    +0.048 A 
ATOM     15  C   UNL     1      -1.249   3.799   0.035  0.00  0.00    +0.045 A 
ATOM     16  C   UNL     1      -0.059   4.502   0.026  0.00  0.00    +0.061 A 
ATOM     17  C   UNL     1       1.148   3.823   0.011  0.00  0.00    +0.061 A 
ATOM     18  C   UNL     1       1.166   2.440   0.004  0.00  0.00    +0.043 A 
ATOM     19  C   UNL     1      -0.021   1.732   0.012  0.00  0.00    +0.063 A 
ATOM     20 CL   UNL     1       0.002  -0.004   0.002  0.00  0.00    -0.082 Cl
ATOM     21 CL   UNL     1       2.641   4.709   0.001  0.00  0.00    -0.082 Cl
ATOM     22 CL   UNL     1      -0.077   6.238   0.036  0.00  0.00    -0.082 Cl
ENDBRANCH  12  14
ENDBRANCH   2  12
TORSDOF 3
