REMARK  Name = ZINC29869101
REMARK  8 active torsions:
REMARK  status: ('A' for Active; 'I' for Inactive)
REMARK    1  A    between atoms: C_1  and  C_2
REMARK    2  A    between atoms: C_5  and  C_8
REMARK    3  A    between atoms: N_12  and  C_13
REMARK    4  A    between atoms: C_13  and  C_14
REMARK    5  A    between atoms: N_16  and  C_17
REMARK    6  A    between atoms: N_16  and  C_18
REMARK    7  A    between atoms: C_18  and  C_20
REMARK    8  A    between atoms: C_18  and  C_21
REMARK                            x       y       z     vdW  Elec       q    Type
REMARK                         _______ _______ _______ _____ _____    ______ ____
ROOT
ATOM      1  C   UNL     1      -2.757  -0.413  -1.880  0.00  0.00    +0.236 C 
ATOM      2  O   UNL     1      -1.883  -0.697  -2.671  0.00  0.00    -0.274 OA
ATOM      3  N   UNL     1      -3.984  -0.075  -2.324  0.00  0.00    -0.293 N 
ATOM      4  C   UNL     1      -5.040   0.267  -1.368  0.00  0.00    +0.133 C 
ENDROOT
BRANCH   3   5
ATOM      5  C   UNL     1      -4.261  -0.049  -3.762  0.00  0.00    +0.139 C 
ATOM      6  C   UNL     1      -4.690   1.361  -4.173  0.00  0.00    +0.036 C 
BRANCH   5   7
ATOM      7  C   UNL     1      -5.367  -1.022  -4.079  0.00  0.00    +0.126 A 
ATOM      8  C   UNL     1      -5.406  -1.816  -5.157  0.00  0.00    +0.055 A 
ATOM      9  C   UNL     1      -6.650  -2.588  -5.054  0.00  0.00    +0.020 A 
ATOM     10  C   UNL     1      -7.260  -3.564  -5.840  0.00  0.00    +0.011 A 
ATOM     11  C   UNL     1      -8.459  -4.095  -5.453  0.00  0.00    +0.001 A 
ATOM     12  C   UNL     1      -9.071  -3.667  -4.284  0.00  0.00    +0.004 A 
ATOM     13  C   UNL     1      -8.483  -2.703  -3.493  0.00  0.00    +0.047 A 
ATOM     14  C   UNL     1      -7.265  -2.151  -3.869  0.00  0.00    +0.135 A 
ATOM     15  O   UNL     1      -6.462  -1.216  -3.322  0.00  0.00    -0.458 OA
ENDBRANCH   5   7
ENDBRANCH   3   5
BRANCH   1  16
ATOM     16  C   UNL     1      -2.472  -0.441  -0.401  0.00  0.00    +0.221 C 
BRANCH  16  21
ATOM     17  C   UNL     1       0.013  -0.006  -0.067  0.00  0.00    +0.165 A 
ATOM     18  N   UNL     1       1.060  -0.772   0.131  0.00  0.00    -0.128 NA
ATOM     19  N   UNL     1       0.704  -2.006   0.146  0.00  0.00    -0.121 NA
ATOM     20  C   UNL     1      -0.593  -2.104  -0.042  0.00  0.00    +0.203 A 
ATOM     21  N   UNL     1      -1.079  -0.836  -0.179  0.00  0.00    -0.293 N 
ATOM     22  S   UNL     1      -1.531  -3.595  -0.099  0.00  0.00    -0.009 SA
BRANCH  17  27
ATOM     23  C   UNL     1      -0.009   5.739  -0.406  0.00  0.00    +0.044 C 
ATOM     24  C   UNL     1      -0.004   4.234  -0.317  0.00  0.00    -0.050 A 
ATOM     25  C   UNL     1       1.068   3.583   0.268  0.00  0.00    +0.004 A 
ATOM     26  C   UNL     1       1.079   2.206   0.353  0.00  0.00    +0.012 A 
ATOM     27  C   UNL     1       0.007   1.470  -0.154  0.00  0.00    +0.019 A 
ATOM     28  C   UNL     1      -1.067   2.133  -0.750  0.00  0.00    +0.012 A 
ATOM     29  C   UNL     1      -1.069   3.511  -0.822  0.00  0.00    +0.004 A 
ENDBRANCH  17  27
ENDBRANCH  16  21
ENDBRANCH   1  16
TORSDOF 5
