REMARK  Name = ZINC52845494
REMARK  8 active torsions:
REMARK  status: ('A' for Active; 'I' for Inactive)
REMARK    1  A    between atoms: C_1  and  C_2
REMARK    2  A    between atoms: C_2  and  C_3
REMARK    3  A    between atoms: C_2  and  C_4
REMARK    4  A    between atoms: C_7  and  C_11
REMARK    5  A    between atoms: C_8  and  O_10
REMARK    6  A    between atoms: N_13  and  C_14
REMARK    7  A    between atoms: C_14  and  C_15
REMARK    8  A    between atoms: C_15  and  N_20
REMARK                            x       y       z     vdW  Elec       q    Type
REMARK                         _______ _______ _______ _____ _____    ______ ____
ROOT
ATOM      1  C   UNL     1      -5.187  -1.971   0.353  0.00  0.00    +0.248 C 
ATOM      2  O   UNL     1      -5.492  -2.672  -0.592  0.00  0.00    -0.270 OA
ATOM      3  N   UNL     1      -6.107  -1.662   1.288  0.00  0.00    -0.309 N 
ATOM      4  H   UNL     1      -5.864  -1.103   2.042  0.00  0.00    +0.149 HD
ENDROOT
BRANCH   1   8
ATOM      5  C   UNL     1      -1.219  -0.494   0.710  0.00  0.00    -0.041 A 
ATOM      6  C   UNL     1      -2.165  -0.177   1.671  0.00  0.00    +0.005 A 
ATOM      7  C   UNL     1      -3.454  -0.652   1.561  0.00  0.00    +0.017 A 
ATOM      8  C   UNL     1      -3.809  -1.458   0.477  0.00  0.00    +0.078 A 
ATOM      9  C   UNL     1      -2.849  -1.777  -0.493  0.00  0.00    +0.129 A 
ATOM     10  C   UNL     1      -1.558  -1.285  -0.370  0.00  0.00    +0.050 A 
BRANCH   5  12
ATOM     11  C   UNL     1       0.160   1.562   0.854  0.00  0.00    +0.012 C 
ATOM     12  C   UNL     1       0.187   0.032   0.841  0.00  0.00    +0.013 C 
ATOM     13  C   UNL     1       0.803  -0.478   2.146  0.00  0.00    +0.012 C 
ENDBRANCH   5  12
BRANCH   9  14
ATOM     14  O   UNL     1      -3.182  -2.559  -1.550  0.00  0.00    -0.506 OA
ATOM     15  H   UNL     1      -3.505  -2.066  -2.317  0.00  0.00    +0.292 HD
ENDBRANCH   9  14
ENDBRANCH   1   8
BRANCH   3  16
ATOM     16  C   UNL     1      -7.475  -2.171   1.166  0.00  0.00    +0.127 C 
BRANCH  16  17
ATOM     17  C   UNL     1      -8.311  -1.678   2.349  0.00  0.00    +0.047 C 
ATOM     18  C   UNL     1      -7.617  -2.092   3.645  0.00  0.00    +0.035 C 
ATOM     19  C   UNL     1      -8.662  -2.273   4.782  0.00  0.00    +0.071 C 
ATOM     20  S   UNL     1     -10.020  -3.079   3.825  0.00  0.00    -0.159 S 
ATOM     21  C   UNL     1      -9.740  -2.238   2.211  0.00  0.00    +0.093 C 
BRANCH  17  22
ATOM     22  N   UNL     1      -8.373  -0.211   2.299  0.00  0.00    -0.290 NA
ATOM     23  C   UNL     1      -9.080   0.326   3.471  0.00  0.00    +0.113 C 
ATOM     24  C   UNL     1      -9.070   1.856   3.410  0.00  0.00    +0.175 C 
ATOM     25  O   UNL     1      -9.660   2.283   2.179  0.00  0.00    -0.377 OA
ATOM     26  C   UNL     1      -8.997   1.778   1.017  0.00  0.00    +0.175 C 
ATOM     27  C   UNL     1      -9.006   0.248   1.054  0.00  0.00    +0.113 C 
ENDBRANCH  17  22
ENDBRANCH  16  17
ENDBRANCH   3  16
TORSDOF 6
