REMARK  Name = ZINC03665931
REMARK  6 active torsions:
REMARK  status: ('A' for Active; 'I' for Inactive)
REMARK    1  A    between atoms: C_1  and  C_2
REMARK    2  A    between atoms: C_2  and  C_3
REMARK    3  A    between atoms: C_6  and  N_9
REMARK    4  A    between atoms: C_19  and  C_20
REMARK    5  A    between atoms: C_19  and  O_26
REMARK    6  A    between atoms: N_22  and  C_23
REMARK                            x       y       z     vdW  Elec       q    Type
REMARK                         _______ _______ _______ _____ _____    ______ ____
ROOT
ATOM      1  N   UNL     1       2.551   0.122   1.218  0.00  0.00    -0.214 N 
ATOM      2  C   UNL     1       3.091  -1.105   1.099  0.00  0.00    +0.314 C 
ATOM      3  O   UNL     1       3.502  -1.657   2.102  0.00  0.00    -0.252 OA
ATOM      4  N   UNL     1       3.195  -1.747  -0.071  0.00  0.00    -0.269 N 
ATOM      5  C   UNL     1       2.755  -1.203  -1.278  0.00  0.00    +0.043 A 
ATOM      6  C   UNL     1       2.887  -1.910  -2.466  0.00  0.00    +0.024 A 
ATOM      7  C   UNL     1       2.445  -1.353  -3.650  0.00  0.00    +0.002 A 
ATOM      8  C   UNL     1       1.871  -0.095  -3.659  0.00  0.00    +0.001 A 
ATOM      9  C   UNL     1       1.737   0.615  -2.477  0.00  0.00    +0.010 A 
ATOM     10  C   UNL     1       2.176   0.062  -1.296  0.00  0.00    +0.033 A 
ATOM     11  C   UNL     1       2.048   0.804   0.014  0.00  0.00    +0.247 C 
ATOM     12  H   UNL     1       3.595  -2.631  -0.081  0.00  0.00    +0.156 HD
ENDROOT
BRANCH   1  16
ATOM     13  C   UNL     1       2.309   1.967   4.945  0.00  0.00    -0.048 A 
ATOM     14  C   UNL     1       1.324   1.082   4.548  0.00  0.00    +0.005 A 
ATOM     15  C   UNL     1       1.401   0.468   3.313  0.00  0.00    +0.024 A 
ATOM     16  C   UNL     1       2.470   0.742   2.470  0.00  0.00    +0.041 A 
ATOM     17  C   UNL     1       3.461   1.627   2.874  0.00  0.00    +0.024 A 
ATOM     18  C   UNL     1       3.374   2.242   4.108  0.00  0.00    +0.005 A 
BRANCH  13  20
ATOM     19  C   UNL     1       2.933   1.773   7.337  0.00  0.00    +0.009 C 
ATOM     20  C   UNL     1       2.220   2.635   6.293  0.00  0.00    +0.032 C 
ENDBRANCH  13  20
ENDBRANCH   1  16
BRANCH  11  21
ATOM     21  C   UNL     1       0.590   1.116   0.231  0.00  0.00    +0.269 C 
ATOM     22  O   UNL     1       0.211   2.268   0.244  0.00  0.00    -0.270 OA
ATOM     23  N   UNL     1      -0.293   0.114   0.411  0.00  0.00    -0.308 N 
ATOM     24  H   UNL     1       0.009  -0.808   0.400  0.00  0.00    +0.149 HD
BRANCH  23  25
ATOM     25  C   UNL     1      -1.712   0.416   0.616  0.00  0.00    +0.073 C 
ATOM     26  C   UNL     1      -2.449  -0.360   1.709  0.00  0.00    +0.024 C 
ATOM     27  C   UNL     1      -2.727  -0.663   0.234  0.00  0.00    +0.024 C 
ENDBRANCH  23  25
ENDBRANCH  11  21
BRANCH  11  28
ATOM     28  O   UNL     1       2.746   2.045  -0.113  0.00  0.00    -0.360 OA
ATOM     29  H   UNL     1       2.443   2.593  -0.849  0.00  0.00    +0.213 HD
ENDBRANCH  11  28
TORSDOF 5
