REMARK  Name = ZINC59567270
REMARK  4 active torsions:
REMARK  status: ('A' for Active; 'I' for Inactive)
REMARK    1  A    between atoms: C_1  and  C_2
REMARK    2  A    between atoms: C_2  and  C_22
REMARK    3  A    between atoms: C_7  and  C_8
REMARK    4  A    between atoms: C_10  and  N_16
REMARK                            x       y       z     vdW  Elec       q    Type
REMARK                         _______ _______ _______ _____ _____    ______ ____
ROOT
ATOM      1  C   UNL     1      -0.234   1.938   0.209  0.00  0.00    +0.110 C 
ATOM      2  C   UNL     1       0.003   0.428   0.142  0.00  0.00    +0.283 C 
ATOM      3  O   UNL     1      -1.257  -0.248   0.055  0.00  0.00    -0.414 OA
ATOM      4  C   UNL     1      -2.064  -0.125   1.145  0.00  0.00    +0.349 C 
ATOM      5  O   UNL     1      -3.248   0.133   1.056  0.00  0.00    -0.245 OA
ATOM      6  C   UNL     1      -1.385  -0.330   2.454  0.00  0.00    +0.143 C 
ATOM      7  C   UNL     1      -2.010  -0.909   3.541  0.00  0.00    +0.030 C 
ATOM      8  C   UNL     1       0.025   0.143   2.488  0.00  0.00    +0.349 C 
ATOM      9  O   UNL     1       0.532   0.618   3.486  0.00  0.00    -0.245 OA
ATOM     10  O   UNL     1       0.706   0.004   1.316  0.00  0.00    -0.414 OA
ENDROOT
BRANCH   7  11
ATOM     11  C   UNL     1      -1.237  -1.237   4.740  0.00  0.00    -0.021 A 
ATOM     12  C   UNL     1      -1.842  -1.180   6.005  0.00  0.00    +0.044 A 
ATOM     13  C   UNL     1      -1.116  -1.487   7.120  0.00  0.00    +0.174 A 
ATOM     14  C   UNL     1       0.221  -1.855   7.004  0.00  0.00    +0.222 A 
ATOM     15  C   UNL     1       0.827  -1.913   5.752  0.00  0.00    +0.063 A 
ATOM     16  C   UNL     1       0.110  -1.614   4.629  0.00  0.00    +0.026 A 
ATOM     17  I   UNL     1       2.841  -2.468   5.590  0.00  0.00    -0.040 I 
ATOM     18  O   UNL     1       0.937  -2.159   8.116  0.00  0.00    -0.284 OA
BRANCH  13  19
ATOM     19  N   UNL     1      -1.752  -1.427   8.455  0.00  0.00    +0.060 N 
ATOM     20  O   UNL     1      -2.913  -1.107   8.558  0.00  0.00    -0.126 OA
ATOM     21  O   UNL     1      -1.111  -1.699   9.443  0.00  0.00    -0.126 OA
ENDBRANCH  13  19
ENDBRANCH   7  11
BRANCH   2  22
ATOM     22  C   UNL     1       0.827   0.105  -1.077  0.00  0.00    +0.036 A 
ATOM     23  C   UNL     1       0.203  -0.167  -2.281  0.00  0.00    +0.011 A 
ATOM     24  C   UNL     1       0.959  -0.463  -3.400  0.00  0.00    +0.001 A 
ATOM     25  C   UNL     1       2.339  -0.487  -3.315  0.00  0.00    +0.000 A 
ATOM     26  C   UNL     1       2.962  -0.215  -2.112  0.00  0.00    +0.001 A 
ATOM     27  C   UNL     1       2.207   0.086  -0.994  0.00  0.00    +0.011 A 
ENDBRANCH   2  22
TORSDOF 3
