REMARK  Name = ZINC19665759
REMARK  6 active torsions:
REMARK  status: ('A' for Active; 'I' for Inactive)
REMARK    1  A    between atoms: C_1  and  C_2
REMARK    2  A    between atoms: C_5  and  C_8
REMARK    3  A    between atoms: C_10  and  C_13
REMARK    4  A    between atoms: C_24  and  C_26
REMARK    5  A    between atoms: C_29  and  O_32
REMARK    6  A    between atoms: O_32  and  C_33
REMARK                            x       y       z     vdW  Elec       q    Type
REMARK                         _______ _______ _______ _____ _____    ______ ____
ROOT
ATOM      1  C   UNL     1      -5.682   4.021   6.784  0.00  0.00    +0.269 C 
ATOM      2  O   UNL     1      -4.754   3.588   6.131  0.00  0.00    -0.268 OA
ATOM      3  N   UNL     1      -5.466   4.509   8.021  0.00  0.00    -0.283 N 
ATOM      4  C   UNL     1      -4.101   4.639   8.552  0.00  0.00    +0.115 C 
ATOM      5  C   UNL     1      -3.936   3.712   9.757  0.00  0.00    +0.074 C 
ATOM      6  C   UNL     1      -5.145   3.848  10.644  0.00  0.00    +0.042 A 
ATOM      7  C   UNL     1      -6.327   4.378  10.262  0.00  0.00    +0.087 A 
ATOM      8  N   UNL     1      -7.162   4.324  11.302  0.00  0.00    -0.238 NA
ATOM      9  C   UNL     1      -6.544   3.783  12.319  0.00  0.00    +0.197 A 
ATOM     10  N   UNL     1      -5.281   3.473  11.947  0.00  0.00    -0.348 N 
ATOM     11  H   UNL     1      -4.435   3.013  12.478  0.00  0.00    +0.166 HD
ATOM     12  C   UNL     1      -6.593   4.921   8.878  0.00  0.00    +0.157 C 
ENDROOT
BRANCH  12  13
ATOM     13  C   UNL     1      -6.679   6.425   8.925  0.00  0.00    -0.021 A 
ATOM     14  C   UNL     1      -7.799   7.069   8.433  0.00  0.00    +0.009 A 
ATOM     15  C   UNL     1      -7.882   8.447   8.480  0.00  0.00    +0.046 A 
ATOM     16  C   UNL     1      -6.835   9.185   9.012  0.00  0.00    +0.120 A 
ATOM     17  C   UNL     1      -5.710   8.538   9.501  0.00  0.00    +0.046 A 
ATOM     18  C   UNL     1      -5.634   7.159   9.456  0.00  0.00    +0.009 A 
BRANCH  16  19
ATOM     19  O   UNL     1      -6.912  10.542   9.054  0.00  0.00    -0.495 OA
ATOM     20  C   UNL     1      -8.100  11.141   8.533  0.00  0.00    +0.277 C 
ENDBRANCH  16  19
ENDBRANCH  12  13
BRANCH   1  23
ATOM     21  C   UNL     1      -8.805   3.695   4.937  0.00  0.00    +0.168 A 
ATOM     22  C   UNL     1      -7.465   3.429   4.992  0.00  0.00    +0.086 A 
ATOM     23  C   UNL     1      -7.054   4.011   6.220  0.00  0.00    +0.168 A 
ATOM     24  N   UNL     1      -8.129   4.534   6.757  0.00  0.00    -0.073 NA
ATOM     25  O   UNL     1      -9.104   4.368   6.062  0.00  0.00    -0.354 OA
BRANCH  21  30
ATOM     26  C   UNL     1     -12.447   2.205   0.738  0.00  0.00    +0.044 C 
ATOM     27  C   UNL     1     -11.494   2.596   1.838  0.00  0.00    -0.050 A 
ATOM     28  C   UNL     1     -10.157   2.250   1.745  0.00  0.00    +0.004 A 
ATOM     29  C   UNL     1      -9.277   2.610   2.745  0.00  0.00    +0.012 A 
ATOM     30  C   UNL     1      -9.741   3.313   3.858  0.00  0.00    +0.020 A 
ATOM     31  C   UNL     1     -11.091   3.653   3.948  0.00  0.00    +0.012 A 
ATOM     32  C   UNL     1     -11.959   3.293   2.938  0.00  0.00    +0.004 A 
ENDBRANCH  21  30
ENDBRANCH   1  23
TORSDOF 4
