REMARK  Name = ZINC18322350
REMARK  6 active torsions:
REMARK  status: ('A' for Active; 'I' for Inactive)
REMARK    1  A    between atoms: C_4  and  C_7
REMARK    2  A    between atoms: C_8  and  C_9
REMARK    3  A    between atoms: C_9  and  O_11
REMARK    4  A    between atoms: O_11  and  C_12
REMARK    5  A    between atoms: C_12  and  C_13
REMARK    6  A    between atoms: C_21  and  N_23
REMARK                            x       y       z     vdW  Elec       q    Type
REMARK                         _______ _______ _______ _____ _____    ______ ____
ROOT
ATOM      1  C   UNL     1       5.973   1.915  -0.045  0.00  0.00    +0.169 A 
ATOM      2  N   UNL     1       6.476   2.297   1.105  0.00  0.00    -0.228 NA
ATOM      3  C   UNL     1       7.528   3.128   1.145  0.00  0.00    +0.076 A 
ATOM      4  C   UNL     1       8.090   3.556   2.356  0.00  0.00    +0.028 A 
ATOM      5  C   UNL     1       9.160   4.400   2.339  0.00  0.00    +0.002 A 
ATOM      6  C   UNL     1       9.704   4.846   1.138  0.00  0.00    +0.001 A 
ATOM      7  C   UNL     1       9.181   4.449  -0.058  0.00  0.00    +0.013 A 
ATOM      8  C   UNL     1       8.083   3.582  -0.076  0.00  0.00    +0.040 A 
ATOM      9  C   UNL     1       7.496   3.134  -1.284  0.00  0.00    +0.128 A 
ATOM     10  N   UNL     1       6.461   2.309  -1.210  0.00  0.00    -0.214 NA
ENDROOT
BRANCH   9  11
ATOM     11  N   UNL     1       7.991   3.542  -2.505  0.00  0.00    -0.343 N 
ATOM     12  H   UNL     1       8.751   4.143  -2.544  0.00  0.00    +0.144 HD
ATOM     13  H   UNL     1       7.579   3.227  -3.325  0.00  0.00    +0.144 HD
ENDBRANCH   9  11
BRANCH   1  14
ATOM     14  C   UNL     1       4.791   0.981  -0.038  0.00  0.00    +0.308 C 
BRANCH  14  15
ATOM     15  O   UNL     1       3.582   1.743  -0.023  0.00  0.00    -0.454 OA
BRANCH  15  16
ATOM     16  C   UNL     1       2.423   1.052  -0.015  0.00  0.00    +0.332 C 
ATOM     17  O   UNL     1       2.439  -0.164  -0.022  0.00  0.00    -0.246 OA
BRANCH  16  19
ATOM     18  C   UNL     1      -0.013   1.076   0.008  0.00  0.00    +0.015 C 
ATOM     19  C   UNL     1       1.147   1.766   0.001  0.00  0.00    +0.092 C 
BRANCH  18  23
ATOM     20  C   UNL     1      -3.715   3.147   0.037  0.00  0.00    +0.000 A 
ATOM     21  C   UNL     1      -3.700   1.763   0.029  0.00  0.00    +0.001 A 
ATOM     22  C   UNL     1      -2.501   1.082   0.020  0.00  0.00    +0.008 A 
ATOM     23  C   UNL     1      -1.297   1.794   0.018  0.00  0.00    -0.025 A 
ATOM     24  C   UNL     1      -1.320   3.193   0.031  0.00  0.00    +0.008 A 
ATOM     25  C   UNL     1      -2.527   3.858   0.035  0.00  0.00    +0.001 A 
ENDBRANCH  18  23
ENDBRANCH  16  19
ENDBRANCH  15  16
ENDBRANCH  14  15
ENDBRANCH   1  14
TORSDOF 6
