REMARK  Name = ZINC39677501
REMARK  9 active torsions:
REMARK  status: ('A' for Active; 'I' for Inactive)
REMARK    1  A    between atoms: C_1  and  C_2
REMARK    2  A    between atoms: C_2  and  C_3
REMARK    3  A    between atoms: C_3  and  C_4
REMARK    4  A    between atoms: C_4  and  C_5
REMARK    5  A    between atoms: C_5  and  C_6
REMARK    6  A    between atoms: C_6  and  C_7
REMARK    7  A    between atoms: C_11  and  C_20
REMARK    8  A    between atoms: N_22  and  C_23
REMARK    9  A    between atoms: C_23  and  C_24
REMARK                            x       y       z     vdW  Elec       q    Type
REMARK                         _______ _______ _______ _____ _____    ______ ____
ROOT
ATOM      1  C   UNL     1       2.135  -4.573  -3.462  0.00  0.00    +0.216 C 
ATOM      2  O   UNL     1       2.574  -3.703  -4.184  0.00  0.00    -0.276 OA
ATOM      3  N   UNL     1       2.292  -5.869  -3.796  0.00  0.00    -0.300 N 
ATOM      4  C   UNL     1       1.825  -7.062  -3.053  0.00  0.00    +0.121 C 
ATOM      5  C   UNL     1       1.336  -8.038  -4.147  0.00  0.00    +0.100 C 
ATOM      6  C   UNL     1       2.094  -7.615  -5.416  0.00  0.00    -0.004 C 
ATOM      7  C   UNL     1       2.966  -6.423  -4.995  0.00  0.00    +0.115 C 
ATOM      8  C   UNL     1       2.969  -8.760  -5.916  0.00  0.00    -0.010 C 
ATOM      9  C   UNL     1       3.667  -8.335  -7.211  0.00  0.00    -0.082 C 
ATOM     10  N   UNL     1       2.660  -7.986  -8.220  0.00  0.00    +0.379 N 
ATOM     11  C   UNL     1       1.884  -6.823  -7.771  0.00  0.00    -0.082 C 
ATOM     12  C   UNL     1       1.110  -7.184  -6.500  0.00  0.00    -0.010 C 
ATOM     13  H   UNL     1       3.121  -7.765  -9.091  0.00  0.00    -0.086 HD
ATOM     14  H   UNL     1       2.040  -8.769  -8.361  0.00  0.00    -0.086 HD
ENDROOT
BRANCH   5  15
ATOM     15  C   UNL     1      -0.150  -7.898  -4.349  0.00  0.00    +0.218 C 
ATOM     16  O   UNL     1      -0.691  -6.830  -4.155  0.00  0.00    -0.275 OA
ATOM     17  N   UNL     1      -0.879  -8.960  -4.746  0.00  0.00    -0.311 N 
ATOM     18  H   UNL     1      -0.447  -9.814  -4.901  0.00  0.00    +0.149 HD
BRANCH  17  19
ATOM     19  C   UNL     1      -2.325  -8.824  -4.942  0.00  0.00    +0.139 C 
BRANCH  19  20
ATOM     20  C   UNL     1      -2.899 -10.146  -5.382  0.00  0.00    -0.027 A 
ATOM     21  C   UNL     1      -2.972 -10.453  -6.728  0.00  0.00    +0.009 A 
ATOM     22  C   UNL     1      -3.499 -11.664  -7.136  0.00  0.00    +0.050 A 
ATOM     23  C   UNL     1      -3.955 -12.575  -6.194  0.00  0.00    +0.162 A 
ATOM     24  C   UNL     1      -3.879 -12.268  -4.841  0.00  0.00    +0.162 A 
ATOM     25  C   UNL     1      -3.345 -11.052  -4.439  0.00  0.00    +0.054 A 
ATOM     26  O   UNL     1      -4.314 -13.150  -3.901  0.00  0.00    -0.485 OA
ATOM     27  C   UNL     1      -5.176 -14.200  -4.353  0.00  0.00    +0.270 C 
ATOM     28  C   UNL     1      -4.574 -14.800  -5.630  0.00  0.00    +0.270 C 
ATOM     29  O   UNL     1      -4.475 -13.762  -6.611  0.00  0.00    -0.485 OA
ENDBRANCH  19  20
ENDBRANCH  17  19
ENDBRANCH   5  15
BRANCH   1  30
ATOM     30  C   UNL     1       1.415  -4.205  -2.191  0.00  0.00    +0.096 C 
BRANCH  30  31
ATOM     31  C   UNL     1       1.375  -2.682  -2.049  0.00  0.00    +0.009 C 
BRANCH  31  32
ATOM     32  C   UNL     1       0.643  -2.308  -0.758  0.00  0.00    +0.000 C 
BRANCH  32  33
ATOM     33  C   UNL     1       0.604  -0.785  -0.617  0.00  0.00    -0.000 C 
BRANCH  33  35
ATOM     34  C   UNL     1      -0.167   1.111   0.815  0.00  0.00    +0.004 C 
ATOM     35  C   UNL     1      -0.128  -0.412   0.673  0.00  0.00    -0.003 C 
ENDBRANCH  33  35
ENDBRANCH  32  33
ENDBRANCH  31  32
ENDBRANCH  30  31
ENDBRANCH   1  30
TORSDOF 8
