REMARK  Name = ZINC37915579
REMARK  8 active torsions:
REMARK  status: ('A' for Active; 'I' for Inactive)
REMARK    1  A    between atoms: C_1  and  C_2
REMARK    2  A    between atoms: C_2  and  C_3
REMARK    3  A    between atoms: N_8  and  S_9
REMARK    4  A    between atoms: S_9  and  C_12
REMARK    5  A    between atoms: C_15  and  C_19
REMARK    6  A    between atoms: C_16  and  C_18
REMARK    7  A    between atoms: C_20  and  C_21
REMARK    8  A    between atoms: C_21  and  O_22
REMARK                            x       y       z     vdW  Elec       q    Type
REMARK                         _______ _______ _______ _____ _____    ______ ____
ROOT
ATOM      1  C   UNL     1      -1.070   1.620  -2.964  0.00  0.00    +0.106 A 
ATOM      2  C   UNL     1      -0.053   2.407  -2.453  0.00  0.00    +0.030 A 
ATOM      3  C   UNL     1       0.995   2.796  -3.261  0.00  0.00    +0.019 A 
ATOM      4  C   UNL     1       1.028   2.395  -4.597  0.00  0.00    +0.028 A 
ATOM      5  C   UNL     1      -0.000   1.601  -5.107  0.00  0.00    -0.033 A 
ATOM      6  C   UNL     1      -1.040   1.214  -4.286  0.00  0.00    +0.033 A 
ATOM      7  C   UNL     1       0.027   1.164  -6.549  0.00  0.00    +0.045 C 
ENDROOT
BRANCH   1   8
ATOM      8  S   UNL     1      -2.404   1.126  -1.925  0.00  0.00    +0.061 S 
ATOM      9  O   UNL     1      -3.538   0.971  -2.767  0.00  0.00    -0.153 OA
ATOM     10  O   UNL     1      -2.397   2.007  -0.810  0.00  0.00    -0.153 OA
BRANCH   8  15
ATOM     11  C   UNL     1      -1.410  -0.666  -0.043  0.00  0.00    +0.080 C 
ATOM     12  C   UNL     1      -1.292  -2.200   0.084  0.00  0.00    +0.022 C 
ATOM     13  C   UNL     1      -2.373  -2.714  -0.903  0.00  0.00    +0.019 C 
ATOM     14  C   UNL     1      -2.289  -1.660  -2.034  0.00  0.00    +0.110 C 
ATOM     15  N   UNL     1      -2.039  -0.380  -1.341  0.00  0.00    -0.174 NA
BRANCH  11  17
ATOM     16  C   UNL     1       0.572  -0.219   1.411  0.00  0.00    +0.005 C 
ATOM     17  C   UNL     1      -0.019  -0.031   0.012  0.00  0.00    +0.017 C 
ENDBRANCH  11  17
ENDBRANCH   8  15
ENDBRANCH   1   8
BRANCH   4  18
ATOM     18  C   UNL     1       2.112   2.796  -5.442  0.00  0.00    -0.064 C 
ATOM     19  C   UNL     1       3.002   3.125  -6.135  0.00  0.00    -0.069 C 
BRANCH  19  20
ATOM     20  C   UNL     1       4.116   3.537  -7.003  0.00  0.00    +0.244 C 
BRANCH  20  21
ATOM     21  O   UNL     1       3.922   3.003  -8.314  0.00  0.00    -0.383 OA
ATOM     22  H   UNL     1       4.620   3.236  -8.941  0.00  0.00    +0.211 HD
ENDBRANCH  20  21
ENDBRANCH  19  20
ENDBRANCH   4  18
TORSDOF 6
