REMARK  Name = ZINC63690795
REMARK  7 active torsions:
REMARK  status: ('A' for Active; 'I' for Inactive)
REMARK    1  A    between atoms: C_1  and  C_2
REMARK    2  A    between atoms: C_5  and  C_8
REMARK    3  A    between atoms: N_10  and  C_11
REMARK    4  A    between atoms: C_19  and  C_21
REMARK    5  A    between atoms: N_23  and  C_24
REMARK    6  A    between atoms: C_24  and  C_25
REMARK    7  A    between atoms: C_25  and  C_26
REMARK                            x       y       z     vdW  Elec       q    Type
REMARK                         _______ _______ _______ _____ _____    ______ ____
ROOT
ATOM      1  C   UNL     1       0.093  -6.396   1.134  0.00  0.00    +0.220 C 
ATOM      2  N   UNL     1      -0.181  -6.936   2.484  0.00  0.00    -0.320 N 
ATOM      3  C   UNL     1       0.879  -7.460   3.166  0.00  0.00    +0.027 C 
ATOM      4  C   UNL     1       1.855  -8.189   2.235  0.00  0.00    +0.094 C 
ATOM      5  S   UNL     1       1.794  -7.031   0.804  0.00  0.00    -0.110 S 
ATOM      6  C   UNL     1       3.211  -8.088   2.948  0.00  0.00    +0.025 C 
ATOM      7  C   UNL     1       2.765  -8.112   4.431  0.00  0.00    +0.043 C 
ATOM      8  C   UNL     1       1.375  -7.524   4.426  0.00  0.00    +0.032 C 
ATOM      9  H   UNL     1      -1.072  -6.917   2.866  0.00  0.00    +0.148 HD
ENDROOT
BRANCH   1  12
ATOM     10  C   UNL     1       0.059  -4.251  -0.021  0.00  0.00    +0.246 C 
ATOM     11  O   UNL     1       0.062  -4.853  -1.077  0.00  0.00    -0.270 OA
ATOM     12  N   UNL     1       0.074  -4.931   1.142  0.00  0.00    -0.284 N 
ATOM     13  H   UNL     1       0.072  -4.451   1.985  0.00  0.00    +0.152 HD
BRANCH  10  18
ATOM     14  C   UNL     1      -0.018   1.503   0.010  0.00  0.00    +0.044 C 
ATOM     15  C   UNL     1       0.002  -0.004   0.002  0.00  0.00    -0.050 A 
ATOM     16  C   UNL     1       0.006  -0.686  -1.202  0.00  0.00    +0.004 A 
ATOM     17  C   UNL     1       0.024  -2.066  -1.216  0.00  0.00    +0.013 A 
ATOM     18  C   UNL     1       0.040  -2.773  -0.013  0.00  0.00    +0.037 A 
ATOM     19  C   UNL     1       0.036  -2.079   1.198  0.00  0.00    +0.013 A 
ATOM     20  C   UNL     1       0.023  -0.699   1.198  0.00  0.00    +0.004 A 
ENDBRANCH  10  18
ENDBRANCH   1  12
BRANCH   8  21
ATOM     21  C   UNL     1       0.683  -7.096   5.583  0.00  0.00    +0.242 C 
ATOM     22  O   UNL     1      -0.439  -6.632   5.484  0.00  0.00    -0.270 OA
ATOM     23  N   UNL     1       1.265  -7.201   6.794  0.00  0.00    -0.311 N 
ATOM     24  H   UNL     1       2.158  -7.571   6.872  0.00  0.00    +0.149 HD
BRANCH  23  25
ATOM     25  C   UNL     1       0.547  -6.758   7.992  0.00  0.00    +0.109 C 
BRANCH  25  26
ATOM     26  C   UNL     1       1.424  -6.986   9.225  0.00  0.00    +0.052 C 
BRANCH  26  27
ATOM     27  C   UNL     1       0.686  -6.530  10.457  0.00  0.00    -0.040 C 
ATOM     28  C   UNL     1      -0.051  -7.295  11.293  0.00  0.00    -0.001 A 
ATOM     29  C   UNL     1      -0.376  -8.727  11.305  0.00  0.00    +0.010 A 
ATOM     30  C   UNL     1      -1.158  -9.214  12.295  0.00  0.00    +0.001 A 
ATOM     31  C   UNL     1      -1.665  -8.389  13.308  0.00  0.00    +0.002 A 
ATOM     32  C   UNL     1      -1.410  -7.064  13.365  0.00  0.00    +0.026 A 
ATOM     33  C   UNL     1      -0.599  -6.445  12.375  0.00  0.00    +0.043 A 
ATOM     34  N   UNL     1      -0.214  -5.202  12.213  0.00  0.00    -0.380 N 
ATOM     35  C   UNL     1       0.627  -5.125  11.013  0.00  0.00    +0.144 C 
ATOM     36  H   UNL     1      -0.444  -4.459  12.793  0.00  0.00    +0.160 HD
ENDBRANCH  26  27
ENDBRANCH  25  26
ENDBRANCH  23  25
ENDBRANCH   8  21
TORSDOF 6
