REMARK  Name = ZINC66926347
REMARK  6 active torsions:
REMARK  status: ('A' for Active; 'I' for Inactive)
REMARK    1  A    between atoms: C_10  and  C_11
REMARK    2  A    between atoms: C_10  and  O_27
REMARK    3  A    between atoms: C_11  and  N_12
REMARK    4  A    between atoms: N_15  and  N_16
REMARK    5  A    between atoms: C_17  and  C_19
REMARK    6  A    between atoms: C_23  and  C_25
REMARK                            x       y       z     vdW  Elec       q    Type
REMARK                         _______ _______ _______ _____ _____    ______ ____
ROOT
ATOM      1  N   UNL     1       4.837   1.444   0.478  0.00  0.00    -0.295 N 
ATOM      2  C   UNL     1       5.710   2.251   1.112  0.00  0.00    +0.316 C 
ATOM      3  O   UNL     1       6.375   1.822   2.035  0.00  0.00    -0.251 OA
ATOM      4  N   UNL     1       5.846   3.534   0.723  0.00  0.00    -0.218 N 
ATOM      5  H   UNL     1       4.306   1.786  -0.259  0.00  0.00    +0.150 HD
ATOM      6  H   UNL     1       6.474   4.116   1.179  0.00  0.00    +0.174 HD
ENDROOT
BRANCH   4   7
ATOM      7  N   UNL     1       5.080   4.029  -0.341  0.00  0.00    -0.229 N 
ATOM      8  C   UNL     1       5.216   5.312  -0.730  0.00  0.00    +0.260 C 
ATOM      9  O   UNL     1       6.003   6.040  -0.158  0.00  0.00    -0.269 OA
ATOM     10  H   UNL     1       4.452   3.448  -0.797  0.00  0.00    +0.173 HD
BRANCH   8  11
ATOM     11  C   UNL     1       4.407   5.834  -1.853  0.00  0.00    +0.039 A 
ATOM     12  C   UNL     1       3.498   5.000  -2.507  0.00  0.00    +0.013 A 
ATOM     13  C   UNL     1       2.742   5.485  -3.555  0.00  0.00    +0.002 A 
ATOM     14  C   UNL     1       2.879   6.797  -3.964  0.00  0.00    +0.019 A 
ATOM     15  C   UNL     1       3.784   7.642  -3.318  0.00  0.00    +0.052 A 
ATOM     16  C   UNL     1       4.547   7.160  -2.256  0.00  0.00    +0.032 A 
BRANCH  15  17
ATOM     17  C   UNL     1       3.925   9.002  -3.744  0.00  0.00    +0.099 C 
ATOM     18  N   UNL     1       4.037  10.082  -4.081  0.00  0.00    -0.191 NA
ENDBRANCH  15  17
ENDBRANCH   8  11
ENDBRANCH   4   7
BRANCH   1  19
ATOM     19  C   UNL     1       4.689   0.049   0.901  0.00  0.00    +0.145 C 
BRANCH  19  29
ATOM     20  C   UNL     1       3.501  -4.769   1.163  0.00  0.00    +0.000 A 
ATOM     21  C   UNL     1       3.494  -3.749   2.096  0.00  0.00    +0.000 A 
ATOM     22  C   UNL     1       3.578  -2.438   1.677  0.00  0.00    +0.007 A 
ATOM     23  C   UNL     1       3.670  -2.133   0.325  0.00  0.00    -0.011 A 
ATOM     24  C   UNL     1       3.682  -3.149  -0.604  0.00  0.00    -0.041 A 
ATOM     25  C   UNL     1       3.594  -4.469  -0.180  0.00  0.00    +0.004 A 
ATOM     26  C   UNL     1       3.796  -2.893  -2.084  0.00  0.00    +0.035 C 
ATOM     27  C   UNL     1       3.451  -1.440  -2.406  0.00  0.00    +0.008 C 
ATOM     28  C   UNL     1       4.278  -0.532  -1.488  0.00  0.00    +0.041 C 
ATOM     29  C   UNL     1       3.750  -0.679  -0.063  0.00  0.00    +0.107 C 
BRANCH  29  30
ATOM     30  O   UNL     1       2.447  -0.097   0.020  0.00  0.00    -0.382 OA
ATOM     31  H   UNL     1       2.054  -0.138   0.902  0.00  0.00    +0.211 HD
ENDBRANCH  29  30
ENDBRANCH  19  29
ENDBRANCH   1  19
TORSDOF 6
