REMARK  Name = ZINC47868274
REMARK  6 active torsions:
REMARK  status: ('A' for Active; 'I' for Inactive)
REMARK    1  A    between atoms: C_1  and  C_2
REMARK    2  A    between atoms: C_2  and  C_4
REMARK    3  A    between atoms: C_2  and  N_27
REMARK    4  A    between atoms: N_6  and  C_7
REMARK    5  A    between atoms: C_10  and  N_13
REMARK    6  A    between atoms: C_20  and  C_22
REMARK                            x       y       z     vdW  Elec       q    Type
REMARK                         _______ _______ _______ _____ _____    ______ ____
ROOT
ATOM      1  C   UNL     1       1.042  -0.581   3.561  0.00  0.00    +0.034 A 
ATOM      2  C   UNL     1       2.224  -1.282   3.357  0.00  0.00    +0.025 A 
ATOM      3  C   UNL     1       2.975  -1.697   4.437  0.00  0.00    +0.025 A 
ATOM      4  C   UNL     1       2.550  -1.414   5.729  0.00  0.00    +0.035 A 
ATOM      5  C   UNL     1       1.369  -0.714   5.933  0.00  0.00    +0.025 A 
ATOM      6  C   UNL     1       0.620  -0.293   4.852  0.00  0.00    +0.025 A 
ENDROOT
BRANCH   4   7
ATOM      7  N   UNL     1       3.313  -1.836   6.825  0.00  0.00    -0.269 N 
ATOM      8  C   UNL     1       2.702  -2.226   7.961  0.00  0.00    +0.307 C 
ATOM      9  O   UNL     1       1.494  -2.134   8.064  0.00  0.00    -0.252 OA
ATOM     10  N   UNL     1       3.430  -2.719   8.983  0.00  0.00    -0.278 N 
ATOM     11  C   UNL     1       4.895  -2.880   8.995  0.00  0.00    +0.110 C 
ATOM     12  C   UNL     1       5.283  -2.866  10.495  0.00  0.00    +0.021 C 
ATOM     13  C   UNL     1       4.094  -3.633  11.131  0.00  0.00    +0.029 C 
ATOM     14  C   UNL     1       2.894  -3.180  10.272  0.00  0.00    +0.108 C 
ATOM     15  H   UNL     1       4.282  -1.846   6.767  0.00  0.00    +0.156 HD
BRANCH  14  16
ATOM     16  C   UNL     1       1.958  -4.340  10.053  0.00  0.00    -0.020 A 
ATOM     17  C   UNL     1       0.799  -4.457  10.797  0.00  0.00    +0.013 A 
ATOM     18  C   UNL     1      -0.022  -5.512  10.575  0.00  0.00    +0.045 A 
ATOM     19  S   UNL     1       0.842  -6.386   9.280  0.00  0.00    -0.105 S 
ATOM     20  C   UNL     1       2.236  -5.282   9.119  0.00  0.00    +0.050 A 
ENDBRANCH  14  16
ENDBRANCH   4   7
BRANCH   1  23
ATOM     21  C   UNL     1      -0.382   1.014   2.514  0.00  0.00    +0.242 C 
ATOM     22  O   UNL     1      -0.384   1.666   3.536  0.00  0.00    -0.273 OA
ATOM     23  N   UNL     1       0.279  -0.160   2.464  0.00  0.00    -0.284 N 
ATOM     24  H   UNL     1       0.226  -0.713   1.669  0.00  0.00    +0.155 HD
BRANCH  21  26
ATOM     25  C   UNL     1      -2.192   0.504   0.898  0.00  0.00    +0.042 C 
ATOM     26  C   UNL     1      -1.117   1.516   1.298  0.00  0.00    +0.191 C 
BRANCH  26  27
ATOM     27  N   UNL     1      -1.748   2.802   1.606  0.00  0.00    -0.240 N 
ATOM     28  C   UNL     1      -2.943   2.994   2.191  0.00  0.00    +0.219 A 
ATOM     29  N   UNL     1      -3.144   4.283   2.290  0.00  0.00    -0.223 NA
ATOM     30  C   UNL     1      -2.105   4.943   1.780  0.00  0.00    +0.245 A 
ATOM     31  N   UNL     1      -1.222   4.080   1.354  0.00  0.00    -0.158 NA
ENDBRANCH  26  27
ENDBRANCH  21  26
ENDBRANCH   1  23
TORSDOF 5
