REMARK  Name = ZINC36596271
REMARK  13 active torsions:
REMARK  status: ('A' for Active; 'I' for Inactive)
REMARK    1  A    between atoms: C_1  and  C_2
REMARK    2  A    between atoms: C_5  and  S_8
REMARK    3  A    between atoms: S_8  and  C_11
REMARK    4  A    between atoms: C_11  and  N_12
REMARK    5  A    between atoms: C_13  and  C_15
REMARK    6  A    between atoms: C_15  and  C_17
REMARK    7  A    between atoms: C_15  and  N_26
REMARK    8  A    between atoms: C_18  and  O_25
REMARK    9  A    between atoms: C_20  and  O_24
REMARK   10  A    between atoms: C_22  and  O_23
REMARK   11  A    between atoms: N_26  and  C_27
REMARK   12  A    between atoms: C_27  and  C_28
REMARK   13  A    between atoms: C_31  and  C_33
REMARK                            x       y       z     vdW  Elec       q    Type
REMARK                         _______ _______ _______ _____ _____    ______ ____
ROOT
ATOM      1  C   UNL     1       3.098  -4.952   3.615  0.00  0.00    +0.199 C 
ENDROOT
BRANCH   1   2
ATOM      2  C   UNL     1       4.275  -4.011   3.581  0.00  0.00    +0.065 A 
ATOM      3  C   UNL     1       4.171  -2.794   2.925  0.00  0.00    +0.129 A 
ATOM      4  C   UNL     1       5.253  -1.928   2.894  0.00  0.00    +0.091 A 
ATOM      5  C   UNL     1       6.440  -2.279   3.520  0.00  0.00    +0.124 A 
ATOM      6  C   UNL     1       6.544  -3.496   4.177  0.00  0.00    +0.091 A 
ATOM      7  C   UNL     1       5.460  -4.360   4.212  0.00  0.00    +0.129 A 
BRANCH   7   8
ATOM      8  O   UNL     1       5.560  -5.550   4.860  0.00  0.00    -0.506 OA
ATOM      9  H   UNL     1       5.951  -6.256   4.327  0.00  0.00    +0.292 HD
ENDBRANCH   7   8
BRANCH   5  10
ATOM     10  O   UNL     1       7.501  -1.431   3.489  0.00  0.00    -0.507 OA
ATOM     11  H   UNL     1       7.527  -0.806   4.226  0.00  0.00    +0.292 HD
ENDBRANCH   5  10
BRANCH   3  12
ATOM     12  O   UNL     1       3.008  -2.450   2.311  0.00  0.00    -0.506 OA
ATOM     13  H   UNL     1       2.422  -1.906   2.855  0.00  0.00    +0.292 HD
ENDBRANCH   3  12
ENDBRANCH   1   2
BRANCH   1  15
ATOM     14  N   UNL     1       2.860  -5.057   1.155  0.00  0.00    -0.294 N 
ATOM     15  C   UNL     1       3.029  -5.716   2.317  0.00  0.00    +0.240 C 
ATOM     16  O   UNL     1       3.126  -6.925   2.320  0.00  0.00    -0.273 OA
ATOM     17  H   UNL     1       2.729  -4.096   1.157  0.00  0.00    +0.150 HD
BRANCH  14  18
ATOM     18  C   UNL     1       2.875  -5.791  -0.113  0.00  0.00    +0.278 C 
BRANCH  18  19
ATOM     19  S   UNL     1       1.174  -6.197  -0.596  0.00  0.00    +0.013 S 
ATOM     20  O   UNL     1       0.468  -6.742   0.510  0.00  0.00    -0.168 OA
ATOM     21  O   UNL     1       1.167  -6.854  -1.856  0.00  0.00    -0.168 OA
BRANCH  19  26
ATOM     22  C   UNL     1      -1.462  -0.868  -1.627  0.00  0.00    +0.044 C 
ATOM     23  C   UNL     1      -0.804  -2.199  -1.369  0.00  0.00    -0.050 A 
ATOM     24  C   UNL     1      -0.162  -2.863  -2.398  0.00  0.00    +0.005 A 
ATOM     25  C   UNL     1       0.442  -4.084  -2.162  0.00  0.00    +0.027 A 
ATOM     26  C   UNL     1       0.405  -4.640  -0.897  0.00  0.00    +0.090 A 
ATOM     27  C   UNL     1      -0.236  -3.975   0.132  0.00  0.00    +0.027 A 
ATOM     28  C   UNL     1      -0.836  -2.753  -0.103  0.00  0.00    +0.005 A 
ENDBRANCH  19  26
ENDBRANCH  18  19
ENDBRANCH  14  18
ENDBRANCH   1  15
BRANCH   1  29
ATOM     29  N   UNL     1       3.256  -5.892   4.727  0.00  0.00    -0.281 N 
ATOM     30  C   UNL     1       3.967  -7.024   4.558  0.00  0.00    +0.329 C 
ATOM     31  O   UNL     1       4.019  -7.847   5.447  0.00  0.00    -0.279 OA
BRANCH  29  32
ATOM     32  C   UNL     1       2.640  -5.601   6.024  0.00  0.00    +0.182 C 
BRANCH  32  33
ATOM     33  C   UNL     1       1.250  -6.181   6.062  0.00  0.00    +0.122 A 
ATOM     34  C   UNL     1       0.924  -7.415   6.486  0.00  0.00    +0.046 A 
ATOM     35  C   UNL     1      -0.478  -7.538   6.350  0.00  0.00    +0.045 A 
ATOM     36  C   UNL     1      -0.925  -6.372   5.851  0.00  0.00    +0.102 A 
ATOM     37  O   UNL     1       0.126  -5.551   5.684  0.00  0.00    -0.463 OA
ATOM     38  C   UNL     1      -2.361  -6.039   5.537  0.00  0.00    +0.086 C 
ENDBRANCH  32  33
ENDBRANCH  29  32
ENDBRANCH   1  29
TORSDOF 11
