REMARK  Name = ZINC36556343
REMARK  17 active torsions:
REMARK  status: ('A' for Active; 'I' for Inactive)
REMARK    1  A    between atoms: C_1  and  C_2
REMARK    2  A    between atoms: C_5  and  C_7
REMARK    3  A    between atoms: C_7  and  N_8
REMARK    4  A    between atoms: N_8  and  C_9
REMARK    5  A    between atoms: C_9  and  C_11
REMARK    6  A    between atoms: C_9  and  C_20
REMARK    7  A    between atoms: C_12  and  O_19
REMARK    8  A    between atoms: C_14  and  O_18
REMARK    9  A    between atoms: C_16  and  O_17
REMARK   10  A    between atoms: N_22  and  C_23
REMARK   11  A    between atoms: C_23  and  C_24
REMARK   12  A    between atoms: C_23  and  C_25
REMARK   13  A    between atoms: C_23  and  C_26
REMARK   14  A    between atoms: C_27  and  C_29
REMARK   15  A    between atoms: C_29  and  C_31
REMARK   16  A    between atoms: C_29  and  O_37
REMARK   17  A    between atoms: O_37  and  C_38
REMARK                            x       y       z     vdW  Elec       q    Type
REMARK                         _______ _______ _______ _____ _____    ______ ____
ROOT
ATOM      1  C   UNL     1       3.213  -3.600  -2.842  0.00  0.00    +0.200 C 
ENDROOT
BRANCH   1   2
ATOM      2  C   UNL     1       4.075  -2.444  -2.406  0.00  0.00    +0.065 A 
ATOM      3  C   UNL     1       4.452  -2.322  -1.077  0.00  0.00    +0.129 A 
ATOM      4  C   UNL     1       5.246  -1.258  -0.676  0.00  0.00    +0.091 A 
ATOM      5  C   UNL     1       5.662  -0.316  -1.603  0.00  0.00    +0.124 A 
ATOM      6  C   UNL     1       5.286  -0.437  -2.933  0.00  0.00    +0.091 A 
ATOM      7  C   UNL     1       4.496  -1.504  -3.335  0.00  0.00    +0.129 A 
BRANCH   7   8
ATOM      8  O   UNL     1       4.131  -1.626  -4.638  0.00  0.00    -0.506 OA
ATOM      9  H   UNL     1       3.301  -1.180  -4.857  0.00  0.00    +0.292 HD
ENDBRANCH   7   8
BRANCH   5  10
ATOM     10  O   UNL     1       6.439   0.728  -1.210  0.00  0.00    -0.507 OA
ATOM     11  H   UNL     1       7.389   0.551  -1.257  0.00  0.00    +0.292 HD
ENDBRANCH   5  10
BRANCH   3  12
ATOM     12  O   UNL     1       4.044  -3.246  -0.168  0.00  0.00    -0.506 OA
ATOM     13  H   UNL     1       4.687  -3.951  -0.007  0.00  0.00    +0.292 HD
ENDBRANCH   3  12
ENDBRANCH   1   2
BRANCH   1  14
ATOM     14  C   UNL     1       3.911  -4.896  -2.520  0.00  0.00    +0.239 C 
ATOM     15  O   UNL     1       3.388  -5.697  -1.773  0.00  0.00    -0.273 OA
ATOM     16  N   UNL     1       5.115  -5.166  -3.061  0.00  0.00    -0.309 N 
ATOM     17  H   UNL     1       5.533  -4.526  -3.658  0.00  0.00    +0.149 HD
BRANCH  16  18
ATOM     18  C   UNL     1       5.793  -6.426  -2.748  0.00  0.00    +0.026 C 
ATOM     19  C   UNL     1       4.918  -7.600  -3.190  0.00  0.00    +0.031 C 
ATOM     20  C   UNL     1       7.133  -6.482  -3.486  0.00  0.00    +0.031 C 
ATOM     21  C   UNL     1       6.038  -6.513  -1.240  0.00  0.00    +0.031 C 
ENDBRANCH  16  18
ENDBRANCH   1  14
BRANCH   1  22
ATOM     22  N   UNL     1       1.931  -3.547  -2.135  0.00  0.00    -0.276 N 
ATOM     23  C   UNL     1       1.011  -4.512  -2.334  0.00  0.00    +0.250 C 
ATOM     24  O   UNL     1       1.280  -5.473  -3.024  0.00  0.00    -0.272 OA
BRANCH  22  25
ATOM     25  C   UNL     1       1.648  -2.444  -1.213  0.00  0.00    +0.183 C 
BRANCH  25  30
ATOM     26  C   UNL     1       1.240   1.689  -4.076  0.00  0.00    +0.086 C 
ATOM     27  C   UNL     1       0.869   0.504  -3.221  0.00  0.00    +0.102 A 
ATOM     28  C   UNL     1      -0.381   0.142  -2.879  0.00  0.00    +0.045 A 
ATOM     29  C   UNL     1      -0.267  -1.016  -2.077  0.00  0.00    +0.046 A 
ATOM     30  C   UNL     1       1.046  -1.293  -1.977  0.00  0.00    +0.122 A 
ATOM     31  O   UNL     1       1.728  -0.372  -2.676  0.00  0.00    -0.463 OA
ENDBRANCH  25  30
ENDBRANCH  22  25
BRANCH  23  32
ATOM     32  C   UNL     1      -0.350  -4.398  -1.699  0.00  0.00    +0.233 C 
BRANCH  32  33
ATOM     33  C   UNL     1      -0.263  -4.795  -0.248  0.00  0.00    -0.010 A 
ATOM     34  C   UNL     1       0.092  -6.086   0.096  0.00  0.00    +0.006 A 
ATOM     35  C   UNL     1       0.173  -6.450   1.427  0.00  0.00    +0.000 A 
ATOM     36  C   UNL     1      -0.102  -5.523   2.415  0.00  0.00    +0.000 A 
ATOM     37  C   UNL     1      -0.456  -4.232   2.071  0.00  0.00    +0.000 A 
ATOM     38  C   UNL     1      -0.532  -3.866   0.741  0.00  0.00    +0.006 A 
ENDBRANCH  32  33
BRANCH  32  39
ATOM     39  O   UNL     1      -1.265  -5.263  -2.375  0.00  0.00    -0.366 OA
ATOM     40  C   UNL     1      -1.941  -4.649  -3.474  0.00  0.00    +0.195 C 
ENDBRANCH  32  39
ENDBRANCH  23  32
ENDBRANCH   1  22
TORSDOF 12
