REMARK  Name = ZINC15935176
REMARK  9 active torsions:
REMARK  status: ('A' for Active; 'I' for Inactive)
REMARK    1  A    between atoms: C_6  and  C_7
REMARK    2  A    between atoms: C_7  and  C_8
REMARK    3  A    between atoms: C_8  and  N_9
REMARK    4  A    between atoms: C_10  and  C_12
REMARK    5  A    between atoms: C_12  and  C_13
REMARK    6  A    between atoms: C_13  and  N_14
REMARK    7  A    between atoms: N_14  and  S_15
REMARK    8  A    between atoms: S_15  and  C_18
REMARK    9  A    between atoms: C_23  and  N_24
REMARK                            x       y       z     vdW  Elec       q    Type
REMARK                         _______ _______ _______ _____ _____    ______ ____
ROOT
ATOM      1  C   UNL     1      -5.398  -3.424  -3.914  0.00  0.00    +0.115 C 
ENDROOT
BRANCH   1   2
ATOM      2  N   UNL     1      -6.742  -4.004  -3.977  0.00  0.00    -0.189 NA
ATOM      3  H   UNL     1      -7.113  -4.453  -3.202  0.00  0.00    +0.148 HD
BRANCH   2   4
ATOM      4  S   UNL     1      -7.627  -3.893  -5.372  0.00  0.00    +0.062 S 
ATOM      5  O   UNL     1      -8.853  -4.569  -5.130  0.00  0.00    -0.153 OA
ATOM      6  O   UNL     1      -7.575  -2.532  -5.779  0.00  0.00    -0.153 OA
BRANCH   4   7
ATOM      7  C   UNL     1      -6.776  -4.819  -6.605  0.00  0.00    +0.146 A 
ATOM      8  C   UNL     1      -6.255  -4.189  -7.721  0.00  0.00    +0.048 A 
ATOM      9  C   UNL     1      -5.591  -4.959  -8.668  0.00  0.00    +0.038 A 
ATOM     10  C   UNL     1      -5.471  -6.321  -8.469  0.00  0.00    +0.128 A 
ATOM     11  N   UNL     1      -5.979  -6.894  -7.394  0.00  0.00    -0.238 NA
ATOM     12  C   UNL     1      -6.613  -6.194  -6.467  0.00  0.00    +0.143 A 
ATOM     13 BR   UNL     1      -4.859  -4.151 -10.213  0.00  0.00    -0.049 Br
BRANCH  12  14
ATOM     14  N   UNL     1      -7.126  -6.839  -5.347  0.00  0.00    -0.342 N 
ATOM     15  H   UNL     1      -7.515  -6.321  -4.625  0.00  0.00    +0.144 HD
ATOM     16  H   UNL     1      -7.096  -7.807  -5.288  0.00  0.00    +0.144 HD
ENDBRANCH  12  14
ENDBRANCH   4   7
ENDBRANCH   2   4
ENDBRANCH   1   2
BRANCH   1  17
ATOM     17  C   UNL     1      -4.956  -3.317  -2.453  0.00  0.00    +0.112 C 
BRANCH  17  19
ATOM     18  N   UNL     1      -2.977  -2.531  -1.196  0.00  0.00    -0.315 N 
ATOM     19  C   UNL     1      -3.574  -2.721  -2.389  0.00  0.00    +0.214 C 
ATOM     20  O   UNL     1      -2.998  -2.411  -3.411  0.00  0.00    -0.276 OA
ATOM     21  H   UNL     1      -3.437  -2.779  -0.378  0.00  0.00    +0.149 HD
BRANCH  18  22
ATOM     22  C   UNL     1      -1.633  -1.952  -1.133  0.00  0.00    +0.109 C 
BRANCH  22  23
ATOM     23  C   UNL     1      -1.191  -1.845   0.328  0.00  0.00    +0.054 C 
BRANCH  23  29
ATOM     24  C   UNL     1       0.349   0.122   0.486  0.00  0.00    +0.005 A 
ATOM     25  C   UNL     1       1.617   0.669   0.546  0.00  0.00    +0.020 A 
ATOM     26  C   UNL     1       2.728  -0.154   0.512  0.00  0.00    +0.041 A 
ATOM     27  C   UNL     1       2.570  -1.525   0.418  0.00  0.00    +0.020 A 
ATOM     28  C   UNL     1       1.302  -2.072   0.359  0.00  0.00    +0.005 A 
ATOM     29  C   UNL     1       0.192  -1.248   0.393  0.00  0.00    -0.046 A 
ATOM     30 CL   UNL     1       4.320   0.533   0.586  0.00  0.00    -0.084 Cl
ENDBRANCH  23  29
ENDBRANCH  22  23
ENDBRANCH  18  22
ENDBRANCH  17  19
ENDBRANCH   1  17
TORSDOF 9
