REMARK  Name = ZINC12864973
REMARK  8 active torsions:
REMARK  status: ('A' for Active; 'I' for Inactive)
REMARK    1  A    between atoms: C_6  and  O_7
REMARK    2  A    between atoms: O_7  and  C_8
REMARK    3  A    between atoms: C_8  and  C_9
REMARK    4  A    between atoms: N_11  and  C_12
REMARK    5  A    between atoms: C_12  and  C_13
REMARK    6  A    between atoms: N_15  and  C_16
REMARK    7  A    between atoms: C_16  and  C_17
REMARK    8  A    between atoms: C_22  and  O_30
REMARK                            x       y       z     vdW  Elec       q    Type
REMARK                         _______ _______ _______ _____ _____    ______ ____
ROOT
ATOM      1  C   UNL     1       4.946   7.936   0.005  0.00  0.00    +0.251 C 
ATOM      2  O   UNL     1       5.896   7.183  -0.007  0.00  0.00    -0.272 OA
ATOM      3  N   UNL     1       5.143   9.270   0.011  0.00  0.00    -0.304 N 
ATOM      4  H   UNL     1       4.382   9.872   0.021  0.00  0.00    +0.149 HD
ENDROOT
BRANCH   1   5
ATOM      5  C   UNL     1       3.545   7.381   0.013  0.00  0.00    +0.324 C 
BRANCH   5   6
ATOM      6  O   UNL     1       3.598   5.953   0.004  0.00  0.00    -0.483 OA
BRANCH   6  12
ATOM      7  C   UNL     1       1.220   6.013   0.024  0.00  0.00    +0.046 A 
ATOM      8  C   UNL     1       0.019   5.363   0.030  0.00  0.00    +0.015 A 
ATOM      9  C   UNL     1      -0.014   3.964   0.023  0.00  0.00    +0.021 A 
ATOM     10  C   UNL     1       1.188   3.231   0.009  0.00  0.00    +0.143 A 
ATOM     11  C   UNL     1       2.398   3.907   0.002  0.00  0.00    +0.092 A 
ATOM     12  C   UNL     1       2.412   5.292   0.010  0.00  0.00    +0.125 A 
ATOM     13  O   UNL     1       1.149   1.881   0.001  0.00  0.00    -0.422 OA
ATOM     14  C   UNL     1      -0.014   1.214   0.009  0.00  0.00    +0.341 A 
ATOM     15  O   UNL     1       0.002  -0.004   0.002  0.00  0.00    -0.245 OA
ATOM     16  C   UNL     1      -1.259   1.884   0.018  0.00  0.00    +0.041 A 
ATOM     17  C   UNL     1      -1.287   3.240   0.032  0.00  0.00    -0.027 A 
ATOM     18  C   UNL     1      -2.714   3.736   0.048  0.00  0.00    +0.036 C 
ATOM     19  C   UNL     1      -3.557   2.518   0.485  0.00  0.00    +0.010 C 
ATOM     20  C   UNL     1      -2.670   1.336   0.035  0.00  0.00    +0.043 C 
ENDBRANCH   6  12
ENDBRANCH   5   6
ENDBRANCH   1   5
BRANCH   3  21
ATOM     21  C   UNL     1       6.505   9.809   0.003  0.00  0.00    +0.200 C 
BRANCH  21  22
ATOM     22  C   UNL     1       6.448  11.315   0.013  0.00  0.00    +0.231 C 
ATOM     23  O   UNL     1       5.376  11.882   0.025  0.00  0.00    -0.274 OA
ATOM     24  N   UNL     1       7.590  12.032   0.008  0.00  0.00    -0.305 N 
ATOM     25  H   UNL     1       8.447  11.579  -0.002  0.00  0.00    +0.149 HD
BRANCH  24  26
ATOM     26  C   UNL     1       7.535  13.496   0.017  0.00  0.00    +0.200 C 
BRANCH  26  27
ATOM     27  C   UNL     1       8.936  14.051   0.009  0.00  0.00    +0.233 C 
ATOM     28  O   UNL     1       9.886  13.298  -0.004  0.00  0.00    -0.274 OA
ATOM     29  N   UNL     1       9.133  15.384   0.015  0.00  0.00    -0.300 N 
ATOM     30  C   UNL     1       7.992  16.310   0.024  0.00  0.00    +0.110 C 
ATOM     31  C   UNL     1       8.159  17.280   1.203  0.00  0.00    +0.054 C 
ATOM     32  C   UNL     1       9.523  17.969   1.101  0.00  0.00    +0.072 C 
ATOM     33  C   UNL     1       9.678  18.952   2.264  0.00  0.00    +0.035 C 
ATOM     34  C   UNL     1       9.568  18.193   3.588  0.00  0.00    +0.003 C 
ATOM     35  C   UNL     1      10.670  17.135   3.665  0.00  0.00    +0.001 C 
ATOM     36  C   UNL     1      10.521  16.156   2.498  0.00  0.00    +0.008 C 
ATOM     37  C   UNL     1      10.633  16.919   1.177  0.00  0.00    +0.038 C 
ATOM     38  C   UNL     1      10.492  15.941   0.007  0.00  0.00    +0.114 C 
BRANCH  32  39
ATOM     39  O   UNL     1       9.616  18.675  -0.138  0.00  0.00    -0.388 OA
ATOM     40  H   UNL     1       8.941  19.358  -0.253  0.00  0.00    +0.210 HD
ENDBRANCH  32  39
ENDBRANCH  26  27
ENDBRANCH  24  26
ENDBRANCH  21  22
ENDBRANCH   3  21
TORSDOF 8
