REMARK  Name = ZINC40983303
REMARK  10 active torsions:
REMARK  status: ('A' for Active; 'I' for Inactive)
REMARK    1  A    between atoms: C_1  and  C_2
REMARK    2  A    between atoms: C_2  and  C_3
REMARK    3  A    between atoms: C_3  and  C_4
REMARK    4  A    between atoms: C_4  and  S_5
REMARK    5  A    between atoms: S_5  and  C_6
REMARK    6  A    between atoms: C_11  and  C_21
REMARK    7  A    between atoms: C_26  and  O_27
REMARK    8  A    between atoms: O_27  and  C_28
REMARK    9  A    between atoms: C_28  and  C_29
REMARK   10  A    between atoms: C_29  and  C_30
REMARK                            x       y       z     vdW  Elec       q    Type
REMARK                         _______ _______ _______ _____ _____    ______ ____
ROOT
ATOM      1  C   UNL     1      -2.923  -4.443   0.006  0.00  0.00    +0.210 A 
ATOM      2  N   UNL     1      -1.753  -5.098  -0.003  0.00  0.00    -0.187 NA
ATOM      3  C   UNL     1      -1.973  -6.384  -0.012  0.00  0.00    +0.219 A 
ATOM      4  N   UNL     1      -3.315  -6.582  -0.003  0.00  0.00    -0.220 N 
ATOM      5  N   UNL     1      -3.904  -5.319   0.011  0.00  0.00    -0.141 NA
ATOM      6  C   UNL     1      -3.930  -7.903   0.003  0.00  0.00    +0.179 C 
ATOM      7  C   UNL     1      -2.901  -8.956  -0.345  0.00  0.00    +0.041 C 
ATOM      8  C   UNL     1      -1.577  -8.692  -0.346  0.00  0.00    +0.020 C 
ATOM      9  N   UNL     1      -1.086  -7.448  -0.031  0.00  0.00    -0.287 N 
ATOM     10  C   UNL     1      -0.573  -9.762  -0.704  0.00  0.00    +0.052 C 
ATOM     11  C   UNL     1      -1.111 -11.133  -0.290  0.00  0.00    +0.014 C 
ATOM     12  C   UNL     1      -2.445 -11.364  -1.008  0.00  0.00    +0.080 C 
ATOM     13  C   UNL     1      -3.382 -10.238  -0.670  0.00  0.00    +0.163 C 
ATOM     14  O   UNL     1      -4.580 -10.438  -0.677  0.00  0.00    -0.292 OA
ATOM     15  H   UNL     1      -0.147  -7.318   0.172  0.00  0.00    +0.155 HD
ENDROOT
BRANCH   6  16
ATOM     16  C   UNL     1      -4.491  -8.188   1.372  0.00  0.00    +0.023 A 
ATOM     17  C   UNL     1      -3.656  -8.198   2.473  0.00  0.00    +0.009 A 
ATOM     18  C   UNL     1      -4.170  -8.460   3.729  0.00  0.00    +0.001 A 
ATOM     19  C   UNL     1      -5.520  -8.712   3.888  0.00  0.00    +0.004 A 
ATOM     20  C   UNL     1      -6.359  -8.702   2.791  0.00  0.00    +0.046 A 
ATOM     21  C   UNL     1      -5.847  -8.434   1.530  0.00  0.00    +0.126 A 
BRANCH  21  22
ATOM     22  O   UNL     1      -6.672  -8.419   0.450  0.00  0.00    -0.492 OA
BRANCH  22  23
ATOM     23  C   UNL     1      -8.056  -8.681   0.686  0.00  0.00    +0.229 C 
BRANCH  23  24
ATOM     24  C   UNL     1      -8.820  -8.621  -0.638  0.00  0.00    +0.038 C 
ATOM     25  C   UNL     1     -10.303  -8.902  -0.384  0.00  0.00    +0.007 C 
ENDBRANCH  23  24
ENDBRANCH  22  23
ENDBRANCH  21  22
ENDBRANCH   6  16
BRANCH   1  26
ATOM     26  S   UNL     1      -3.114  -2.691   0.017  0.00  0.00    -0.084 S 
BRANCH  26  27
ATOM     27  C   UNL     1      -1.413  -2.063   0.004  0.00  0.00    +0.077 C 
BRANCH  27  28
ATOM     28  C   UNL     1      -1.433  -0.534   0.013  0.00  0.00    +0.011 C 
BRANCH  28  30
ATOM     29  C   UNL     1      -0.019   1.526   0.010  0.00  0.00    +0.004 C 
ATOM     30  C   UNL     1       0.002  -0.004   0.002  0.00  0.00    -0.003 C 
ENDBRANCH  28  30
ENDBRANCH  27  28
ENDBRANCH  26  27
ENDBRANCH   1  26
TORSDOF 8
