REMARK  Name = ZINC08429484
REMARK  7 active torsions:
REMARK  status: ('A' for Active; 'I' for Inactive)
REMARK    1  A    between atoms: C_1  and  C_2
REMARK    2  A    between atoms: C_2  and  C_4
REMARK    3  A    between atoms: C_2  and  N_15
REMARK    4  A    between atoms: C_7  and  N_10
REMARK    5  A    between atoms: C_16  and  C_18
REMARK    6  A    between atoms: C_18  and  N_19
REMARK    7  A    between atoms: C_28  and  C_30
REMARK                            x       y       z     vdW  Elec       q    Type
REMARK                         _______ _______ _______ _____ _____    ______ ____
ROOT
ATOM      1  N   UNL     1      -3.859  -3.969  -1.652  0.00  0.00    -0.307 N 
ATOM      2  C   UNL     1      -2.752  -3.240  -1.412  0.00  0.00    +0.235 C 
ATOM      3  O   UNL     1      -2.103  -2.800  -2.337  0.00  0.00    -0.274 OA
ATOM      4  H   UNL     1      -4.378  -4.321  -0.911  0.00  0.00    +0.149 HD
ENDROOT
BRANCH   1   6
ATOM      5  C   UNL     1      -3.535  -5.454  -3.567  0.00  0.00    +0.033 C 
ATOM      6  C   UNL     1      -4.280  -4.231  -3.030  0.00  0.00    +0.100 C 
BRANCH   6   7
ATOM      7  C   UNL     1      -5.763  -4.491  -3.062  0.00  0.00    -0.027 A 
ATOM      8  C   UNL     1      -6.352  -5.250  -2.068  0.00  0.00    +0.007 A 
ATOM      9  C   UNL     1      -7.713  -5.486  -2.091  0.00  0.00    +0.028 A 
ATOM     10  C   UNL     1      -8.488  -4.970  -3.121  0.00  0.00    +0.067 A 
ATOM     11  C   UNL     1      -7.893  -4.213  -4.121  0.00  0.00    +0.028 A 
ATOM     12  C   UNL     1      -6.533  -3.976  -4.090  0.00  0.00    +0.007 A 
BRANCH  10  13
ATOM     13  N   UNL     1      -9.868  -5.212  -3.150  0.00  0.00    -0.220 N 
ATOM     14  C   UNL     1     -10.582  -5.928  -2.259  0.00  0.00    +0.225 A 
ATOM     15  N   UNL     1     -11.834  -5.914  -2.639  0.00  0.00    -0.222 NA
ATOM     16  C   UNL     1     -11.958  -5.212  -3.765  0.00  0.00    +0.245 A 
ATOM     17  N   UNL     1     -10.782  -4.762  -4.117  0.00  0.00    -0.154 NA
ENDBRANCH  10  13
ENDBRANCH   6   7
ENDBRANCH   1   6
BRANCH   2  18
ATOM     18  C   UNL     1      -2.320  -2.970   0.007  0.00  0.00    +0.243 C 
BRANCH  18  19
ATOM     19  N   UNL     1      -1.098  -2.162   0.000  0.00  0.00    -0.219 N 
ATOM     20  C   UNL     1      -1.221  -0.819   0.009  0.00  0.00    +0.275 A 
ATOM     21  O   UNL     1      -2.319  -0.294   0.022  0.00  0.00    -0.266 OA
ATOM     22  C   UNL     1       0.002  -0.004   0.002  0.00  0.00    +0.050 A 
ATOM     23  C   UNL     1      -0.017   1.387   0.010  0.00  0.00    +0.014 A 
ATOM     24  C   UNL     1       1.176   2.079   0.002  0.00  0.00    +0.001 A 
ATOM     25  C   UNL     1       2.389   1.403  -0.013  0.00  0.00    +0.001 A 
ATOM     26  C   UNL     1       2.428   0.024  -0.021  0.00  0.00    +0.011 A 
ATOM     27  C   UNL     1       1.237  -0.693  -0.013  0.00  0.00    +0.020 A 
ATOM     28  C   UNL     1       1.192  -2.164  -0.021  0.00  0.00    +0.153 A 
ATOM     29  N   UNL     1       0.029  -2.768  -0.014  0.00  0.00    -0.162 NA
BRANCH  28  30
ATOM     30  C   UNL     1       2.442  -2.949  -0.038  0.00  0.00    +0.262 C 
ATOM     31  O   UNL     1       3.517  -2.381  -0.045  0.00  0.00    -0.269 OA
ATOM     32  N   UNL     1       2.392  -4.296  -0.045  0.00  0.00    -0.324 N 
ATOM     33  H   UNL     1       1.534  -4.749  -0.040  0.00  0.00    +0.145 HD
ATOM     34  H   UNL     1       3.213  -4.812  -0.056  0.00  0.00    +0.145 HD
ENDBRANCH  28  30
ENDBRANCH  18  19
ENDBRANCH   2  18
TORSDOF 6
