REMARK  Name = ZINC50213773
REMARK  7 active torsions:
REMARK  status: ('A' for Active; 'I' for Inactive)
REMARK    1  A    between atoms: C_1  and  C_2
REMARK    2  A    between atoms: C_2  and  C_3
REMARK    3  A    between atoms: C_2  and  C_4
REMARK    4  A    between atoms: C_2  and  C_5
REMARK    5  A    between atoms: C_6  and  C_19
REMARK    6  A    between atoms: N_9  and  C_10
REMARK    7  A    between atoms: C_16  and  O_18
REMARK                            x       y       z     vdW  Elec       q    Type
REMARK                         _______ _______ _______ _____ _____    ______ ____
ROOT
ATOM      1  C   UNL     1       0.205  -0.003  -1.826  0.00  0.00    +0.079 A 
ATOM      2  C   UNL     1      -0.590   0.310  -2.908  0.00  0.00    +0.197 A 
ATOM      3  N   UNL     1       0.083  -0.008  -4.029  0.00  0.00    -0.122 NA
ATOM      4  N   UNL     1       1.233  -0.495  -3.718  0.00  0.00    -0.064 NA
ATOM      5  N   UNL     1       1.353  -0.503  -2.322  0.00  0.00    -0.242 N 
ENDROOT
BRANCH   5   6
ATOM      6  C   UNL     1       2.506  -0.971  -1.548  0.00  0.00    +0.138 C 
ATOM      7  C   UNL     1       3.392   0.222  -1.182  0.00  0.00    +0.029 C 
ATOM      8  C   UNL     1       3.879   0.907  -2.460  0.00  0.00    +0.002 C 
ATOM      9  C   UNL     1       4.685  -0.088  -3.297  0.00  0.00    +0.003 C 
ATOM     10  C   UNL     1       3.799  -1.280  -3.664  0.00  0.00    +0.033 C 
ATOM     11  C   UNL     1       3.312  -1.966  -2.386  0.00  0.00    +0.139 C 
BRANCH  11  12
ATOM     12  O   UNL     1       2.485  -3.080  -2.728  0.00  0.00    -0.390 OA
ATOM     13  H   UNL     1       2.932  -3.753  -3.260  0.00  0.00    +0.210 HD
ENDBRANCH  11  12
ENDBRANCH   5   6
BRANCH   1  15
ATOM     14  C   UNL     1       0.769  -0.697   0.487  0.00  0.00    +0.017 C 
ATOM     15  C   UNL     1      -0.141   0.183  -0.371  0.00  0.00    +0.007 C 
ATOM     16  C   UNL     1      -1.601  -0.213  -0.139  0.00  0.00    +0.017 C 
ATOM     17  C   UNL     1       0.056   1.651   0.016  0.00  0.00    +0.017 C 
ENDBRANCH   1  15
BRANCH   2  18
ATOM     18  C   UNL     1      -1.940   0.892  -2.847  0.00  0.00    +0.408 C 
ATOM     19  O   UNL     1      -2.245   1.634  -1.923  0.00  0.00    -0.239 OA
ATOM     20  O   UNL     1      -2.757   0.633  -3.720  0.00  0.00    -0.239 OA
ENDBRANCH   2  18
TORSDOF 4
