REMARK  Name = ZINC11254246
REMARK  6 active torsions:
REMARK  status: ('A' for Active; 'I' for Inactive)
REMARK    1  A    between atoms: C_1  and  C_2
REMARK    2  A    between atoms: C_2  and  C_4
REMARK    3  A    between atoms: C_2  and  S_13
REMARK    4  A    between atoms: N_9  and  C_10
REMARK    5  A    between atoms: S_13  and  C_14
REMARK    6  A    between atoms: N_27  and  C_28
REMARK                            x       y       z     vdW  Elec       q    Type
REMARK                         _______ _______ _______ _____ _____    ______ ____
ROOT
ATOM      1  C   UNL     1      -7.451   0.680  -0.696  0.00  0.00    +0.174 A 
ATOM      2  N   UNL     1      -7.244  -0.544  -0.252  0.00  0.00    -0.216 NA
ATOM      3  C   UNL     1      -8.224  -1.440  -0.248  0.00  0.00    +0.117 A 
ATOM      4  C   UNL     1      -9.513  -1.141  -0.720  0.00  0.00    +0.076 A 
ATOM      5  C   UNL     1     -10.486  -2.233  -0.659  0.00  0.00    -0.023 A 
ATOM      6  C   UNL     1     -10.055  -3.409  -0.159  0.00  0.00    -0.004 A 
ATOM      7  S   UNL     1      -8.353  -3.138   0.254  0.00  0.00    -0.073 S 
ATOM      8  C   UNL     1     -10.849  -4.669   0.010  0.00  0.00    +0.043 C 
ATOM      9  C   UNL     1     -12.339  -4.326  -0.130  0.00  0.00    +0.005 C 
ATOM     10  C   UNL     1     -12.527  -3.454  -1.375  0.00  0.00    +0.005 C 
ATOM     11  C   UNL     1     -11.926  -2.069  -1.135  0.00  0.00    +0.037 C 
ATOM     12  C   UNL     1      -9.707   0.193  -1.201  0.00  0.00    +0.263 A 
ATOM     13  O   UNL     1     -10.793   0.544  -1.629  0.00  0.00    -0.267 OA
ATOM     14  N   UNL     1      -8.674   1.055  -1.172  0.00  0.00    -0.284 N 
ENDROOT
BRANCH  14  15
ATOM     15  C   UNL     1      -8.865   2.422  -1.663  0.00  0.00    +0.093 C 
ATOM     16  C   UNL     1      -9.998   3.112  -0.876  0.00  0.00    +0.025 C 
ATOM     17  C   UNL     1     -10.727   3.974  -1.938  0.00  0.00    +0.002 C 
ATOM     18  C   UNL     1     -10.691   3.072  -3.196  0.00  0.00    +0.002 C 
ATOM     19  C   UNL     1      -9.305   2.397  -3.137  0.00  0.00    +0.025 C 
ENDBRANCH  14  15
BRANCH   1  20
ATOM     20  S   UNL     1      -6.129   1.845  -0.680  0.00  0.00    -0.075 S 
BRANCH  20  22
ATOM     21  C   UNL     1      -5.183   0.444   1.466  0.00  0.00    +0.029 C 
ATOM     22  C   UNL     1      -4.816   0.821   0.029  0.00  0.00    +0.137 C 
BRANCH  22  23
ATOM     23  C   UNL     1      -3.522   1.592   0.027  0.00  0.00    +0.233 C 
ATOM     24  O   UNL     1      -3.538   2.804   0.034  0.00  0.00    -0.274 OA
ATOM     25  N   UNL     1      -2.345   0.934   0.018  0.00  0.00    -0.239 N 
ATOM     26  C   UNL     1      -1.187   1.624   0.017  0.00  0.00    +0.306 C 
ATOM     27  O   UNL     1      -1.204   2.839   0.023  0.00  0.00    -0.252 OA
ATOM     28  N   UNL     1      -0.011   0.966   0.007  0.00  0.00    -0.296 N 
ATOM     29  H   UNL     1      -2.332  -0.036   0.013  0.00  0.00    +0.159 HD
ATOM     30  H   UNL     1       0.002  -0.004   0.002  0.00  0.00    +0.151 HD
BRANCH  28  31
ATOM     31  C   UNL     1       1.248   1.716  -0.001  0.00  0.00    +0.075 C 
ATOM     32  C   UNL     1       2.347   1.240  -0.952  0.00  0.00    +0.024 C 
ATOM     33  C   UNL     1       2.490   1.016   0.555  0.00  0.00    +0.024 C 
ENDBRANCH  28  31
ENDBRANCH  22  23
ENDBRANCH  20  22
ENDBRANCH   1  20
TORSDOF 5
