REMARK  Name = ZINC16012573
REMARK  7 active torsions:
REMARK  status: ('A' for Active; 'I' for Inactive)
REMARK    1  A    between atoms: C_1  and  C_2
REMARK    2  A    between atoms: C_2  and  C_3
REMARK    3  A    between atoms: C_6  and  N_9
REMARK    4  A    between atoms: C_14  and  C_33
REMARK    5  A    between atoms: C_26  and  C_31
REMARK    6  A    between atoms: C_33  and  C_34
REMARK    7  A    between atoms: C_34  and  C_35
REMARK                            x       y       z     vdW  Elec       q    Type
REMARK                         _______ _______ _______ _____ _____    ______ ____
ROOT
ATOM      1  N   UNL     1       2.747  -1.884   4.600  0.00  0.00    -0.210 N 
ATOM      2  C   UNL     1       4.050  -2.191   4.590  0.00  0.00    +0.232 C 
ATOM      3  O   UNL     1       4.781  -2.111   3.627  0.00  0.00    -0.274 OA
ATOM      4  C   UNL     1       4.468  -2.651   5.968  0.00  0.00    +0.107 C 
ATOM      5  C   UNL     1       4.831  -4.150   5.916  0.00  0.00    +0.068 C 
ATOM      6  N   UNL     1       3.542  -4.863   6.121  0.00  0.00    -0.295 NA
ATOM      7  C   UNL     1       2.836  -4.050   7.129  0.00  0.00    +0.136 C 
ATOM      8  C   UNL     1       3.150  -2.572   6.788  0.00  0.00    +0.123 C 
ATOM      9  C   UNL     1       2.146  -2.052   5.783  0.00  0.00    +0.233 C 
ATOM     10  O   UNL     1       0.977  -1.826   6.014  0.00  0.00    -0.274 OA
ATOM     11  C   UNL     1       3.276  -4.394   8.523  0.00  0.00    +0.004 A 
ATOM     12  C   UNL     1       4.493  -4.369   9.167  0.00  0.00    +0.009 A 
ATOM     13  C   UNL     1       4.585  -4.756  10.492  0.00  0.00    +0.021 A 
ATOM     14  C   UNL     1       3.450  -5.169  11.168  0.00  0.00    +0.046 A 
ATOM     15  C   UNL     1       2.228  -5.196  10.527  0.00  0.00    -0.011 A 
ATOM     16  C   UNL     1       2.128  -4.808   9.193  0.00  0.00    +0.043 A 
ATOM     17  N   UNL     1       1.024  -4.750   8.340  0.00  0.00    -0.283 N 
ATOM     18  C   UNL     1       1.355  -4.316   7.109  0.00  0.00    +0.243 C 
ATOM     19  O   UNL     1       0.605  -4.167   6.167  0.00  0.00    -0.273 OA
ATOM     20  C   UNL     1       0.999  -5.647  11.272  0.00  0.00    +0.047 C 
ATOM     21 CL   UNL     1       3.565  -5.655  12.831  0.00  0.00    -0.083 Cl
ATOM     22  H   UNL     1       3.015  -4.912   5.262  0.00  0.00    +0.123 HD
ATOM     23  H   UNL     1       0.123  -4.995   8.604  0.00  0.00    +0.155 HD
ENDROOT
BRANCH   1  27
ATOM     24  C   UNL     1       0.732  -0.502   1.223  0.00  0.00    -0.048 A 
ATOM     25  C   UNL     1       0.926   0.339   2.303  0.00  0.00    +0.005 A 
ATOM     26  C   UNL     1       1.593  -0.116   3.424  0.00  0.00    +0.024 A 
ATOM     27  C   UNL     1       2.069  -1.419   3.465  0.00  0.00    +0.044 A 
ATOM     28  C   UNL     1       1.873  -2.261   2.378  0.00  0.00    +0.024 A 
ATOM     29  C   UNL     1       1.201  -1.802   1.263  0.00  0.00    +0.005 A 
BRANCH  24  31
ATOM     30  C   UNL     1      -1.495  -0.266   0.158  0.00  0.00    +0.009 C 
ATOM     31  C   UNL     1       0.004  -0.002   0.002  0.00  0.00    +0.032 C 
ENDBRANCH  24  31
ENDBRANCH   1  27
BRANCH   5  32
ATOM     32  C   UNL     1       5.428  -4.507   4.553  0.00  0.00    +0.028 C 
BRANCH  32  33
ATOM     33  C   UNL     1       5.894  -5.964   4.566  0.00  0.00    +0.097 C 
BRANCH  33  34
ATOM     34  C   UNL     1       6.482  -6.315   3.224  0.00  0.00    +0.211 C 
ATOM     35  O   UNL     1       6.524  -5.482   2.343  0.00  0.00    -0.276 OA
ATOM     36  N   UNL     1       6.962  -7.555   3.001  0.00  0.00    -0.329 N 
ATOM     37  H   UNL     1       6.928  -8.221   3.705  0.00  0.00    +0.145 HD
ATOM     38  H   UNL     1       7.340  -7.780   2.137  0.00  0.00    +0.145 HD
ENDBRANCH  33  34
ENDBRANCH  32  33
ENDBRANCH   5  32
TORSDOF 5
