REMARK  Name = ZINC50350588
REMARK  6 active torsions:
REMARK  status: ('A' for Active; 'I' for Inactive)
REMARK    1  A    between atoms: C_1  and  C_2
REMARK    2  A    between atoms: C_4  and  C_8
REMARK    3  A    between atoms: C_5  and  C_7
REMARK    4  A    between atoms: C_8  and  C_10
REMARK    5  A    between atoms: C_8  and  S_11
REMARK    6  A    between atoms: S_11  and  N_14
REMARK                            x       y       z     vdW  Elec       q    Type
REMARK                         _______ _______ _______ _____ _____    ______ ____
ROOT
ATOM      1  C   UNL     1      -1.912  -3.224  -0.008  0.00  0.00    +0.175 C 
ATOM      2  C   UNL     1      -2.206  -3.663   1.428  0.00  0.00    +0.038 C 
ENDROOT
BRANCH   1   6
ATOM      3  C   UNL     1      -0.018   1.503   0.010  0.00  0.00    +0.051 C 
ATOM      4  C   UNL     1       0.002  -0.004   0.002  0.00  0.00    -0.013 A 
ATOM      5  C   UNL     1      -1.039  -0.872   0.002  0.00  0.00    +0.016 A 
ATOM      6  C   UNL     1      -0.780  -2.230  -0.007  0.00  0.00    -0.012 A 
ATOM      7  C   UNL     1       0.507  -2.653  -0.016  0.00  0.00    -0.008 A 
ATOM      8  S   UNL     1       1.404  -1.109  -0.018  0.00  0.00    -0.098 S 
ATOM      9  C   UNL     1       1.043  -4.062  -0.027  0.00  0.00    +0.052 C 
ENDBRANCH   1   6
BRANCH   1  10
ATOM     10  S   UNL     1      -3.393  -2.455  -0.719  0.00  0.00    +0.034 S 
ATOM     11  O   UNL     1      -3.808  -1.357   0.083  0.00  0.00    -0.158 OA
ATOM     12  O   UNL     1      -3.241  -2.309  -2.124  0.00  0.00    -0.158 OA
BRANCH  10  13
ATOM     13  N   UNL     1      -4.589  -3.586  -0.538  0.00  0.00    -0.208 NA
ATOM     14  H   UNL     1      -4.391  -4.438  -0.120  0.00  0.00    +0.144 HD
ATOM     15  H   UNL     1      -5.488  -3.396  -0.851  0.00  0.00    +0.144 HD
ENDBRANCH  10  13
ENDBRANCH   1  10
TORSDOF 3
