REMARK  Name = ZINC61824171
REMARK  6 active torsions:
REMARK  status: ('A' for Active; 'I' for Inactive)
REMARK    1  A    between atoms: C_1  and  C_2
REMARK    2  A    between atoms: C_2  and  C_21
REMARK    3  A    between atoms: N_5  and  S_8
REMARK    4  A    between atoms: S_8  and  C_11
REMARK    5  A    between atoms: C_13  and  N_20
REMARK    6  A    between atoms: C_16  and  N_17
REMARK                            x       y       z     vdW  Elec       q    Type
REMARK                         _______ _______ _______ _____ _____    ______ ____
ROOT
ATOM      1  C   UNL     1       5.522   0.157  -0.165  0.00  0.00    +0.137 A 
ATOM      2  C   UNL     1       5.174   1.463  -0.449  0.00  0.00    +0.053 A 
ATOM      3  C   UNL     1       6.163   2.426  -0.605  0.00  0.00    +0.027 A 
ATOM      4  C   UNL     1       7.500   2.071  -0.474  0.00  0.00    +0.025 A 
ATOM      5  C   UNL     1       7.841   0.764  -0.190  0.00  0.00    +0.036 A 
ATOM      6  C   UNL     1       6.854  -0.191  -0.030  0.00  0.00    +0.153 A 
ENDROOT
BRANCH   1   7
ATOM      7  S   UNL     1       4.269  -1.065   0.034  0.00  0.00    +0.063 S 
ATOM      8  O   UNL     1       4.501  -1.684   1.292  0.00  0.00    -0.153 OA
ATOM      9  O   UNL     1       4.223  -1.802  -1.181  0.00  0.00    -0.153 OA
BRANCH   7  14
ATOM     10  C   UNL     1       0.018   1.583   0.407  0.00  0.00    +0.011 C 
ATOM     11  C   UNL     1       0.021   0.054   0.366  0.00  0.00    -0.032 C 
ATOM     12  C   UNL     1       0.652  -0.419  -0.945  0.00  0.00    +0.023 C 
ATOM     13  C   UNL     1       2.079   0.127  -1.046  0.00  0.00    +0.110 C 
ATOM     14  N   UNL     1       2.823  -0.268   0.158  0.00  0.00    -0.176 NA
ATOM     15  C   UNL     1       2.259   0.059   1.475  0.00  0.00    +0.110 C 
ATOM     16  C   UNL     1       0.829  -0.486   1.548  0.00  0.00    +0.023 C 
ATOM     17  C   UNL     1      -1.417  -0.461   0.454  0.00  0.00    +0.011 C 
ENDBRANCH   7  14
ENDBRANCH   1   7
BRANCH   6  18
ATOM     18  N   UNL     1       7.223  -1.591   0.281  0.00  0.00    +0.058 N 
ATOM     19  O   UNL     1       8.374  -1.873   0.519  0.00  0.00    -0.126 OA
ATOM     20  O   UNL     1       6.374  -2.451   0.296  0.00  0.00    -0.126 OA
ENDBRANCH   6  18
BRANCH   3  21
ATOM     21  N   UNL     1       5.814   3.747  -0.893  0.00  0.00    -0.358 N 
ATOM     22  H   UNL     1       4.880   3.993  -0.984  0.00  0.00    +0.142 HD
ATOM     23  H   UNL     1       6.505   4.418  -1.001  0.00  0.00    +0.142 HD
ENDBRANCH   3  21
TORSDOF 4
