REMARK  Name = ZINC49739166
REMARK  8 active torsions:
REMARK  status: ('A' for Active; 'I' for Inactive)
REMARK    1  A    between atoms: C_1  and  C_2
REMARK    2  A    between atoms: C_4  and  O_26
REMARK    3  A    between atoms: C_5  and  C_25
REMARK    4  A    between atoms: C_7  and  S_8
REMARK    5  A    between atoms: S_8  and  N_11
REMARK    6  A    between atoms: N_11  and  C_12
REMARK    7  A    between atoms: C_12  and  C_13
REMARK    8  A    between atoms: O_26  and  C_27
REMARK                            x       y       z     vdW  Elec       q    Type
REMARK                         _______ _______ _______ _____ _____    ______ ____
ROOT
ATOM      1  N   UNL     1       1.176   1.032   2.914  0.00  0.00    -0.186 NA
ATOM      2  H   UNL     1       1.876   0.863   3.564  0.00  0.00    +0.148 HD
ENDROOT
BRANCH   1   3
ATOM      3  S   UNL     1      -0.064  -0.049   2.732  0.00  0.00    +0.059 S 
ATOM      4  O   UNL     1      -1.269   0.702   2.786  0.00  0.00    -0.153 OA
ATOM      5  O   UNL     1       0.202  -1.126   3.619  0.00  0.00    -0.153 OA
BRANCH   3  12
ATOM      6  C   UNL     1       2.239  -1.733   1.734  0.00  0.00    +0.046 C 
ATOM      7  C   UNL     1       1.144  -1.463   0.735  0.00  0.00    -0.021 A 
ATOM      8  C   UNL     1       1.233  -1.980  -0.543  0.00  0.00    +0.051 A 
ATOM      9  C   UNL     1       0.225  -1.732  -1.463  0.00  0.00    +0.123 A 
ATOM     10  C   UNL     1      -0.871  -0.963  -1.096  0.00  0.00    -0.007 A 
ATOM     11  C   UNL     1      -0.955  -0.448   0.183  0.00  0.00    +0.035 A 
ATOM     12  C   UNL     1       0.049  -0.702   1.099  0.00  0.00    +0.109 A 
ATOM     13  C   UNL     1      -1.968  -0.690  -2.093  0.00  0.00    +0.047 C 
BRANCH   9  14
ATOM     14  O   UNL     1       0.310  -2.239  -2.720  0.00  0.00    -0.495 OA
ATOM     15  C   UNL     1       1.466  -3.021  -3.028  0.00  0.00    +0.277 C 
ENDBRANCH   9  14
ENDBRANCH   3  12
ENDBRANCH   1   3
BRANCH   1  16
ATOM     16  C   UNL     1       1.217   2.246   2.094  0.00  0.00    +0.160 C 
BRANCH  16  17
ATOM     17  C   UNL     1       2.207   3.240   2.704  0.00  0.00    +0.274 C 
ATOM     18  C   UNL     1       2.157   4.535   1.933  0.00  0.00    +0.259 C 
ATOM     19  O   UNL     1       1.424   5.431   2.295  0.00  0.00    -0.271 OA
ATOM     20  N   UNL     1       2.930   4.693   0.838  0.00  0.00    -0.279 N 
ATOM     21  C   UNL     1       3.861   3.698   0.510  0.00  0.00    +0.076 A 
ATOM     22  C   UNL     1       4.506   3.714  -0.717  0.00  0.00    +0.027 A 
ATOM     23  C   UNL     1       5.412   2.717  -1.031  0.00  0.00    +0.002 A 
ATOM     24  C   UNL     1       5.675   1.706  -0.125  0.00  0.00    +0.004 A 
ATOM     25  C   UNL     1       5.039   1.688   1.103  0.00  0.00    +0.047 A 
ATOM     26  C   UNL     1       4.135   2.685   1.427  0.00  0.00    +0.143 A 
ATOM     27  O   UNL     1       3.527   2.696   2.642  0.00  0.00    -0.476 OA
ATOM     28  H   UNL     1       2.843   5.485   0.285  0.00  0.00    +0.155 HD
ENDBRANCH  16  17
ENDBRANCH   1  16
TORSDOF 5
