REMARK  Name = ZINC67271821
REMARK  4 active torsions:
REMARK  status: ('A' for Active; 'I' for Inactive)
REMARK    1  A    between atoms: N_3  and  C_22
REMARK    2  A    between atoms: C_5  and  N_7
REMARK    3  A    between atoms: C_8  and  C_10
REMARK    4  A    between atoms: C_22  and  C_23
REMARK                            x       y       z     vdW  Elec       q    Type
REMARK                         _______ _______ _______ _____ _____    ______ ____
ROOT
ATOM      1  N   UNL     1      -0.666  -0.515  -1.197  0.00  0.00    -0.311 N 
ATOM      2  C   UNL     1      -2.001  -0.700  -1.198  0.00  0.00    +0.216 C 
ATOM      3  O   UNL     1      -2.649  -0.443  -0.205  0.00  0.00    -0.276 OA
ATOM      4  H   UNL     1      -0.148  -0.721  -1.991  0.00  0.00    +0.149 HD
ENDROOT
BRANCH   2   5
ATOM      5  C   UNL     1      -2.689  -1.226  -2.431  0.00  0.00    +0.075 C 
ATOM      6  C   UNL     1      -2.446  -0.267  -3.598  0.00  0.00    +0.015 C 
ATOM      7  C   UNL     1      -3.135  -0.807  -4.854  0.00  0.00    +0.036 C 
ATOM      8  C   UNL     1      -4.631  -0.949  -4.592  0.00  0.00    +0.112 C 
ATOM      9  C   UNL     1      -4.888  -1.886  -3.417  0.00  0.00    +0.036 C 
ATOM     10  C   UNL     1      -4.191  -1.341  -2.167  0.00  0.00    +0.015 C 
ATOM     11  C   UNL     1      -5.338  -1.449  -5.831  0.00  0.00    +0.244 C 
ATOM     12  O   UNL     1      -5.159  -2.502  -6.403  0.00  0.00    -0.273 OA
ATOM     13  N   UNL     1      -6.211  -0.476  -6.165  0.00  0.00    -0.238 N 
ATOM     14  C   UNL     1      -6.149   0.556  -5.314  0.00  0.00    +0.307 C 
ATOM     15  O   UNL     1      -6.839   1.552  -5.408  0.00  0.00    -0.252 OA
ATOM     16  N   UNL     1      -5.236   0.366  -4.343  0.00  0.00    -0.285 N 
ATOM     17  H   UNL     1      -6.809  -0.518  -6.927  0.00  0.00    +0.159 HD
ATOM     18  H   UNL     1      -5.020   0.978  -3.621  0.00  0.00    +0.151 HD
ENDBRANCH   2   5
BRANCH   1  23
ATOM     19  C   UNL     1      -0.019   1.538   0.011  0.00  0.00    +0.039 C 
ATOM     20  C   UNL     1       1.466   1.960  -0.001  0.00  0.00    +0.086 C 
ATOM     21  N   UNL     1       2.191   0.794   0.567  0.00  0.00    -0.293 NA
ATOM     22  C   UNL     1       1.498  -0.385  -0.014  0.00  0.00    +0.107 C 
ATOM     23  C   UNL     1       0.002  -0.004   0.002  0.00  0.00    +0.088 C 
BRANCH  21  24
ATOM     24  C   UNL     1       3.608   0.815   0.180  0.00  0.00    +0.198 C 
BRANCH  24  25
ATOM     25  C   UNL     1       4.316   1.964   0.901  0.00  0.00    +0.402 C 
ATOM     26  F   UNL     1       4.213   1.781   2.284  0.00  0.00    -0.169 F 
ATOM     27  F   UNL     1       5.665   1.984   0.533  0.00  0.00    -0.169 F 
ATOM     28  F   UNL     1       3.717   3.177   0.545  0.00  0.00    -0.169 F 
ENDBRANCH  24  25
ENDBRANCH  21  24
ENDBRANCH   1  23
TORSDOF 4
