REMARK  Name = ZINC45545384
REMARK  10 active torsions:
REMARK  status: ('A' for Active; 'I' for Inactive)
REMARK    1  A    between atoms: C_1  and  C_2
REMARK    2  A    between atoms: C_2  and  C_4
REMARK    3  A    between atoms: C_2  and  N_14
REMARK    4  A    between atoms: C_7  and  O_10
REMARK    5  A    between atoms: O_10  and  C_11
REMARK    6  A    between atoms: N_17  and  C_18
REMARK    7  A    between atoms: C_20  and  C_26
REMARK    8  A    between atoms: C_20  and  C_27
REMARK    9  A    between atoms: C_22  and  C_24
REMARK   10  A    between atoms: C_22  and  C_25
REMARK                            x       y       z     vdW  Elec       q    Type
REMARK                         _______ _______ _______ _____ _____    ______ ____
ROOT
ATOM      1  N   UNL     1       0.763  -0.710   0.924  0.00  0.00    -0.293 N 
ATOM      2  C   UNL     1       2.103  -0.853   0.890  0.00  0.00    +0.300 C 
ATOM      3  O   UNL     1       2.712  -0.629  -0.139  0.00  0.00    -0.253 OA
ATOM      4  N   UNL     1       2.768  -1.243   1.995  0.00  0.00    -0.297 N 
ATOM      5  H   UNL     1       0.277  -0.889   1.745  0.00  0.00    +0.151 HD
ATOM      6  H   UNL     1       2.282  -1.422   2.816  0.00  0.00    +0.151 HD
ENDROOT
BRANCH   4   7
ATOM      7  C   UNL     1       4.227  -1.399   1.958  0.00  0.00    +0.072 C 
ATOM      8  C   UNL     1       4.570  -2.809   1.473  0.00  0.00    +0.009 C 
ATOM      9  C   UNL     1       6.087  -2.990   1.440  0.00  0.00    -0.072 C 
ATOM     10  N   UNL     1       6.705  -2.675   2.720  0.00  0.00    +0.386 N 
ATOM     11  C   UNL     1       6.298  -1.445   3.381  0.00  0.00    -0.072 C 
ATOM     12  C   UNL     1       4.789  -1.227   3.369  0.00  0.00    +0.009 C 
ATOM     13  C   UNL     1       7.007  -0.223   2.791  0.00  0.00    -0.010 C 
ATOM     14  C   UNL     1       6.734  -1.548   4.862  0.00  0.00    -0.010 C 
ATOM     15  C   UNL     1       6.692  -2.181   0.293  0.00  0.00    -0.010 C 
ATOM     16  C   UNL     1       6.364  -4.482   1.144  0.00  0.00    -0.010 C 
ATOM     17  H   UNL     1       6.536  -3.455   3.359  0.00  0.00    -0.084 HD
ATOM     18  H   UNL     1       7.719  -2.650   2.589  0.00  0.00    -0.084 HD
ENDBRANCH   4   7
BRANCH   1  20
ATOM     19  C   UNL     1       0.054   1.242  -0.367  0.00  0.00    +0.033 C 
ATOM     20  C   UNL     1       0.041  -0.285  -0.277  0.00  0.00    +0.102 C 
BRANCH  20  21
ATOM     21  C   UNL     1      -1.384  -0.772  -0.205  0.00  0.00    -0.027 A 
ATOM     22  C   UNL     1      -2.070  -0.724   0.994  0.00  0.00    +0.009 A 
ATOM     23  C   UNL     1      -3.375  -1.170   1.063  0.00  0.00    +0.046 A 
ATOM     24  C   UNL     1      -3.999  -1.666  -0.073  0.00  0.00    +0.127 A 
ATOM     25  C   UNL     1      -3.308  -1.712  -1.275  0.00  0.00    +0.046 A 
ATOM     26  C   UNL     1      -2.005  -1.261  -1.340  0.00  0.00    +0.009 A 
BRANCH  24  27
ATOM     27  O   UNL     1      -5.283  -2.106  -0.007  0.00  0.00    -0.434 OA
BRANCH  27  28
ATOM     28  C   UNL     1      -5.861  -2.603  -1.216  0.00  0.00    +0.541 C 
ATOM     29  F   UNL     1      -5.858  -1.593  -2.184  0.00  0.00    -0.166 F 
ATOM     30  F   UNL     1      -5.113  -3.692  -1.676  0.00  0.00    -0.166 F 
ENDBRANCH  27  28
ENDBRANCH  24  27
ENDBRANCH  20  21
ENDBRANCH   1  20
TORSDOF 5
