REMARK  Name = ZINC39631888
REMARK  14 active torsions:
REMARK  status: ('A' for Active; 'I' for Inactive)
REMARK    1  A    between atoms: C_1  and  C_2
REMARK    2  A    between atoms: C_2  and  N_3
REMARK    3  A    between atoms: C_4  and  C_10
REMARK    4  A    between atoms: C_6  and  C_8
REMARK    5  A    between atoms: C_14  and  C_23
REMARK    6  A    between atoms: N_25  and  C_26
REMARK    7  A    between atoms: C_26  and  C_28
REMARK    8  A    between atoms: C_26  and  C_29
REMARK    9  A    between atoms: C_29  and  C_30
REMARK   10  A    between atoms: C_30  and  C_31
REMARK   11  A    between atoms: C_31  and  C_32
REMARK   12  A    between atoms: C_32  and  C_33
REMARK   13  A    between atoms: C_32  and  C_34
REMARK   14  A    between atoms: C_32  and  O_35
REMARK                            x       y       z     vdW  Elec       q    Type
REMARK                         _______ _______ _______ _____ _____    ______ ____
ROOT
ATOM      1  C   UNL     1      -2.345  -0.365  -3.021  0.00  0.00    +0.266 C 
ATOM      2  O   UNL     1      -3.036  -0.603  -3.994  0.00  0.00    -0.268 OA
ATOM      3  N   UNL     1      -2.921   0.018  -1.864  0.00  0.00    -0.295 N 
ATOM      4  C   UNL     1      -2.264   0.247  -0.555  0.00  0.00    +0.121 C 
ATOM      5  C   UNL     1      -2.971   1.493   0.024  0.00  0.00    +0.100 C 
ATOM      6  C   UNL     1      -4.342   1.525  -0.672  0.00  0.00    -0.004 C 
ATOM      7  C   UNL     1      -4.352   0.312  -1.614  0.00  0.00    +0.115 C 
ATOM      8  C   UNL     1      -5.460   1.405   0.358  0.00  0.00    -0.010 C 
ATOM      9  C   UNL     1      -6.814   1.497  -0.352  0.00  0.00    -0.082 C 
ATOM     10  N   UNL     1      -6.911   2.779  -1.061  0.00  0.00    +0.379 N 
ATOM     11  C   UNL     1      -5.889   2.847  -2.113  0.00  0.00    -0.082 C 
ATOM     12  C   UNL     1      -4.496   2.812  -1.477  0.00  0.00    -0.010 C 
ATOM     13  H   UNL     1      -7.826   2.863  -1.477  0.00  0.00    -0.086 HD
ATOM     14  H   UNL     1      -6.770   3.534  -0.408  0.00  0.00    -0.086 HD
ENDROOT
BRANCH   1  16
ATOM     15  N   UNL     1      -0.134  -1.581  -2.745  0.00  0.00    -0.258 N 
ATOM     16  C   UNL     1      -0.883  -0.497  -3.107  0.00  0.00    +0.138 A 
ATOM     17  C   UNL     1       0.011   0.454  -3.572  0.00  0.00    +0.071 A 
ATOM     18  C   UNL     1       1.272  -0.138  -3.456  0.00  0.00    +0.075 A 
ATOM     19  N   UNL     1       1.109  -1.336  -2.956  0.00  0.00    -0.175 NA
ATOM     20  C   UNL     1       2.587   0.495  -3.833  0.00  0.00    +0.069 C 
ATOM     21 BR   UNL     1      -0.389   2.183  -4.224  0.00  0.00    -0.046 Br
BRANCH  15  23
ATOM     22  C   UNL     1      -0.589  -2.789  -0.668  0.00  0.00    +0.029 C 
ATOM     23  C   UNL     1      -0.667  -2.830  -2.195  0.00  0.00    +0.141 C 
ENDBRANCH  15  23
ENDBRANCH   1  16
BRANCH   5  24
ATOM     24  C   UNL     1      -2.187   2.739  -0.299  0.00  0.00    +0.218 C 
ATOM     25  O   UNL     1      -1.519   2.790  -1.310  0.00  0.00    -0.275 OA
ATOM     26  N   UNL     1      -2.228   3.797   0.535  0.00  0.00    -0.312 N 
ATOM     27  H   UNL     1      -2.703   3.730   1.379  0.00  0.00    +0.149 HD
BRANCH  26  28
ATOM     28  C   UNL     1      -1.557   5.046   0.168  0.00  0.00    +0.070 C 
ATOM     29  C   UNL     1      -0.098   4.994   0.626  0.00  0.00    +0.028 C 
BRANCH  28  30
ATOM     30  C   UNL     1      -2.263   6.222   0.846  0.00  0.00    +0.022 C 
BRANCH  30  31
ATOM     31  C   UNL     1      -3.684   6.350   0.296  0.00  0.00    +0.005 C 
BRANCH  31  32
ATOM     32  C   UNL     1      -4.390   7.526   0.974  0.00  0.00    +0.034 C 
BRANCH  32  33
ATOM     33  C   UNL     1      -5.812   7.654   0.423  0.00  0.00    +0.061 C 
ATOM     34  C   UNL     1      -6.475   8.903   1.008  0.00  0.00    +0.041 C 
ATOM     35  C   UNL     1      -5.760   7.770  -1.102  0.00  0.00    +0.041 C 
BRANCH  33  36
ATOM     36  O   UNL     1      -6.569   6.498   0.787  0.00  0.00    -0.389 OA
ATOM     37  H   UNL     1      -7.483   6.511   0.470  0.00  0.00    +0.210 HD
ENDBRANCH  33  36
ENDBRANCH  32  33
ENDBRANCH  31  32
ENDBRANCH  30  31
ENDBRANCH  28  30
ENDBRANCH  26  28
ENDBRANCH   5  24
TORSDOF 9
