REMARK  Name = ZINC43418890
REMARK  12 active torsions:
REMARK  status: ('A' for Active; 'I' for Inactive)
REMARK    1  A    between atoms: C_1  and  C_2
REMARK    2  A    between atoms: C_2  and  C_3
REMARK    3  A    between atoms: C_2  and  C_4
REMARK    4  A    between atoms: C_4  and  N_5
REMARK    5  A    between atoms: N_5  and  C_6
REMARK    6  A    between atoms: N_5  and  C_12
REMARK    7  A    between atoms: C_6  and  C_7
REMARK    8  A    between atoms: C_7  and  C_8
REMARK    9  A    between atoms: N_9  and  O_10
REMARK   10  A    between atoms: C_12  and  C_13
REMARK   11  A    between atoms: C_16  and  O_20
REMARK   12  A    between atoms: O_20  and  C_21
REMARK                            x       y       z     vdW  Elec       q    Type
REMARK                         _______ _______ _______ _____ _____    ______ ____
ROOT
ATOM      1  N   UNL     1       2.094   0.015  -1.262  0.00  0.00    +0.383 N 
ATOM      2  H   UNL     1       2.026   0.999  -1.049  0.00  0.00    -0.081 HD
ENDROOT
BRANCH   1   3
ATOM      3  C   UNL     1       0.746  -0.566  -1.320  0.00  0.00    -0.075 C 
BRANCH   3   5
ATOM      4  C   UNL     1      -0.222   1.252   0.093  0.00  0.00    +0.005 C 
ATOM      5  C   UNL     1       0.000  -0.257  -0.021  0.00  0.00    -0.034 C 
ATOM      6  C   UNL     1      -1.352  -0.972  -0.026  0.00  0.00    +0.005 C 
ENDBRANCH   3   5
ENDBRANCH   1   3
BRANCH   1   7
ATOM      7  C   UNL     1       2.874  -0.660  -0.217  0.00  0.00    -0.071 C 
BRANCH   7   8
ATOM      8  C   UNL     1       4.227   0.037  -0.060  0.00  0.00    +0.056 C 
BRANCH   8   9
ATOM      9  C   UNL     1       4.974  -0.573   1.098  0.00  0.00    +0.130 C 
ATOM     10  N   UNL     1       4.441  -1.535   1.776  0.00  0.00    -0.077 NA
ATOM     11  N   UNL     1       6.225  -0.104   1.433  0.00  0.00    -0.344 N 
ATOM     12  H   UNL     1       6.625   0.618   0.924  0.00  0.00    +0.143 HD
ATOM     13  H   UNL     1       6.706  -0.496   2.179  0.00  0.00    +0.143 HD
BRANCH  10  14
ATOM     14  O   UNL     1       5.144  -2.107   2.865  0.00  0.00    -0.408 OA
ATOM     15  H   UNL     1       4.665  -2.820   3.310  0.00  0.00    +0.328 HD
ENDBRANCH  10  14
ENDBRANCH   8   9
ENDBRANCH   7   8
ENDBRANCH   1   7
BRANCH   1  16
ATOM     16  C   UNL     1       2.759  -0.159  -2.560  0.00  0.00    -0.043 C 
BRANCH  16  17
ATOM     17  C   UNL     1       2.026   0.635  -3.611  0.00  0.00    -0.063 A 
ATOM     18  C   UNL     1       0.990   0.054  -4.318  0.00  0.00    +0.005 A 
ATOM     19  C   UNL     1       0.317   0.779  -5.282  0.00  0.00    +0.047 A 
ATOM     20  C   UNL     1       0.682   2.092  -5.541  0.00  0.00    +0.134 A 
ATOM     21  C   UNL     1       1.722   2.674  -4.830  0.00  0.00    +0.060 A 
ATOM     22  C   UNL     1       2.389   1.945  -3.862  0.00  0.00    +0.020 A 
ATOM     23 BR   UNL     1       2.223   4.464  -5.179  0.00  0.00    -0.047 Br
BRANCH  20  24
ATOM     24  O   UNL     1       0.022   2.808  -6.489  0.00  0.00    -0.494 OA
ATOM     25  C   UNL     1      -1.038   2.145  -7.182  0.00  0.00    +0.277 C 
ENDBRANCH  20  24
ENDBRANCH  16  17
ENDBRANCH   1  16
TORSDOF 9
