REMARK  Name = ZINC64230984
REMARK  8 active torsions:
REMARK  status: ('A' for Active; 'I' for Inactive)
REMARK    1  A    between atoms: C_1  and  C_2
REMARK    2  A    between atoms: C_2  and  C_4
REMARK    3  A    between atoms: C_2  and  O_11
REMARK    4  A    between atoms: O_11  and  C_12
REMARK    5  A    between atoms: C_12  and  C_14
REMARK    6  A    between atoms: C_17  and  N_20
REMARK    7  A    between atoms: N_20  and  S_21
REMARK    8  A    between atoms: S_21  and  C_24
REMARK                            x       y       z     vdW  Elec       q    Type
REMARK                         _______ _______ _______ _____ _____    ______ ____
ROOT
ATOM      1  C   UNL     1       0.194  -1.388  -3.840  0.00  0.00    +0.059 A 
ATOM      2  C   UNL     1       1.587  -1.494  -3.908  0.00  0.00    +0.017 A 
ATOM      3  C   UNL     1       2.188  -1.863  -5.084  0.00  0.00    +0.025 A 
ATOM      4  C   UNL     1       1.414  -2.130  -6.210  0.00  0.00    +0.048 A 
ATOM      5  C   UNL     1       0.027  -2.025  -6.145  0.00  0.00    +0.025 A 
ATOM      6  C   UNL     1      -0.581  -1.663  -4.971  0.00  0.00    +0.017 A 
ENDROOT
BRANCH   1   7
ATOM      7  C   UNL     1      -0.455  -0.993  -2.577  0.00  0.00    +0.340 C 
ATOM      8  O   UNL     1      -1.666  -0.906  -2.518  0.00  0.00    -0.245 OA
BRANCH   7   9
ATOM      9  O   UNL     1       0.294  -0.728  -1.488  0.00  0.00    -0.449 OA
BRANCH   9  11
ATOM     10  C   UNL     1      -0.570   1.169  -0.266  0.00  0.00    +0.062 C 
ATOM     11  C   UNL     1      -0.402  -0.351  -0.298  0.00  0.00    +0.259 C 
BRANCH  11  12
ATOM     12  C   UNL     1       0.386  -0.795   0.907  0.00  0.00    +0.256 C 
ATOM     13  O   UNL     1       1.518  -1.209   0.772  0.00  0.00    -0.272 OA
ATOM     14  N   UNL     1      -0.167  -0.732   2.134  0.00  0.00    -0.298 N 
ATOM     15  C   UNL     1      -1.558  -0.359   2.429  0.00  0.00    +0.108 C 
ATOM     16  C   UNL     1      -1.729  -0.401   3.962  0.00  0.00    +0.020 C 
ATOM     17  C   UNL     1      -0.274  -0.245   4.478  0.00  0.00    +0.020 C 
ATOM     18  C   UNL     1       0.521  -1.032   3.403  0.00  0.00    +0.108 C 
ENDBRANCH  11  12
ENDBRANCH   9  11
ENDBRANCH   7   9
ENDBRANCH   1   7
BRANCH   4  19
ATOM     19  N   UNL     1       2.026  -2.503  -7.401  0.00  0.00    -0.216 N 
ATOM     20  H   UNL     1       2.797  -2.011  -7.724  0.00  0.00    +0.174 HD
BRANCH  19  21
ATOM     21  S   UNL     1       1.440  -3.786  -8.268  0.00  0.00    +0.072 S 
ATOM     22  O   UNL     1       0.051  -3.547  -8.457  0.00  0.00    -0.150 OA
ATOM     23  O   UNL     1       2.333  -3.984  -9.354  0.00  0.00    -0.150 OA
BRANCH  21  24
ATOM     24  C   UNL     1       1.571  -5.212  -7.241  0.00  0.00    +0.110 A 
ATOM     25  C   UNL     1       2.833  -5.940  -7.200  0.00  0.00    +0.031 A 
ATOM     26  C   UNL     1       3.000  -7.040  -6.434  0.00  0.00    +0.027 A 
ATOM     27  C   UNL     1       1.890  -7.525  -5.617  0.00  0.00    +0.056 A 
ATOM     28  N   UNL     1       1.720  -8.527  -4.791  0.00  0.00    -0.268 N 
ATOM     29  C   UNL     1       0.434  -8.477  -4.308  0.00  0.00    +0.308 C 
ATOM     30  O   UNL     1      -0.045  -9.264  -3.519  0.00  0.00    -0.252 OA
ATOM     31  N   UNL     1      -0.228  -7.403  -4.854  0.00  0.00    -0.267 N 
ATOM     32  C   UNL     1       0.593  -6.778  -5.660  0.00  0.00    +0.058 A 
ATOM     33  C   UNL     1       0.500  -5.594  -6.512  0.00  0.00    +0.054 A 
ATOM     34  H   UNL     1      -1.147  -7.151  -4.673  0.00  0.00    +0.156 HD
ATOM     35  H   UNL     1       2.389  -9.190  -4.559  0.00  0.00    +0.156 HD
ENDBRANCH  21  24
ENDBRANCH  19  21
ENDBRANCH   4  19
TORSDOF 7
