REMARK  Name = ZINC09087928
REMARK  9 active torsions:
REMARK  status: ('A' for Active; 'I' for Inactive)
REMARK    1  A    between atoms: C_1  and  C_2
REMARK    2  A    between atoms: C_2  and  C_3
REMARK    3  A    between atoms: C_3  and  C_4
REMARK    4  A    between atoms: C_11  and  N_32
REMARK    5  A    between atoms: C_12  and  C_30
REMARK    6  A    between atoms: C_13  and  C_15
REMARK    7  A    between atoms: C_20  and  O_21
REMARK    8  A    between atoms: O_21  and  C_22
REMARK    9  A    between atoms: C_22  and  C_23
REMARK                            x       y       z     vdW  Elec       q    Type
REMARK                         _______ _______ _______ _____ _____    ______ ____
ROOT
ATOM      1  C   UNL     1       1.088  -2.143   1.157  0.00  0.00    +0.044 A 
ATOM      2  C   UNL     1       2.025  -2.776   0.435  0.00  0.00    +0.049 A 
ATOM      3  C   UNL     1       1.804  -4.166   0.550  0.00  0.00    +0.245 A 
ATOM      4  N   UNL     1       0.769  -4.346   1.318  0.00  0.00    -0.135 NA
ATOM      5  N   UNL     1       0.298  -3.087   1.720  0.00  0.00    -0.278 N 
ATOM      6  H   UNL     1      -0.462  -2.921   2.300  0.00  0.00    +0.189 HD
ATOM      7  O   UNL     1       2.596  -5.076  -0.077  0.00  0.00    -0.421 OA
ATOM      8  C   UNL     1       3.433  -4.619  -1.029  0.00  0.00    +0.201 C 
ATOM      9  C   UNL     1       3.730  -3.318  -1.227  0.00  0.00    +0.098 C 
ATOM     10  C   UNL     1       3.153  -2.206  -0.387  0.00  0.00    +0.105 C 
ENDROOT
BRANCH  10  11
ATOM     11  C   UNL     1       4.218  -1.654   0.525  0.00  0.00    +0.008 A 
ATOM     12  C   UNL     1       4.763  -2.450   1.514  0.00  0.00    +0.028 A 
ATOM     13  C   UNL     1       5.741  -1.944   2.351  0.00  0.00    +0.041 A 
ATOM     14  C   UNL     1       6.175  -0.638   2.200  0.00  0.00    +0.023 A 
ATOM     15  C   UNL     1       5.633   0.161   1.213  0.00  0.00    +0.047 A 
ATOM     16  C   UNL     1       4.656  -0.347   0.369  0.00  0.00    +0.125 A 
ATOM     17 CL   UNL     1       6.423  -2.946   3.593  0.00  0.00    -0.084 Cl
BRANCH  16  18
ATOM     18  O   UNL     1       4.125   0.436  -0.607  0.00  0.00    -0.487 OA
BRANCH  18  19
ATOM     19  C   UNL     1       4.703   1.731  -0.786  0.00  0.00    +0.264 C 
BRANCH  19  20
ATOM     20  C   UNL     1       3.968   2.463  -1.879  0.00  0.00    -0.010 A 
ATOM     21  C   UNL     1       4.308   2.251  -3.202  0.00  0.00    +0.007 A 
ATOM     22  C   UNL     1       3.633   2.922  -4.205  0.00  0.00    +0.000 A 
ATOM     23  C   UNL     1       2.619   3.805  -3.885  0.00  0.00    +0.000 A 
ATOM     24  C   UNL     1       2.279   4.016  -2.562  0.00  0.00    +0.000 A 
ATOM     25  C   UNL     1       2.950   3.342  -1.559  0.00  0.00    +0.007 A 
ENDBRANCH  19  20
ENDBRANCH  18  19
ENDBRANCH  16  18
ENDBRANCH  10  11
BRANCH   8  26
ATOM     26  N   UNL     1       4.025  -5.542  -1.856  0.00  0.00    -0.328 N 
ATOM     27  H   UNL     1       3.835  -6.486  -1.743  0.00  0.00    +0.145 HD
ATOM     28  H   UNL     1       4.633  -5.249  -2.553  0.00  0.00    +0.145 HD
ENDBRANCH   8  26
BRANCH   9  29
ATOM     29  C   UNL     1       4.635  -2.977  -2.283  0.00  0.00    +0.101 C 
ATOM     30  N   UNL     1       5.353  -2.706  -3.120  0.00  0.00    -0.191 NA
ENDBRANCH   9  29
BRANCH   1  31
ATOM     31  C   UNL     1       0.944  -0.652   1.316  0.00  0.00    +0.055 C 
BRANCH  31  33
ATOM     32  C   UNL     1       0.043   1.431   0.271  0.00  0.00    +0.004 C 
ATOM     33  C   UNL     1       0.116  -0.093   0.157  0.00  0.00    +0.003 C 
ENDBRANCH  31  33
ENDBRANCH   1  31
TORSDOF 8
