REMARK  Name = ZINC63985102
REMARK  6 active torsions:
REMARK  status: ('A' for Active; 'I' for Inactive)
REMARK    1  A    between atoms: C_1  and  O_2
REMARK    2  A    between atoms: O_2  and  C_3
REMARK    3  A    between atoms: C_8  and  N_9
REMARK    4  A    between atoms: C_10  and  O_34
REMARK    5  A    between atoms: C_13  and  O_33
REMARK    6  A    between atoms: C_14  and  C_18
REMARK                            x       y       z     vdW  Elec       q    Type
REMARK                         _______ _______ _______ _____ _____    ______ ____
ROOT
ATOM      1  N   UNL     1      -0.124  -2.847  -0.116  0.00  0.00    -0.222 N 
ATOM      2  C   UNL     1      -1.517  -3.268  -0.095  0.00  0.00    +0.339 C 
ATOM      3  N   UNL     1      -1.967  -3.607   1.245  0.00  0.00    -0.204 NA
ATOM      4  C   UNL     1      -1.186  -3.906   2.209  0.00  0.00    +0.200 C 
ATOM      5  C   UNL     1       0.308  -3.938   2.069  0.00  0.00    +0.179 C 
ATOM      6  C   UNL     1       0.738  -3.155   0.862  0.00  0.00    +0.237 C 
ATOM      7  O   UNL     1       1.891  -2.790   0.772  0.00  0.00    -0.274 OA
ENDROOT
BRANCH   5   8
ATOM      8  C   UNL     1       0.770  -5.388   1.913  0.00  0.00    +0.101 C 
ATOM      9  C   UNL     1       2.300  -5.442   1.885  0.00  0.00    +0.124 C 
ATOM     10  C   UNL     1       2.670  -6.884   1.558  0.00  0.00    -0.036 C 
ATOM     11  C   UNL     1       3.495  -7.286   2.513  0.00  0.00    -0.001 A 
ATOM     12  C   UNL     1       4.249  -8.537   2.698  0.00  0.00    +0.010 A 
ATOM     13  C   UNL     1       5.005  -8.620   3.824  0.00  0.00    +0.001 A 
ATOM     14  C   UNL     1       5.087  -7.597   4.774  0.00  0.00    +0.002 A 
ATOM     15  C   UNL     1       4.434  -6.412   4.682  0.00  0.00    +0.026 A 
ATOM     16  C   UNL     1       3.611  -6.203   3.538  0.00  0.00    +0.043 A 
ATOM     17  N   UNL     1       2.896  -5.151   3.188  0.00  0.00    -0.376 N 
ATOM     18  C   UNL     1       2.052  -7.614   0.390  0.00  0.00    +0.048 C 
ATOM     19  C   UNL     1       0.535  -7.368   0.483  0.00  0.00    +0.085 C 
ATOM     20  N   UNL     1       0.264  -5.936   0.644  0.00  0.00    -0.310 NA
ATOM     21  H   UNL     1      -0.719  -5.739   0.531  0.00  0.00    +0.122 HD
ATOM     22  H   UNL     1       2.779  -4.332   3.696  0.00  0.00    +0.160 HD
ENDBRANCH   5   8
BRANCH   1  28
ATOM     23  C   UNL     1       0.270  -0.703  -1.168  0.00  0.00    +0.142 A 
ATOM     24  C   UNL     1       0.730   0.037  -2.245  0.00  0.00    +0.047 A 
ATOM     25  C   UNL     1       1.247  -0.605  -3.355  0.00  0.00    +0.004 A 
ATOM     26  C   UNL     1       1.306  -1.986  -3.394  0.00  0.00    +0.002 A 
ATOM     27  C   UNL     1       0.850  -2.731  -2.324  0.00  0.00    +0.027 A 
ATOM     28  C   UNL     1       0.335  -2.094  -1.205  0.00  0.00    +0.082 A 
BRANCH  23  30
ATOM     29  C   UNL     1      -0.273   1.356  -0.109  0.00  0.00    +0.277 C 
ATOM     30  O   UNL     1      -0.238  -0.072  -0.076  0.00  0.00    -0.493 OA
ENDBRANCH  23  30
ENDBRANCH   1  28
BRANCH   4  31
ATOM     31  O   UNL     1      -1.728  -4.206   3.408  0.00  0.00    -0.495 OA
ATOM     32  H   UNL     1      -2.694  -4.165   3.425  0.00  0.00    +0.293 HD
ENDBRANCH   4  31
BRANCH   2  33
ATOM     33  O   UNL     1      -2.330  -2.208  -0.601  0.00  0.00    -0.356 OA
ATOM     34  H   UNL     1      -3.275  -2.412  -0.620  0.00  0.00    +0.214 HD
ENDBRANCH   2  33
TORSDOF 5
