REMARK  Name = ZINC13436045
REMARK  10 active torsions:
REMARK  status: ('A' for Active; 'I' for Inactive)
REMARK    1  A    between atoms: C_3  and  C_7
REMARK    2  A    between atoms: C_7  and  C_9
REMARK    3  A    between atoms: C_7  and  N_12
REMARK    4  A    between atoms: C_9  and  C_10
REMARK    5  A    between atoms: C_13  and  C_15
REMARK    6  A    between atoms: C_15  and  N_16
REMARK    7  A    between atoms: C_17  and  C_19
REMARK    8  A    between atoms: C_19  and  C_20
REMARK    9  A    between atoms: C_20  and  C_21
REMARK   10  A    between atoms: C_21  and  C_22
REMARK                            x       y       z     vdW  Elec       q    Type
REMARK                         _______ _______ _______ _____ _____    ______ ____
ROOT
ATOM      1  N   UNL     1      -5.558  -0.894   2.617  0.00  0.00    -0.307 N 
ATOM      2  C   UNL     1      -4.398  -0.246   2.392  0.00  0.00    +0.213 C 
ATOM      3  O   UNL     1      -4.072   0.679   3.106  0.00  0.00    -0.276 OA
ATOM      4  H   UNL     1      -5.819  -1.633   2.046  0.00  0.00    +0.149 HD
ENDROOT
BRANCH   1   5
ATOM      5  C   UNL     1      -6.426  -0.481   3.723  0.00  0.00    +0.200 C 
BRANCH   5   7
ATOM      6  N   UNL     1      -8.595  -1.164   4.696  0.00  0.00    -0.307 N 
ATOM      7  C   UNL     1      -7.649  -1.360   3.756  0.00  0.00    +0.231 C 
ATOM      8  O   UNL     1      -7.784  -2.244   2.936  0.00  0.00    -0.274 OA
ATOM      9  H   UNL     1      -8.455  -0.505   5.394  0.00  0.00    +0.149 HD
BRANCH   6  10
ATOM     10  C   UNL     1      -9.834  -1.945   4.664  0.00  0.00    +0.115 C 
BRANCH  10  13
ATOM     11  C   UNL     1     -12.419  -1.535   1.947  0.00  0.00    +0.020 A 
ATOM     12  C   UNL     1     -11.550  -2.142   2.841  0.00  0.00    +0.008 A 
ATOM     13  C   UNL     1     -10.787  -1.334   3.671  0.00  0.00    -0.009 A 
ATOM     14  C   UNL     1     -10.909   0.039   3.571  0.00  0.00    +0.116 A 
ATOM     15  N   UNL     1     -11.742   0.581   2.704  0.00  0.00    -0.263 NA
ATOM     16  C   UNL     1     -12.487  -0.156   1.904  0.00  0.00    +0.111 A 
ENDBRANCH  10  13
BRANCH  10  17
ATOM     17  C   UNL     1     -10.474  -1.944   6.054  0.00  0.00    +0.152 C 
BRANCH  17  18
ATOM     18  C   UNL     1      -9.580  -2.677   7.020  0.00  0.00    +0.358 C 
ATOM     19  O   UNL     1      -8.588  -3.238   6.618  0.00  0.00    -0.246 OA
ATOM     20  O   UNL     1      -9.885  -2.707   8.326  0.00  0.00    -0.246 OA
ENDBRANCH  17  18
ENDBRANCH  10  17
ENDBRANCH   6  10
ENDBRANCH   5   7
ENDBRANCH   1   5
BRANCH   2  21
ATOM     21  C   UNL     1      -3.506  -0.670   1.254  0.00  0.00    +0.096 C 
BRANCH  21  22
ATOM     22  C   UNL     1      -2.263   0.222   1.221  0.00  0.00    +0.015 C 
BRANCH  22  23
ATOM     23  C   UNL     1      -1.357  -0.209   0.066  0.00  0.00    +0.053 C 
BRANCH  23  24
ATOM     24  C   UNL     1      -0.133   0.670   0.033  0.00  0.00    +0.017 A 
ATOM     25  C   UNL     1       1.121   0.094   0.071  0.00  0.00    +0.021 A 
ATOM     26  C   UNL     1       2.243   0.910   0.042  0.00  0.00    +0.008 A 
ATOM     27  C   UNL     1       2.064   2.283  -0.025  0.00  0.00    -0.009 A 
ATOM     28  C   UNL     1       0.774   2.794  -0.063  0.00  0.00    +0.100 A 
ATOM     29  N   UNL     1       0.558   4.168  -0.140  0.00  0.00    -0.330 N 
ATOM     30  C   UNL     1       1.675   5.082   0.132  0.00  0.00    +0.103 C 
ATOM     31  C   UNL     1       2.908   4.552  -0.612  0.00  0.00    +0.023 C 
ATOM     32  C   UNL     1       3.273   3.179  -0.047  0.00  0.00    +0.040 C 
ATOM     33  H   UNL     1      -0.318   4.517  -0.369  0.00  0.00    +0.147 HD
ATOM     34  N   UNL     1      -0.347   2.011  -0.034  0.00  0.00    -0.347 N 
ATOM     35  H   UNL     1      -1.292   2.411  -0.061  0.00  0.00    +0.167 HD
ENDBRANCH  23  24
ENDBRANCH  22  23
ENDBRANCH  21  22
ENDBRANCH   2  21
TORSDOF 10
