REMARK  Name = ZINC65238134
REMARK  4 active torsions:
REMARK  status: ('A' for Active; 'I' for Inactive)
REMARK    1  A    between atoms: C_1  and  C_2
REMARK    2  A    between atoms: C_16  and  C_17
REMARK    3  A    between atoms: C_22  and  C_25
REMARK    4  A    between atoms: C_25  and  C_26
REMARK                            x       y       z     vdW  Elec       q    Type
REMARK                         _______ _______ _______ _____ _____    ______ ____
ROOT
ATOM      1  C   UNL     1       0.776   1.482  -0.058  0.00  0.00    +0.044 C 
ATOM      2  C   UNL     1       0.599  -0.015  -0.043  0.00  0.00    -0.049 A 
ATOM      3  C   UNL     1       0.319  -0.684  -1.220  0.00  0.00    +0.005 A 
ATOM      4  C   UNL     1       0.163  -2.061  -1.217  0.00  0.00    +0.027 A 
ATOM      5  C   UNL     1       0.286  -2.758  -0.035  0.00  0.00    +0.071 A 
ATOM      6  C   UNL     1       0.556  -2.082   1.166  0.00  0.00    +0.057 A 
ATOM      7  C   UNL     1       0.725  -0.709   1.147  0.00  0.00    +0.028 A 
ATOM      8  N   UNL     1       0.628  -2.810   2.359  0.00  0.00    -0.282 N 
ATOM      9  C   UNL     1       0.790  -4.149   2.377  0.00  0.00    +0.246 C 
ATOM     10  O   UNL     1       0.843  -4.736   3.438  0.00  0.00    -0.273 OA
ATOM     11  C   UNL     1       0.902  -4.919   1.087  0.00  0.00    +0.236 C 
ATOM     12  N   UNL     1       0.171  -4.140   0.057  0.00  0.00    -0.218 N 
ATOM     13  N   UNL     1      -0.609  -5.065  -0.623  0.00  0.00    -0.184 N 
ATOM     14  N   UNL     1      -0.692  -6.236   0.142  0.00  0.00    -0.166 NA
ATOM     15  C   UNL     1       0.154  -6.228   1.155  0.00  0.00    +0.153 C 
ATOM     16  H   UNL     1       0.561  -2.335   3.202  0.00  0.00    +0.155 HD
ATOM     17  H   UNL     1      -1.028  -4.924  -1.486  0.00  0.00    +0.193 HD
ENDROOT
BRANCH  15  18
ATOM     18  C   UNL     1       0.335  -7.273   2.163  0.00  0.00    +0.265 C 
ATOM     19  O   UNL     1       1.071  -7.082   3.113  0.00  0.00    -0.269 OA
ATOM     20  N   UNL     1      -0.313  -8.448   2.039  0.00  0.00    -0.296 N 
ATOM     21  C   UNL     1      -1.082  -8.754   0.825  0.00  0.00    +0.108 C 
ATOM     22  C   UNL     1      -0.603 -10.097   0.263  0.00  0.00    +0.023 C 
ATOM     23  C   UNL     1      -0.700 -11.165   1.355  0.00  0.00    -0.004 C 
ATOM     24  C   UNL     1       0.205 -10.782   2.528  0.00  0.00    +0.023 C 
ATOM     25  C   UNL     1      -0.260  -9.450   3.113  0.00  0.00    +0.108 C 
BRANCH  23  26
ATOM     26  C   UNL     1      -0.255 -12.515   0.788  0.00  0.00    +0.038 C 
BRANCH  26  27
ATOM     27  C   UNL     1      -0.466 -13.589   1.824  0.00  0.00    -0.047 A 
ATOM     28  C   UNL     1       0.540 -13.890   2.723  0.00  0.00    +0.003 A 
ATOM     29  C   UNL     1       0.346 -14.875   3.673  0.00  0.00    +0.000 A 
ATOM     30  C   UNL     1      -0.854 -15.559   3.724  0.00  0.00    +0.000 A 
ATOM     31  C   UNL     1      -1.861 -15.258   2.826  0.00  0.00    +0.000 A 
ATOM     32  C   UNL     1      -1.668 -14.269   1.879  0.00  0.00    +0.003 A 
ENDBRANCH  26  27
ENDBRANCH  23  26
ENDBRANCH  15  18
TORSDOF 3
