REMARK  Name = ZINC67225190
REMARK  3 active torsions:
REMARK  status: ('A' for Active; 'I' for Inactive)
REMARK    1  A    between atoms: C_1  and  C_2
REMARK    2  A    between atoms: C_19  and  C_30
REMARK    3  A    between atoms: C_21  and  C_23
REMARK                            x       y       z     vdW  Elec       q    Type
REMARK                         _______ _______ _______ _____ _____    ______ ____
ROOT
ATOM      1  C   UNL     1       1.105  -1.736  -2.746  0.00  0.00    +0.007 C 
ATOM      2  C   UNL     1       0.545  -1.581  -1.331  0.00  0.00    -0.011 C 
ATOM      3  C   UNL     1       1.393  -2.400  -0.355  0.00  0.00    +0.022 C 
ATOM      4  C   UNL     1       0.851  -2.215   1.066  0.00  0.00    +0.108 C 
ATOM      5  N   UNL     1      -0.578  -2.556   1.075  0.00  0.00    -0.301 N 
ATOM      6  C   UNL     1      -1.469  -1.892   0.114  0.00  0.00    +0.108 C 
ATOM      7  C   UNL     1      -0.901  -2.081  -1.296  0.00  0.00    +0.022 C 
ATOM      8  C   UNL     1      -1.070  -3.475   1.962  0.00  0.00    +0.200 A 
ATOM      9  N   UNL     1      -0.246  -3.984   2.919  0.00  0.00    -0.295 N 
ATOM     10  H   UNL     1       0.681  -3.704   2.958  0.00  0.00    +0.172 HD
ATOM     11  C   UNL     1      -0.720  -4.878   3.813  0.00  0.00    +0.258 A 
ATOM     12  O   UNL     1       0.004  -5.329   4.686  0.00  0.00    -0.267 OA
ATOM     13  C   UNL     1      -2.057  -5.276   3.719  0.00  0.00    +0.066 A 
ATOM     14  C   UNL     1      -2.849  -4.746   2.716  0.00  0.00    +0.138 A 
ATOM     15  N   UNL     1      -2.331  -3.844   1.874  0.00  0.00    -0.200 NA
ATOM     16  N   UNL     1      -4.163  -5.156   2.575  0.00  0.00    -0.269 N 
ATOM     17  C   UNL     1      -4.621  -6.243   3.219  0.00  0.00    +0.236 C 
ATOM     18  O   UNL     1      -5.800  -6.520   3.164  0.00  0.00    -0.274 OA
ATOM     19  C   UNL     1      -3.687  -7.122   4.008  0.00  0.00    +0.189 C 
ATOM     20  C   UNL     1      -2.631  -6.260   4.703  0.00  0.00    +0.083 C 
ATOM     21  H   UNL     1      -4.762  -4.652   2.002  0.00  0.00    +0.156 HD
ENDROOT
BRANCH  20  22
ATOM     22  C   UNL     1      -3.266  -5.513   5.848  0.00  0.00    -0.038 A 
ATOM     23  C   UNL     1      -4.310  -4.640   5.608  0.00  0.00    +0.007 A 
ATOM     24  C   UNL     1      -4.894  -3.955   6.657  0.00  0.00    +0.038 A 
ATOM     25  C   UNL     1      -4.432  -4.144   7.948  0.00  0.00    +0.123 A 
ATOM     26  C   UNL     1      -3.386  -5.019   8.187  0.00  0.00    +0.038 A 
ATOM     27  C   UNL     1      -2.807  -5.707   7.137  0.00  0.00    +0.007 A 
ATOM     28  F   UNL     1      -5.001  -3.474   8.975  0.00  0.00    -0.205 F 
ENDBRANCH  20  22
BRANCH  19  29
ATOM     29  C   UNL     1      -4.453  -7.867   5.020  0.00  0.00    +0.076 C 
ATOM     30  N   UNL     1      -5.045  -8.442   5.801  0.00  0.00    -0.196 NA
ENDBRANCH  19  29
TORSDOF 2
