REMARK  Name = ZINC64202088
REMARK  9 active torsions:
REMARK  status: ('A' for Active; 'I' for Inactive)
REMARK    1  A    between atoms: C_1  and  O_2
REMARK    2  A    between atoms: O_2  and  C_3
REMARK    3  A    between atoms: C_7  and  C_11
REMARK    4  A    between atoms: C_8  and  O_9
REMARK    5  A    between atoms: O_9  and  C_10
REMARK    6  A    between atoms: C_11  and  C_13
REMARK    7  A    between atoms: C_11  and  C_27
REMARK    8  A    between atoms: C_13  and  N_14
REMARK    9  A    between atoms: C_15  and  C_17
REMARK                            x       y       z     vdW  Elec       q    Type
REMARK                         _______ _______ _______ _____ _____    ______ ____
ROOT
ATOM      1  C   UNL     1      -2.549  -4.175   0.017  0.00  0.00    +0.068 C 
ENDROOT
BRANCH   1   2
ATOM      2  C   UNL     1      -3.289  -4.646  -1.209  0.00  0.00    -0.033 C 
ATOM      3  C   UNL     1      -2.814  -5.451  -2.186  0.00  0.00    -0.000 A 
ATOM      4  C   UNL     1      -1.516  -6.104  -2.393  0.00  0.00    +0.010 A 
ATOM      5  C   UNL     1      -1.335  -6.869  -3.494  0.00  0.00    +0.001 A 
ATOM      6  C   UNL     1      -2.352  -7.052  -4.441  0.00  0.00    +0.002 A 
ATOM      7  C   UNL     1      -3.571  -6.484  -4.319  0.00  0.00    +0.026 A 
ATOM      8  C   UNL     1      -3.873  -5.661  -3.200  0.00  0.00    +0.043 A 
ATOM      9  N   UNL     1      -4.960  -5.010  -2.862  0.00  0.00    -0.380 N 
ATOM     10  C   UNL     1      -4.715  -4.318  -1.592  0.00  0.00    +0.145 C 
ATOM     11  H   UNL     1      -5.788  -4.992  -3.366  0.00  0.00    +0.160 HD
ENDBRANCH   1   2
BRANCH   1  16
ATOM     12  C   UNL     1      -1.201  -0.638   0.010  0.00  0.00    +0.162 A 
ATOM     13  C   UNL     1      -2.374   0.099   0.019  0.00  0.00    +0.049 A 
ATOM     14  C   UNL     1      -3.596  -0.546   0.027  0.00  0.00    +0.004 A 
ATOM     15  C   UNL     1      -3.652  -1.928   0.026  0.00  0.00    +0.008 A 
ATOM     16  C   UNL     1      -2.485  -2.669   0.017  0.00  0.00    +0.007 A 
ATOM     17  C   UNL     1      -1.257  -2.028   0.003  0.00  0.00    +0.165 A 
BRANCH  12  19
ATOM     18  C   UNL     1      -0.017   1.425   0.010  0.00  0.00    +0.277 C 
ATOM     19  O   UNL     1       0.002  -0.004   0.002  0.00  0.00    -0.491 OA
ENDBRANCH  12  19
BRANCH  17  20
ATOM     20  O   UNL     1      -0.108  -2.756  -0.012  0.00  0.00    -0.491 OA
ATOM     21  C   UNL     1       0.452  -3.110   1.254  0.00  0.00    +0.277 C 
ENDBRANCH  17  20
ENDBRANCH   1  16
BRANCH   1  22
ATOM     22  C   UNL     1      -3.283  -4.655   1.271  0.00  0.00    +0.117 C 
BRANCH  22  23
ATOM     23  N   UNL     1      -3.241  -6.118   1.331  0.00  0.00    -0.311 N 
ATOM     24  C   UNL     1      -3.827  -6.767   2.357  0.00  0.00    +0.238 C 
ATOM     25  O   UNL     1      -4.391  -6.137   3.233  0.00  0.00    -0.271 OA
ATOM     26  H   UNL     1      -2.792  -6.620   0.633  0.00  0.00    +0.149 HD
BRANCH  24  27
ATOM     27  C   UNL     1      -3.787  -8.180   2.415  0.00  0.00    +0.087 C 
ATOM     28  C   UNL     1      -4.373  -8.830   3.441  0.00  0.00    +0.031 C 
ATOM     29  N   UNL     1      -5.045  -8.266   4.489  0.00  0.00    -0.305 N 
ATOM     30  C   UNL     1      -5.517  -9.234   5.359  0.00  0.00    +0.091 C 
ATOM     31  C   UNL     1      -6.225  -9.093   6.507  0.00  0.00    +0.039 C 
ATOM     32  C   UNL     1      -6.648 -10.230   7.312  0.00  0.00    +0.000 C 
ATOM     33  C   UNL     1      -6.351 -11.480   6.946  0.00  0.00    -0.008 C 
ATOM     34  C   UNL     1      -5.562 -11.682   5.671  0.00  0.00    +0.134 C 
ATOM     35  N   UNL     1      -5.169 -10.493   4.909  0.00  0.00    -0.309 N 
ATOM     36  C   UNL     1      -4.424 -10.327   3.656  0.00  0.00    +0.157 C 
ATOM     37  H   UNL     1      -5.173  -7.312   4.609  0.00  0.00    +0.153 HD
ENDBRANCH  24  27
ENDBRANCH  22  23
ENDBRANCH   1  22
TORSDOF 7
