REMARK  Name = ZINC12754755
REMARK  4 active torsions:
REMARK  status: ('A' for Active; 'I' for Inactive)
REMARK    1  A    between atoms: C_4  and  C_7
REMARK    2  A    between atoms: C_12  and  O_18
REMARK    3  A    between atoms: O_18  and  S_19
REMARK    4  A    between atoms: S_19  and  C_22
REMARK                            x       y       z     vdW  Elec       q    Type
REMARK                         _______ _______ _______ _____ _____    ______ ____
ROOT
ATOM      1  C   UNL     1       0.002  -0.004   0.002  0.00  0.00    +0.064 A 
ATOM      2  C   UNL     1      -0.016   1.354   0.009  0.00  0.00    +0.208 A 
ATOM      3  O   UNL     1       1.099   2.088   0.003  0.00  0.00    -0.462 OA
ATOM      4  C   UNL     1       2.336   1.553  -0.012  0.00  0.00    +0.142 A 
ATOM      5  C   UNL     1       3.459   2.371  -0.019  0.00  0.00    +0.095 A 
ATOM      6  C   UNL     1       4.722   1.805  -0.035  0.00  0.00    +0.160 A 
ATOM      7  C   UNL     1       4.880   0.421  -0.043  0.00  0.00    +0.049 A 
ATOM      8  C   UNL     1       3.787  -0.397  -0.037  0.00  0.00    +0.019 A 
ATOM      9  C   UNL     1       2.506   0.158  -0.021  0.00  0.00    +0.065 A 
ATOM     10  C   UNL     1       1.303  -0.694  -0.014  0.00  0.00    +0.200 A 
ATOM     11  O   UNL     1       1.382  -1.910  -0.022  0.00  0.00    -0.286 OA
ENDROOT
BRANCH   1  15
ATOM     12  C   UNL     1      -3.626  -2.220   0.023  0.00  0.00    +0.000 A 
ATOM     13  C   UNL     1      -3.432  -1.208   0.946  0.00  0.00    +0.001 A 
ATOM     14  C   UNL     1      -2.256  -0.486   0.944  0.00  0.00    +0.009 A 
ATOM     15  C   UNL     1      -1.264  -0.777   0.009  0.00  0.00    -0.011 A 
ATOM     16  C   UNL     1      -1.467  -1.794  -0.921  0.00  0.00    +0.009 A 
ATOM     17  C   UNL     1      -2.645  -2.514  -0.906  0.00  0.00    +0.001 A 
ENDBRANCH   1  15
BRANCH   6  18
ATOM     18  O   UNL     1       5.818   2.607  -0.042  0.00  0.00    -0.342 OA
BRANCH  18  19
ATOM     19  S   UNL     1       6.303   2.980  -1.435  0.00  0.00    +0.151 S 
ATOM     20  O   UNL     1       7.554   3.633  -1.268  0.00  0.00    -0.131 OA
ATOM     21  O   UNL     1       6.151   1.820  -2.242  0.00  0.00    -0.131 OA
BRANCH  19  22
ATOM     22  C   UNL     1       5.186   4.186  -2.070  0.00  0.00    +0.130 A 
ATOM     23  C   UNL     1       4.077   3.785  -2.792  0.00  0.00    +0.034 A 
ATOM     24  C   UNL     1       3.192   4.725  -3.289  0.00  0.00    +0.049 A 
ATOM     25  C   UNL     1       3.424   6.072  -3.072  0.00  0.00    +0.142 A 
ATOM     26  C   UNL     1       4.546   6.476  -2.350  0.00  0.00    +0.078 A 
ATOM     27  C   UNL     1       5.425   5.530  -1.850  0.00  0.00    +0.057 A 
ATOM     28  N   UNL     1       4.769   7.844  -2.140  0.00  0.00    -0.280 N 
ATOM     29  C   UNL     1       3.758   8.713  -2.355  0.00  0.00    +0.255 C 
ATOM     30  O   UNL     1       3.937   9.904  -2.208  0.00  0.00    -0.272 OA
ATOM     31  C   UNL     1       2.406   8.198  -2.777  0.00  0.00    +0.325 C 
ATOM     32  O   UNL     1       2.567   7.010  -3.557  0.00  0.00    -0.481 OA
ATOM     33  H   UNL     1       5.637   8.162  -1.845  0.00  0.00    +0.155 HD
ENDBRANCH  19  22
ENDBRANCH  18  19
ENDBRANCH   6  18
TORSDOF 4
