REMARK  Name = ZINC67272723
REMARK  1 active torsions:
REMARK  status: ('A' for Active; 'I' for Inactive)
REMARK    1  A    between atoms: C_12  and  C_14
REMARK                            x       y       z     vdW  Elec       q    Type
REMARK                         _______ _______ _______ _____ _____    ______ ____
ROOT
ATOM      1  C   UNL     1       4.711  -1.173   3.736  0.00  0.00    +0.075 C 
ATOM      2  C   UNL     1       3.649  -1.489   4.791  0.00  0.00    +0.015 C 
ATOM      3  C   UNL     1       4.260  -2.376   5.879  0.00  0.00    +0.036 C 
ATOM      4  C   UNL     1       5.440  -1.654   6.521  0.00  0.00    +0.112 C 
ATOM      5  C   UNL     1       6.498  -1.314   5.477  0.00  0.00    +0.036 C 
ATOM      6  C   UNL     1       5.879  -0.431   4.390  0.00  0.00    +0.015 C 
ATOM      7  C   UNL     1       6.038  -2.498   7.623  0.00  0.00    +0.244 C 
ATOM      8  O   UNL     1       6.540  -3.596   7.516  0.00  0.00    -0.273 OA
ATOM      9  N   UNL     1       5.896  -1.771   8.751  0.00  0.00    -0.238 N 
ATOM     10  C   UNL     1       5.297  -0.599   8.509  0.00  0.00    +0.307 C 
ATOM     11  O   UNL     1       5.059   0.228   9.368  0.00  0.00    -0.252 OA
ATOM     12  N   UNL     1       4.987  -0.439   7.209  0.00  0.00    -0.285 N 
ATOM     13  H   UNL     1       6.191  -2.063   9.627  0.00  0.00    +0.159 HD
ATOM     14  H   UNL     1       4.551   0.328   6.806  0.00  0.00    +0.151 HD
ENDROOT
BRANCH   1  24
ATOM     15  C   UNL     1       0.611   0.527  -1.150  0.00  0.00    +0.000 C 
ATOM     16  C   UNL     1       1.478   1.584  -0.471  0.00  0.00    +0.002 C 
ATOM     17  C   UNL     1       2.098   1.048   0.830  0.00  0.00    +0.023 C 
ATOM     18  C   UNL     1       2.894  -0.190   0.475  0.00  0.00    +0.079 C 
ATOM     19  C   UNL     1       1.895  -1.259  -0.045  0.00  0.00    +0.011 C 
ATOM     20  C   UNL     1       1.395  -0.772  -1.395  0.00  0.00    +0.005 C 
ATOM     21  C   UNL     1       2.813  -2.490  -0.093  0.00  0.00    +0.024 C 
ATOM     22  C   UNL     1       3.658  -2.305   1.197  0.00  0.00    +0.108 C 
ATOM     23  N   UNL     1       3.596  -0.875   1.548  0.00  0.00    -0.298 N 
ATOM     24  C   UNL     1       4.108  -0.308   2.659  0.00  0.00    +0.219 C 
ATOM     25  O   UNL     1       4.082   0.897   2.792  0.00  0.00    -0.275 OA
ENDBRANCH   1  24
TORSDOF 1
