REMARK  Name = ZINC55023703
REMARK  5 active torsions:
REMARK  status: ('A' for Active; 'I' for Inactive)
REMARK    1  A    between atoms: C_4  and  C_7
REMARK    2  A    between atoms: C_7  and  C_9
REMARK    3  A    between atoms: C_7  and  O_13
REMARK    4  A    between atoms: C_9  and  C_10
REMARK    5  A    between atoms: O_13  and  C_14
REMARK                            x       y       z     vdW  Elec       q    Type
REMARK                         _______ _______ _______ _____ _____    ______ ____
ROOT
ATOM      1  C   UNL     1       3.704  -0.681   0.003  0.00  0.00    +0.211 C 
ENDROOT
BRANCH   1   5
ATOM      2  C   UNL     1       0.143   1.615   0.545  0.00  0.00    +0.000 A 
ATOM      3  C   UNL     1       1.365   2.251   0.434  0.00  0.00    +0.000 A 
ATOM      4  C   UNL     1       2.518   1.508   0.259  0.00  0.00    +0.007 A 
ATOM      5  C   UNL     1       2.448   0.129   0.195  0.00  0.00    -0.007 A 
ATOM      6  C   UNL     1       1.225  -0.507   0.306  0.00  0.00    +0.007 A 
ATOM      7  C   UNL     1       0.073   0.236   0.480  0.00  0.00    +0.000 A 
ENDBRANCH   1   5
BRANCH   1   8
ATOM      8  C   UNL     1       3.892  -0.986  -1.484  0.00  0.00    +0.118 C 
BRANCH   8   9
ATOM      9  C   UNL     1       5.209  -1.689  -1.691  0.00  0.00    +0.067 C 
ATOM     10  N   UNL     1       6.304  -0.987  -1.923  0.00  0.00    -0.390 N 
ATOM     11  N   UNL     1       5.269  -3.009  -1.639  0.00  0.00    -0.348 N 
ATOM     12  H   UNL     1       6.260  -0.018  -1.960  0.00  0.00    +0.157 HD
ATOM     13  H   UNL     1       4.465  -3.524  -1.469  0.00  0.00    +0.143 HD
ATOM     14  H   UNL     1       6.117  -3.461  -1.772  0.00  0.00    +0.143 HD
ATOM     15  H   UNL     1       7.152  -1.439  -2.055  0.00  0.00    +0.157 HD
ENDBRANCH   8   9
ENDBRANCH   1   8
BRANCH   1  16
ATOM     16  O   UNL     1       3.596  -1.907   0.731  0.00  0.00    -0.483 OA
BRANCH  16  17
ATOM     17  C   UNL     1       4.742  -2.413   1.259  0.00  0.00    +0.135 A 
ATOM     18  C   UNL     1       5.933  -1.715   1.131  0.00  0.00    +0.049 A 
ATOM     19  C   UNL     1       7.097  -2.231   1.669  0.00  0.00    +0.042 A 
ATOM     20  C   UNL     1       7.074  -3.444   2.336  0.00  0.00    +0.125 A 
ATOM     21  C   UNL     1       5.886  -4.143   2.465  0.00  0.00    +0.057 A 
ATOM     22  C   UNL     1       4.719  -3.627   1.932  0.00  0.00    +0.062 A 
ATOM     23 BR   UNL     1       3.094  -4.577   2.115  0.00  0.00    -0.046 Br
ATOM     24  F   UNL     1       8.213  -3.947   2.861  0.00  0.00    -0.205 F 
ENDBRANCH  16  17
ENDBRANCH   1  16
TORSDOF 5
