REMARK  Name = ZINC09793083
REMARK  9 active torsions:
REMARK  status: ('A' for Active; 'I' for Inactive)
REMARK    1  A    between atoms: C_1  and  C_2
REMARK    2  A    between atoms: C_7  and  N_8
REMARK    3  A    between atoms: C_9  and  C_11
REMARK    4  A    between atoms: C_11  and  N_12
REMARK    5  A    between atoms: N_15  and  C_16
REMARK    6  A    between atoms: C_16  and  C_18
REMARK    7  A    between atoms: C_16  and  C_28
REMARK    8  A    between atoms: C_28  and  C_29
REMARK    9  A    between atoms: C_28  and  C_30
REMARK                            x       y       z     vdW  Elec       q    Type
REMARK                         _______ _______ _______ _____ _____    ______ ____
ROOT
ATOM      1  N   UNL     1      -6.512  -0.267   2.314  0.00  0.00    -0.291 N 
ATOM      2  C   UNL     1      -5.628  -0.870   1.496  0.00  0.00    +0.300 C 
ATOM      3  O   UNL     1      -5.729  -2.059   1.263  0.00  0.00    -0.253 OA
ATOM      4  N   UNL     1      -4.631  -0.156   0.937  0.00  0.00    -0.292 N 
ATOM      5  H   UNL     1      -6.432   0.682   2.501  0.00  0.00    +0.151 HD
ATOM      6  H   UNL     1      -4.550   0.792   1.123  0.00  0.00    +0.151 HD
ENDROOT
BRANCH   1   7
ATOM      7  C   UNL     1      -7.596  -1.043   2.922  0.00  0.00    +0.202 C 
BRANCH   7   9
ATOM      8  N   UNL     1      -9.499  -0.638   4.450  0.00  0.00    -0.284 N 
ATOM      9  C   UNL     1      -8.438  -0.139   3.786  0.00  0.00    +0.234 C 
ATOM     10  O   UNL     1      -8.160   1.037   3.885  0.00  0.00    -0.274 OA
ATOM     11  H   UNL     1      -9.770  -1.559   4.310  0.00  0.00    +0.155 HD
BRANCH   8  18
ATOM     12  C   UNL     1     -12.221  -1.282   4.970  0.00  0.00    +0.046 C 
ATOM     13  C   UNL     1     -11.542  -0.107   5.623  0.00  0.00    -0.028 A 
ATOM     14  C   UNL     1     -12.241   0.692   6.508  0.00  0.00    +0.020 A 
ATOM     15  C   UNL     1     -11.620   1.774   7.104  0.00  0.00    +0.018 A 
ATOM     16  C   UNL     1     -10.295   2.057   6.821  0.00  0.00    +0.017 A 
ATOM     17  C   UNL     1      -9.590   1.259   5.942  0.00  0.00    +0.024 A 
ATOM     18  C   UNL     1     -10.211   0.172   5.342  0.00  0.00    +0.036 A 
ATOM     19 BR   UNL     1     -12.582   2.869   8.308  0.00  0.00    -0.050 Br
ENDBRANCH   8  18
ENDBRANCH   7   9
ENDBRANCH   1   7
BRANCH   4  20
ATOM     20  C   UNL     1      -3.670  -0.813   0.048  0.00  0.00    +0.107 C 
BRANCH  20  21
ATOM     21  C   UNL     1      -2.376  -0.039   0.048  0.00  0.00    -0.023 A 
ATOM     22  C   UNL     1      -2.399   1.343   0.049  0.00  0.00    +0.009 A 
ATOM     23  C   UNL     1      -1.215   2.056   0.045  0.00  0.00    +0.050 A 
ATOM     24  C   UNL     1      -0.000   1.386   0.045  0.00  0.00    +0.162 A 
ATOM     25  C   UNL     1       0.022  -0.004   0.046  0.00  0.00    +0.162 A 
ATOM     26  C   UNL     1      -1.169  -0.713   0.046  0.00  0.00    +0.055 A 
ATOM     27  O   UNL     1       1.203  -0.681   0.047  0.00  0.00    -0.485 OA
ATOM     28  C   UNL     1       2.369   0.058  -0.332  0.00  0.00    +0.270 C 
ATOM     29  C   UNL     1       2.349   1.400   0.412  0.00  0.00    +0.270 C 
ATOM     30  O   UNL     1       1.157   2.101   0.040  0.00  0.00    -0.485 OA
ENDBRANCH  20  21
BRANCH  20  31
ATOM     31  C   UNL     1      -4.237  -0.858  -1.373  0.00  0.00    +0.008 C 
ATOM     32  C   UNL     1      -3.233  -1.543  -2.301  0.00  0.00    +0.009 C 
ATOM     33  C   UNL     1      -5.550  -1.643  -1.373  0.00  0.00    +0.009 C 
ENDBRANCH  20  31
ENDBRANCH   4  20
TORSDOF 6
