REMARK  Name = ZINC01207249
REMARK  8 active torsions:
REMARK  status: ('A' for Active; 'I' for Inactive)
REMARK    1  A    between atoms: C_1  and  C_2
REMARK    2  A    between atoms: C_2  and  C_3
REMARK    3  A    between atoms: C_10  and  C_12
REMARK    4  A    between atoms: C_15  and  C_30
REMARK    5  A    between atoms: C_16  and  N_18
REMARK    6  A    between atoms: C_19  and  C_21
REMARK    7  A    between atoms: C_21  and  O_22
REMARK    8  A    between atoms: O_22  and  C_23
REMARK                            x       y       z     vdW  Elec       q    Type
REMARK                         _______ _______ _______ _____ _____    ______ ____
ROOT
ATOM      1  C   UNL     1      -6.565  -2.449  -2.299  0.00  0.00    +0.039 A 
ATOM      2  C   UNL     1      -6.570  -2.454  -3.695  0.00  0.00    +0.013 A 
ATOM      3  C   UNL     1      -7.698  -2.859  -4.379  0.00  0.00    +0.006 A 
ATOM      4  C   UNL     1      -8.825  -3.261  -3.686  0.00  0.00    -0.029 A 
ATOM      5  C   UNL     1      -8.829  -3.260  -2.297  0.00  0.00    +0.037 A 
ATOM      6  C   UNL     1      -7.699  -2.860  -1.600  0.00  0.00    +0.036 A 
ATOM      7  C   UNL     1     -10.052  -3.703  -4.441  0.00  0.00    +0.045 C 
ENDROOT
BRANCH   1  15
ATOM      8  C   UNL     1      -1.395  -0.586   0.043  0.00  0.00    -0.045 A 
ATOM      9  C   UNL     1      -2.039  -0.821   1.249  0.00  0.00    +0.007 A 
ATOM     10  C   UNL     1      -3.336  -1.289   1.272  0.00  0.00    +0.049 A 
ATOM     11  C   UNL     1      -4.005  -1.528   0.081  0.00  0.00    +0.156 A 
ATOM     12  C   UNL     1      -3.358  -1.292  -1.143  0.00  0.00    +0.110 A 
ATOM     13  C   UNL     1      -2.046  -0.813  -1.149  0.00  0.00    +0.035 A 
ATOM     14  N   UNL     1      -4.245  -1.611  -2.120  0.00  0.00    -0.209 NA
ATOM     15  C   UNL     1      -5.358  -2.014  -1.563  0.00  0.00    +0.228 A 
ATOM     16  O   UNL     1      -5.244  -1.976  -0.222  0.00  0.00    -0.435 OA
BRANCH   8  18
ATOM     17  C   UNL     1       0.012   1.455   0.044  0.00  0.00    +0.009 C 
ATOM     18  C   UNL     1       0.022  -0.075   0.037  0.00  0.00    +0.032 C 
ENDBRANCH   8  18
ENDBRANCH   1  15
BRANCH   5  19
ATOM     19  N   UNL     1      -9.973  -3.667  -1.600  0.00  0.00    -0.282 N 
ATOM     20  C   UNL     1     -10.191  -3.226  -0.345  0.00  0.00    +0.255 C 
ATOM     21  O   UNL     1      -9.450  -2.400   0.144  0.00  0.00    -0.272 OA
ATOM     22  H   UNL     1     -10.609  -4.266  -2.021  0.00  0.00    +0.155 HD
BRANCH  20  23
ATOM     23  C   UNL     1     -11.354  -3.760   0.450  0.00  0.00    +0.324 C 
BRANCH  23  24
ATOM     24  O   UNL     1     -11.373  -3.144   1.739  0.00  0.00    -0.483 OA
BRANCH  24  25
ATOM     25  C   UNL     1     -12.367  -3.518   2.587  0.00  0.00    +0.121 A 
ATOM     26  C   UNL     1     -13.302  -4.462   2.188  0.00  0.00    +0.047 A 
ATOM     27  C   UNL     1     -14.311  -4.840   3.052  0.00  0.00    +0.023 A 
ATOM     28  C   UNL     1     -14.391  -4.278   4.314  0.00  0.00    +0.041 A 
ATOM     29  C   UNL     1     -13.460  -3.336   4.713  0.00  0.00    +0.023 A 
ATOM     30  C   UNL     1     -12.444  -2.960   3.855  0.00  0.00    +0.047 A 
ATOM     31 CL   UNL     1     -15.661  -4.755   5.397  0.00  0.00    -0.084 Cl
ENDBRANCH  24  25
ENDBRANCH  23  24
ENDBRANCH  20  23
ENDBRANCH   5  19
TORSDOF 6
