REMARK  Name = ZINC39856083
REMARK  12 active torsions:
REMARK  status: ('A' for Active; 'I' for Inactive)
REMARK    1  A    between atoms: C_1  and  C_2
REMARK    2  A    between atoms: C_6  and  C_7
REMARK    3  A    between atoms: N_9  and  C_10
REMARK    4  A    between atoms: C_10  and  C_11
REMARK    5  A    between atoms: C_11  and  C_12
REMARK    6  A    between atoms: C_12  and  O_13
REMARK    7  A    between atoms: O_13  and  C_14
REMARK    8  A    between atoms: C_16  and  C_24
REMARK    9  A    between atoms: C_16  and  C_25
REMARK   10  A    between atoms: N_19  and  N_20
REMARK   11  A    between atoms: N_20  and  C_21
REMARK   12  A    between atoms: C_21  and  N_23
REMARK                            x       y       z     vdW  Elec       q    Type
REMARK                         _______ _______ _______ _____ _____    ______ ____
ROOT
ATOM      1  C   UNL     1      -0.018   1.503   0.010  0.00  0.00    +0.048 C 
ATOM      2  C   UNL     1       0.002  -0.004   0.002  0.00  0.00    +0.009 A 
ATOM      3  C   UNL     1       0.009  -0.838  -1.123  0.00  0.00    +0.042 A 
ATOM      4  C   UNL     1       0.027  -2.137  -0.673  0.00  0.00    +0.116 A 
ATOM      5  O   UNL     1       0.035  -2.112   0.658  0.00  0.00    -0.454 OA
ATOM      6  C   UNL     1       0.024  -0.830   1.091  0.00  0.00    +0.193 A 
ATOM      7  C   UNL     1       0.034  -3.326  -1.600  0.00  0.00    +0.081 C 
ATOM      8  C   UNL     1      -0.491  -2.903  -2.974  0.00  0.00    -0.023 C 
ATOM      9  C   UNL     1       0.279  -1.685  -3.495  0.00  0.00    +0.064 C 
ATOM     10  C   UNL     1       0.000  -0.512  -2.566  0.00  0.00    +0.070 C 
ATOM     11  N   UNL     1      -0.229   0.686  -3.008  0.00  0.00    -0.185 NA
ATOM     12  C   UNL     1      -0.324  -4.063  -3.957  0.00  0.00    +0.011 C 
ATOM     13  C   UNL     1      -1.976  -2.549  -2.860  0.00  0.00    +0.011 C 
ENDROOT
BRANCH   6  14
ATOM     14  C   UNL     1       0.031  -0.400   2.494  0.00  0.00    +0.280 C 
ATOM     15  O   UNL     1       0.016   0.786   2.766  0.00  0.00    -0.267 OA
ATOM     16  N   UNL     1       0.053  -1.317   3.480  0.00  0.00    -0.309 N 
ATOM     17  H   UNL     1       0.065  -2.263   3.263  0.00  0.00    +0.149 HD
BRANCH  16  18
ATOM     18  C   UNL     1       0.060  -0.887   4.881  0.00  0.00    +0.107 C 
BRANCH  18  19
ATOM     19  C   UNL     1       0.086  -2.116   5.792  0.00  0.00    +0.047 C 
BRANCH  19  20
ATOM     20  C   UNL     1       0.093  -1.667   7.254  0.00  0.00    +0.161 C 
BRANCH  20  21
ATOM     21  O   UNL     1       0.118  -2.815   8.105  0.00  0.00    -0.383 OA
ATOM     22  C   UNL     1       0.126  -2.505   9.500  0.00  0.00    +0.193 C 
ENDBRANCH  20  21
ENDBRANCH  19  20
ENDBRANCH  18  19
ENDBRANCH  16  18
ENDBRANCH   6  14
BRANCH  11  23
ATOM     23  N   UNL     1      -0.224   0.938  -4.386  0.00  0.00    -0.218 N 
ATOM     24  H   UNL     1      -0.050   0.216  -5.010  0.00  0.00    +0.176 HD
BRANCH  23  25
ATOM     25  C   UNL     1      -0.462   2.183  -4.844  0.00  0.00    +0.147 C 
ATOM     26  S   UNL     1      -0.456   2.490  -6.529  0.00  0.00    -0.017 S 
BRANCH  25  27
ATOM     27  N   UNL     1      -0.704   3.186  -3.977  0.00  0.00    -0.339 N 
ATOM     28  H   UNL     1      -0.707   3.011  -3.023  0.00  0.00    +0.144 HD
ATOM     29  H   UNL     1      -0.875   4.082  -4.307  0.00  0.00    +0.144 HD
ENDBRANCH  25  27
ENDBRANCH  23  25
ENDBRANCH  11  23
TORSDOF 8
