REMARK  Name = ZINC43702459
REMARK  7 active torsions:
REMARK  status: ('A' for Active; 'I' for Inactive)
REMARK    1  A    between atoms: C_1  and  C_2
REMARK    2  A    between atoms: C_2  and  C_3
REMARK    3  A    between atoms: C_2  and  C_4
REMARK    4  A    between atoms: C_4  and  C_5
REMARK    5  A    between atoms: C_5  and  C_7
REMARK    6  A    between atoms: C_5  and  N_19
REMARK    7  A    between atoms: C_13  and  C_16
REMARK                            x       y       z     vdW  Elec       q    Type
REMARK                         _______ _______ _______ _____ _____    ______ ____
ROOT
ATOM      1  C   UNL     1      -0.161  -0.344   2.472  0.00  0.00    +0.161 C 
ENDROOT
BRANCH   1   2
ATOM      2  C   UNL     1       0.510  -0.951   3.677  0.00  0.00    +0.236 C 
ATOM      3  O   UNL     1       1.163  -0.253   4.424  0.00  0.00    -0.274 OA
ATOM      4  N   UNL     1       0.383  -2.270   3.926  0.00  0.00    -0.295 N 
ATOM      5  C   UNL     1      -0.399  -3.138   3.031  0.00  0.00    +0.136 C 
ATOM      6  C   UNL     1      -1.384  -3.948   3.883  0.00  0.00    +0.180 C 
ATOM      7  O   UNL     1      -0.669  -4.600   4.935  0.00  0.00    -0.362 OA
ATOM      8  C   UNL     1      -0.030  -3.707   5.850  0.00  0.00    +0.248 C 
ATOM      9  C   UNL     1       1.028  -2.885   5.096  0.00  0.00    +0.151 C 
BRANCH   8  10
ATOM     10  C   UNL     1       0.635  -4.499   6.946  0.00  0.00    +0.386 C 
ATOM     11  O   UNL     1       0.647  -5.718   6.896  0.00  0.00    -0.243 OA
ATOM     12  O   UNL     1       1.162  -3.922   7.882  0.00  0.00    -0.243 OA
ENDBRANCH   8  10
ENDBRANCH   1   2
BRANCH   1  13
ATOM     13  N   UNL     1      -0.290   1.103   2.662  0.00  0.00    -0.288 N 
ATOM     14  C   UNL     1       0.810   1.861   2.839  0.00  0.00    +0.298 C 
ATOM     15  O   UNL     1       1.911   1.343   2.841  0.00  0.00    -0.253 OA
ATOM     16  N   UNL     1       0.691   3.192   3.014  0.00  0.00    -0.313 N 
ATOM     17  H   UNL     1      -1.168   1.516   2.661  0.00  0.00    +0.151 HD
ATOM     18  H   UNL     1      -0.186   3.604   3.013  0.00  0.00    +0.146 HD
ATOM     19  H   UNL     1       1.484   3.737   3.142  0.00  0.00    +0.146 HD
ENDBRANCH   1  13
BRANCH   1  20
ATOM     20  C   UNL     1       0.683  -0.621   1.226  0.00  0.00    +0.034 C 
BRANCH  20  22
ATOM     21  C   UNL     1       0.866  -0.226  -1.235  0.00  0.00    +0.007 C 
ATOM     22  C   UNL     1      -0.038  -0.076  -0.009  0.00  0.00    -0.015 C 
ATOM     23  C   UNL     1      -1.333  -0.861  -0.231  0.00  0.00    +0.007 C 
ENDBRANCH  20  22
ENDBRANCH   1  20
TORSDOF 5
