REMARK  Name = ZINC09220844
REMARK  8 active torsions:
REMARK  status: ('A' for Active; 'I' for Inactive)
REMARK    1  A    between atoms: C_4  and  N_27
REMARK    2  A    between atoms: C_5  and  C_7
REMARK    3  A    between atoms: C_7  and  O_9
REMARK    4  A    between atoms: O_9  and  C_10
REMARK    5  A    between atoms: C_10  and  C_11
REMARK    6  A    between atoms: N_27  and  C_28
REMARK    7  A    between atoms: C_28  and  C_29
REMARK    8  A    between atoms: C_29  and  O_30
REMARK                            x       y       z     vdW  Elec       q    Type
REMARK                         _______ _______ _______ _____ _____    ______ ____
ROOT
ATOM      1  C   UNL     1       4.733   4.147   0.684  0.00  0.00    +0.328 C 
ENDROOT
BRANCH   1   2
ATOM      2  C   UNL     1       3.390   3.474   0.805  0.00  0.00    +0.262 C 
ATOM      3  O   UNL     1       3.313   2.349   1.253  0.00  0.00    -0.271 OA
ATOM      4  N   UNL     1       2.274   4.122   0.416  0.00  0.00    -0.235 N 
ATOM      5  C   UNL     1       1.049   3.442   0.437  0.00  0.00    +0.055 A 
ATOM      6  C   UNL     1       0.987   2.103   0.084  0.00  0.00    +0.025 A 
ATOM      7  C   UNL     1      -0.227   1.438   0.105  0.00  0.00    +0.002 A 
ATOM      8  C   UNL     1      -1.383   2.102   0.471  0.00  0.00    +0.001 A 
ATOM      9  C   UNL     1      -1.331   3.438   0.832  0.00  0.00    +0.017 A 
ATOM     10  C   UNL     1      -0.121   4.106   0.813  0.00  0.00    +0.035 A 
ATOM     11  S   UNL     1      -0.024   5.811   1.262  0.00  0.00    -0.086 S 
ATOM     12  C   UNL     1       1.365   6.370   0.325  0.00  0.00    +0.035 A 
ATOM     13  C   UNL     1       2.371   5.456   0.002  0.00  0.00    +0.055 A 
ATOM     14  C   UNL     1       3.466   5.883  -0.733  0.00  0.00    +0.025 A 
ATOM     15  C   UNL     1       3.554   7.202  -1.139  0.00  0.00    +0.002 A 
ATOM     16  C   UNL     1       2.556   8.103  -0.817  0.00  0.00    +0.001 A 
ATOM     17  C   UNL     1       1.458   7.688  -0.084  0.00  0.00    +0.017 A 
ENDBRANCH   1   2
BRANCH   1  18
ATOM     18  O   UNL     1       5.725   3.382   1.418  0.00  0.00    -0.452 OA
BRANCH  18  19
ATOM     19  C   UNL     1       6.988   3.852   1.411  0.00  0.00    +0.341 C 
ATOM     20  O   UNL     1       7.253   4.873   0.808  0.00  0.00    -0.245 OA
BRANCH  19  25
ATOM     21  C   UNL     1       8.773   1.217   3.397  0.00  0.00    +0.001 A 
ATOM     22  C   UNL     1      10.043   1.763   3.497  0.00  0.00    +0.002 A 
ATOM     23  C   UNL     1      10.326   2.985   2.922  0.00  0.00    +0.024 A 
ATOM     24  C   UNL     1       9.335   3.678   2.237  0.00  0.00    +0.041 A 
ATOM     25  C   UNL     1       8.047   3.128   2.134  0.00  0.00    +0.080 A 
ATOM     26  C   UNL     1       7.776   1.891   2.727  0.00  0.00    +0.017 A 
BRANCH  24  27
ATOM     27  N   UNL     1       9.617   4.908   1.658  0.00  0.00    -0.341 N 
ATOM     28  H   UNL     1       8.950   5.351   1.111  0.00  0.00    +0.146 HD
BRANCH  27  29
ATOM     29  C   UNL     1      10.922   5.537   1.874  0.00  0.00    +0.129 C 
BRANCH  29  30
ATOM     30  C   UNL     1      10.973   6.874   1.132  0.00  0.00    +0.174 C 
BRANCH  30  31
ATOM     31  O   UNL     1      10.021   7.773   1.705  0.00  0.00    -0.393 OA
ATOM     32  H   UNL     1       9.998   8.643   1.283  0.00  0.00    +0.209 HD
ENDBRANCH  30  31
ENDBRANCH  29  30
ENDBRANCH  27  29
ENDBRANCH  24  27
ENDBRANCH  19  25
ENDBRANCH  18  19
ENDBRANCH   1  18
TORSDOF 8
