REMARK  Name = ZINC04189341
REMARK  9 active torsions:
REMARK  status: ('A' for Active; 'I' for Inactive)
REMARK    1  A    between atoms: C_1  and  C_2
REMARK    2  A    between atoms: C_7  and  C_17
REMARK    3  A    between atoms: C_20  and  O_25
REMARK    4  A    between atoms: C_22  and  O_23
REMARK    5  A    between atoms: O_23  and  C_24
REMARK    6  A    between atoms: O_25  and  C_26
REMARK    7  A    between atoms: C_29  and  C_31
REMARK    8  A    between atoms: C_31  and  O_33
REMARK    9  A    between atoms: O_33  and  C_34
REMARK                            x       y       z     vdW  Elec       q    Type
REMARK                         _______ _______ _______ _____ _____    ______ ____
ROOT
ATOM      1  C   UNL     1       2.216   1.588  -1.173  0.00  0.00    +0.009 C 
ATOM      2  C   UNL     1       1.554   1.998   0.144  0.00  0.00    +0.013 C 
ATOM      3  C   UNL     1       2.268   1.324   1.314  0.00  0.00    +0.055 C 
ATOM      4  C   UNL     1       2.196  -0.187   1.162  0.00  0.00    +0.017 C 
ATOM      5  C   UNL     1       1.125  -0.762   0.592  0.00  0.00    +0.037 C 
ATOM      6  C   UNL     1       0.905  -2.246   0.411  0.00  0.00    +0.139 C 
ATOM      7  N   UNL     1       2.075  -3.059   0.667  0.00  0.00    -0.331 N 
ATOM      8  C   UNL     1       2.642  -3.126   1.939  0.00  0.00    +0.049 A 
ATOM      9  C   UNL     1       2.652  -4.306   2.666  0.00  0.00    +0.025 A 
ATOM     10  C   UNL     1       3.186  -4.313   3.942  0.00  0.00    +0.002 A 
ATOM     11  C   UNL     1       3.704  -3.155   4.492  0.00  0.00    +0.002 A 
ATOM     12  C   UNL     1       3.710  -1.978   3.762  0.00  0.00    +0.025 A 
ATOM     13  C   UNL     1       3.196  -1.974   2.477  0.00  0.00    +0.052 A 
ATOM     14  N   UNL     1       3.269  -0.857   1.652  0.00  0.00    -0.316 N 
ATOM     15  C   UNL     1       0.066   0.036   0.096  0.00  0.00    +0.177 C 
ATOM     16  O   UNL     1      -0.899  -0.513  -0.399  0.00  0.00    -0.291 OA
ATOM     17  C   UNL     1       0.093   1.533   0.158  0.00  0.00    +0.171 C 
ATOM     18  H   UNL     1       2.472  -3.565  -0.059  0.00  0.00    +0.147 HD
ATOM     19  H   UNL     1       4.150  -0.533   1.410  0.00  0.00    +0.152 HD
ENDROOT
BRANCH   6  20
ATOM     20  C   UNL     1      -0.192  -2.684   1.347  0.00  0.00    +0.019 A 
ATOM     21  C   UNL     1      -0.557  -1.877   2.408  0.00  0.00    +0.013 A 
ATOM     22  C   UNL     1      -1.562  -2.277   3.268  0.00  0.00    +0.046 A 
ATOM     23  C   UNL     1      -2.207  -3.489   3.068  0.00  0.00    +0.124 A 
ATOM     24  C   UNL     1      -1.842  -4.300   2.005  0.00  0.00    +0.091 A 
ATOM     25  C   UNL     1      -0.837  -3.894   1.140  0.00  0.00    +0.129 A 
BRANCH  25  26
ATOM     26  O   UNL     1      -0.481  -4.684   0.093  0.00  0.00    -0.495 OA
ATOM     27  C   UNL     1      -1.188  -5.917  -0.060  0.00  0.00    +0.277 C 
ENDBRANCH  25  26
BRANCH  23  28
ATOM     28  O   UNL     1      -3.196  -3.881   3.914  0.00  0.00    -0.495 OA
ATOM     29  C   UNL     1      -3.520  -2.996   4.988  0.00  0.00    +0.277 C 
ENDBRANCH  23  28
ENDBRANCH   6  20
BRANCH  17  30
ATOM     30  C   UNL     1      -0.631   2.102  -1.035  0.00  0.00    +0.318 C 
ATOM     31  O   UNL     1      -0.045   2.820  -1.810  0.00  0.00    -0.250 OA
BRANCH  30  32
ATOM     32  O   UNL     1      -1.925   1.811  -1.236  0.00  0.00    -0.467 OA
ATOM     33  C   UNL     1      -2.558   2.393  -2.406  0.00  0.00    +0.280 C 
ENDBRANCH  30  32
ENDBRANCH  17  30
TORSDOF 5
