REMARK  Name = ZINC45334976
REMARK  8 active torsions:
REMARK  status: ('A' for Active; 'I' for Inactive)
REMARK    1  A    between atoms: C_6  and  C_7
REMARK    2  A    between atoms: C_7  and  N_8
REMARK    3  A    between atoms: N_8  and  C_9
REMARK    4  A    between atoms: C_9  and  C_10
REMARK    5  A    between atoms: C_10  and  C_16
REMARK    6  A    between atoms: C_19  and  C_30
REMARK    7  A    between atoms: C_20  and  C_22
REMARK    8  A    between atoms: C_26  and  O_28
REMARK                            x       y       z     vdW  Elec       q    Type
REMARK                         _______ _______ _______ _____ _____    ______ ____
ROOT
ATOM      1  C   UNL     1      -3.630  -0.583  -3.626  0.00  0.00    +0.116 A 
ATOM      2  N   UNL     1      -4.102   0.427  -2.865  0.00  0.00    -0.341 N 
ATOM      3  H   UNL     1      -4.478   0.348  -1.974  0.00  0.00    +0.167 HD
ATOM      4  C   UNL     1      -3.952   1.590  -3.586  0.00  0.00    +0.074 A 
ATOM      5  C   UNL     1      -3.377   1.225  -4.790  0.00  0.00    +0.097 A 
ATOM      6  N   UNL     1      -3.196  -0.108  -4.761  0.00  0.00    -0.231 NA
ENDROOT
BRANCH   5   7
ATOM      7  C   UNL     1      -3.020   2.134  -5.904  0.00  0.00    +0.006 A 
ATOM      8  C   UNL     1      -2.419   3.365  -5.638  0.00  0.00    +0.012 A 
ATOM      9  C   UNL     1      -2.088   4.210  -6.677  0.00  0.00    +0.024 A 
ATOM     10  C   UNL     1      -2.350   3.841  -7.984  0.00  0.00    +0.082 A 
ATOM     11  C   UNL     1      -2.949   2.617  -8.258  0.00  0.00    +0.136 A 
ATOM     12  C   UNL     1      -3.278   1.760  -7.222  0.00  0.00    +0.057 A 
ATOM     13 CL   UNL     1      -1.931   4.910  -9.286  0.00  0.00    -0.080 Cl
BRANCH  11  14
ATOM     14  O   UNL     1      -3.205   2.259  -9.544  0.00  0.00    -0.505 OA
ATOM     15  H   UNL     1      -2.482   1.778  -9.970  0.00  0.00    +0.292 HD
ENDBRANCH  11  14
ENDBRANCH   5   7
BRANCH   1  16
ATOM     16  C   UNL     1      -3.601  -2.034  -3.223  0.00  0.00    +0.041 C 
ATOM     17  C   UNL     1      -2.679  -2.808  -4.168  0.00  0.00    +0.016 C 
ATOM     18  C   UNL     1      -2.650  -4.282  -3.759  0.00  0.00    +0.001 C 
ATOM     19  C   UNL     1      -4.064  -4.861  -3.838  0.00  0.00    +0.000 C 
ATOM     20  C   UNL     1      -4.986  -4.088  -2.893  0.00  0.00    +0.001 C 
ATOM     21  C   UNL     1      -5.015  -2.614  -3.303  0.00  0.00    +0.016 C 
BRANCH  16  22
ATOM     22  C   UNL     1      -3.080  -2.156  -1.790  0.00  0.00    +0.095 C 
BRANCH  22  23
ATOM     23  N   UNL     1      -1.700  -1.657  -1.726  0.00  0.00    -0.311 NA
ATOM     24  H   UNL     1      -1.638  -0.716  -2.086  0.00  0.00    +0.122 HD
BRANCH  23  25
ATOM     25  C   UNL     1      -1.175  -1.732  -0.356  0.00  0.00    +0.116 C 
BRANCH  25  31
ATOM     26  C   UNL     1       0.479   0.128  -0.102  0.00  0.00    +0.006 A 
ATOM     27  C   UNL     1       1.777   0.605  -0.078  0.00  0.00    +0.020 A 
ATOM     28  C   UNL     1       2.835  -0.262  -0.283  0.00  0.00    +0.041 A 
ATOM     29  C   UNL     1       2.595  -1.605  -0.513  0.00  0.00    +0.020 A 
ATOM     30  C   UNL     1       1.297  -2.080  -0.536  0.00  0.00    +0.006 A 
ATOM     31  C   UNL     1       0.240  -1.214  -0.331  0.00  0.00    -0.033 A 
ATOM     32 CL   UNL     1       4.465   0.336  -0.254  0.00  0.00    -0.084 Cl
ENDBRANCH  25  31
ENDBRANCH  23  25
ENDBRANCH  22  23
ENDBRANCH  16  22
ENDBRANCH   1  16
BRANCH   4  33
ATOM     33  C   UNL     1      -4.328   2.952  -3.161  0.00  0.00    +0.003 A 
ATOM     34  C   UNL     1      -5.050   3.799  -4.012  0.00  0.00    +0.030 A 
ATOM     35  C   UNL     1      -5.381   5.064  -3.574  0.00  0.00    +0.111 A 
ATOM     36  N   UNL     1      -5.026   5.478  -2.372  0.00  0.00    -0.263 NA
ATOM     37  C   UNL     1      -4.346   4.714  -1.538  0.00  0.00    +0.111 A 
ATOM     38  C   UNL     1      -3.979   3.433  -1.892  0.00  0.00    +0.030 A 
ENDBRANCH   4  33
TORSDOF 8
