REMARK  Name = ZINC36320707
REMARK  6 active torsions:
REMARK  status: ('A' for Active; 'I' for Inactive)
REMARK    1  A    between atoms: C_1  and  N_2
REMARK    2  A    between atoms: N_2  and  C_3
REMARK    3  A    between atoms: N_2  and  C_9
REMARK    4  A    between atoms: C_9  and  C_11
REMARK    5  A    between atoms: C_9  and  C_13
REMARK    6  A    between atoms: C_11  and  N_12
REMARK                            x       y       z     vdW  Elec       q    Type
REMARK                         _______ _______ _______ _____ _____    ______ ____
ROOT
ATOM      1  C   UNL     1      -1.251  -0.510   0.228  0.00  0.00    +0.070 C 
ENDROOT
BRANCH   1   2
ATOM      2  C   UNL     1      -2.021  -0.289  -1.048  0.00  0.00    -0.027 A 
ATOM      3  C   UNL     1      -3.372   0.000  -0.997  0.00  0.00    +0.054 A 
ATOM      4  C   UNL     1      -4.083   0.204  -2.169  0.00  0.00    +0.168 A 
ATOM      5  C   UNL     1      -3.433   0.115  -3.397  0.00  0.00    +0.180 A 
ATOM      6  C   UNL     1      -2.079  -0.176  -3.441  0.00  0.00    +0.064 A 
ATOM      7  C   UNL     1      -1.375  -0.372  -2.267  0.00  0.00    +0.024 A 
ATOM      8 BR   UNL     1      -1.192  -0.297  -5.107  0.00  0.00    -0.046 Br
ATOM      9  O   UNL     1      -4.340   0.354  -4.389  0.00  0.00    -0.451 OA
ATOM     10  C   UNL     1      -5.632   0.185  -3.776  0.00  0.00    +0.466 C 
ATOM     11  O   UNL     1      -5.397   0.498  -2.391  0.00  0.00    -0.453 OA
ENDBRANCH   1   2
BRANCH   1  13
ATOM     12  C   UNL     1      -0.061   1.573  -0.096  0.00  0.00    +0.105 C 
ATOM     13  N   UNL     1       0.069   0.126   0.120  0.00  0.00    -0.297 NA
BRANCH  13  14
ATOM     14  C   UNL     1       0.889  -0.158   1.305  0.00  0.00    +0.061 C 
ATOM     15  C   UNL     1       0.255   0.497   2.536  0.00  0.00    +0.047 C 
ATOM     16  C   UNL     1       1.157   0.263   3.751  0.00  0.00    +0.161 C 
ATOM     17  O   UNL     1       2.458   0.790   3.485  0.00  0.00    -0.380 OA
ATOM     18  C   UNL     1       3.119   0.181   2.373  0.00  0.00    +0.161 C 
ATOM     19  C   UNL     1       2.296   0.413   1.103  0.00  0.00    +0.047 C 
ENDBRANCH  13  14
ENDBRANCH   1  13
BRANCH   1  20
ATOM     20  C   UNL     1      -1.076  -2.012   0.465  0.00  0.00    -0.063 C 
BRANCH  20  21
ATOM     21  N   UNL     1      -2.392  -2.633   0.664  0.00  0.00    +0.379 N 
ATOM     22  H   UNL     1      -2.281  -3.632   0.757  0.00  0.00    -0.090 HD
ATOM     23  H   UNL     1      -2.816  -2.262   1.501  0.00  0.00    -0.090 HD
ATOM     24  H   UNL     1      -2.982  -2.433  -0.129  0.00  0.00    -0.090 HD
ENDBRANCH  20  21
ENDBRANCH   1  20
TORSDOF 5
