REMARK  Name = ZINC38547736
REMARK  8 active torsions:
REMARK  status: ('A' for Active; 'I' for Inactive)
REMARK    1  A    between atoms: C_1  and  C_2
REMARK    2  A    between atoms: N_8  and  C_9
REMARK    3  A    between atoms: C_9  and  C_11
REMARK    4  A    between atoms: C_9  and  C_16
REMARK    5  A    between atoms: C_17  and  C_30
REMARK    6  A    between atoms: C_18  and  C_29
REMARK    7  A    between atoms: C_20  and  N_21
REMARK    8  A    between atoms: C_22  and  C_24
REMARK                            x       y       z     vdW  Elec       q    Type
REMARK                         _______ _______ _______ _____ _____    ______ ____
ROOT
ATOM      1  C   UNL     1      -0.154  -1.940   3.773  0.00  0.00    +0.135 C 
ENDROOT
BRANCH   1   9
ATOM      2  C   UNL     1      -1.601   1.278   0.057  0.00  0.00    +0.044 C 
ATOM      3  C   UNL     1      -1.360  -0.206   0.148  0.00  0.00    -0.046 A 
ATOM      4  C   UNL     1      -1.533  -1.023  -0.962  0.00  0.00    +0.021 A 
ATOM      5  C   UNL     1      -1.303  -2.379  -0.846  0.00  0.00    +0.084 A 
ATOM      6  N   UNL     1      -0.924  -2.905   0.303  0.00  0.00    -0.350 N 
ATOM      7  C   UNL     1      -0.749  -2.161   1.383  0.00  0.00    +0.097 A 
ATOM      8  C   UNL     1      -0.957  -0.786   1.337  0.00  0.00    +0.045 A 
ATOM      9  N   UNL     1      -0.349  -2.757   2.574  0.00  0.00    -0.320 N 
ATOM     10  H   UNL     1      -0.199  -3.715   2.610  0.00  0.00    +0.148 HD
ATOM     11  H   UNL     1      -0.770  -3.862   0.357  0.00  0.00    +0.166 HD
ENDBRANCH   1   9
BRANCH   1  12
ATOM     12  C   UNL     1       0.689  -2.698   4.766  0.00  0.00    +0.009 A 
ATOM     13  C   UNL     1       1.719  -2.068   5.440  0.00  0.00    -0.033 A 
ATOM     14  C   UNL     1       2.457  -2.779   6.326  0.00  0.00    -0.008 A 
ATOM     15  S   UNL     1       1.701  -4.393   6.232  0.00  0.00    -0.078 S 
ATOM     16  C   UNL     1       0.446  -4.014   5.020  0.00  0.00    +0.078 A 
ATOM     17  C   UNL     1       3.618  -2.324   7.173  0.00  0.00    +0.052 C 
ATOM     18  C   UNL     1       2.017  -0.612   5.192  0.00  0.00    +0.045 C 
BRANCH  16  19
ATOM     19  N   UNL     1      -0.529  -4.850   4.473  0.00  0.00    -0.273 N 
ATOM     20  C   UNL     1      -0.632  -6.128   4.889  0.00  0.00    +0.284 C 
ATOM     21  O   UNL     1       0.126  -6.553   5.741  0.00  0.00    -0.266 OA
ATOM     22  H   UNL     1      -1.133  -4.511   3.794  0.00  0.00    +0.156 HD
BRANCH  20  23
ATOM     23  C   UNL     1      -1.656  -7.006   4.314  0.00  0.00    +0.189 A 
ATOM     24  C   UNL     1      -1.872  -8.313   4.648  0.00  0.00    +0.054 A 
ATOM     25  C   UNL     1      -2.943  -8.759   3.858  0.00  0.00    +0.042 A 
ATOM     26  C   UNL     1      -3.329  -7.719   3.087  0.00  0.00    +0.196 A 
ATOM     27  O   UNL     1      -2.555  -6.663   3.369  0.00  0.00    -0.458 OA
ENDBRANCH  20  23
ENDBRANCH  16  19
ENDBRANCH   1  12
BRANCH   1  28
ATOM     28  C   UNL     1      -1.493  -1.623   4.389  0.00  0.00    -0.016 A 
ATOM     29  C   UNL     1      -1.693  -0.430   5.057  0.00  0.00    +0.013 A 
ATOM     30  C   UNL     1      -2.909  -0.176   5.599  0.00  0.00    +0.045 A 
ATOM     31  S   UNL     1      -3.820  -1.651   5.169  0.00  0.00    -0.105 S 
ATOM     32  C   UNL     1      -2.520  -2.503   4.291  0.00  0.00    +0.051 A 
ENDBRANCH   1  28
TORSDOF 5
