REMARK  Name = ZINC64450876
REMARK  8 active torsions:
REMARK  status: ('A' for Active; 'I' for Inactive)
REMARK    1  A    between atoms: C_1  and  C_2
REMARK    2  A    between atoms: C_2  and  C_3
REMARK    3  A    between atoms: C_2  and  C_4
REMARK    4  A    between atoms: C_2  and  N_5
REMARK    5  A    between atoms: N_5  and  C_6
REMARK    6  A    between atoms: C_7  and  C_33
REMARK    7  A    between atoms: C_12  and  N_15
REMARK    8  A    between atoms: C_21  and  C_23
REMARK                            x       y       z     vdW  Elec       q    Type
REMARK                         _______ _______ _______ _____ _____    ______ ____
ROOT
ATOM      1  C   UNL     1       1.591   0.204  -0.764  0.00  0.00    +0.143 A 
ATOM      2  C   UNL     1       2.147   0.245  -2.005  0.00  0.00    +0.088 A 
ATOM      3  N   UNL     1       3.151   1.164  -1.981  0.00  0.00    -0.331 N 
ATOM      4  C   UNL     1       3.235   1.661  -0.786  0.00  0.00    +0.169 A 
ATOM      5  N   UNL     1       2.261   1.133   0.028  0.00  0.00    -0.226 N 
ATOM      6  N   UNL     1       2.148   1.593   1.309  0.00  0.00    -0.254 N 
ATOM      7  C   UNL     1       3.370   2.237   1.856  0.00  0.00    +0.224 C 
ATOM      8  S   UNL     1       4.124   2.791   0.268  0.00  0.00    -0.048 S 
ATOM      9  H   UNL     1       1.346   2.197   1.407  0.00  0.00    +0.169 HD
ATOM     10  H   UNL     1       3.712   1.407  -2.734  0.00  0.00    +0.168 HD
ENDROOT
BRANCH   7  11
ATOM     11  N   UNL     1       3.039   3.371   2.729  0.00  0.00    -0.272 NA
ATOM     12  C   UNL     1       2.155   2.952   3.825  0.00  0.00    +0.106 C 
ATOM     13  C   UNL     1       1.980   4.114   4.809  0.00  0.00    +0.123 C 
ATOM     14  N   UNL     1       1.525   5.295   4.060  0.00  0.00    -0.297 N 
ATOM     15  C   UNL     1       2.283   5.697   2.866  0.00  0.00    +0.123 C 
ATOM     16  C   UNL     1       2.446   4.473   1.958  0.00  0.00    +0.106 C 
ATOM     17  C   UNL     1       0.442   5.992   4.459  0.00  0.00    +0.242 C 
ATOM     18  O   UNL     1      -0.172   5.646   5.446  0.00  0.00    -0.273 OA
BRANCH  17  19
ATOM     19  C   UNL     1      -0.007   7.199   3.677  0.00  0.00    +0.190 C 
ATOM     20  C   UNL     1      -0.399   6.796   2.273  0.00  0.00    +0.016 C 
ATOM     21  C   UNL     1      -1.704   7.126   2.139  0.00  0.00    -0.004 A 
ATOM     22  C   UNL     1      -2.654   6.993   1.028  0.00  0.00    +0.010 A 
ATOM     23  C   UNL     1      -3.924   7.425   1.196  0.00  0.00    +0.001 A 
ATOM     24  C   UNL     1      -4.355   7.996   2.401  0.00  0.00    +0.002 A 
ATOM     25  C   UNL     1      -3.541   8.151   3.467  0.00  0.00    +0.026 A 
ATOM     26  C   UNL     1      -2.184   7.731   3.401  0.00  0.00    +0.043 A 
ATOM     27  N   UNL     1      -1.212   7.775   4.283  0.00  0.00    -0.370 N 
ATOM     28  H   UNL     1      -1.280   8.128   5.184  0.00  0.00    +0.161 HD
ENDBRANCH  17  19
ENDBRANCH   7  11
BRANCH   2  29
ATOM     29  C   UNL     1       1.735  -0.565  -3.173  0.00  0.00    +0.002 A 
ATOM     30  C   UNL     1       1.482  -1.929  -3.025  0.00  0.00    +0.010 A 
ATOM     31  C   UNL     1       1.097  -2.679  -4.117  0.00  0.00    +0.001 A 
ATOM     32  C   UNL     1       0.962  -2.081  -5.357  0.00  0.00    +0.000 A 
ATOM     33  C   UNL     1       1.212  -0.729  -5.511  0.00  0.00    +0.001 A 
ATOM     34  C   UNL     1       1.592   0.033  -4.425  0.00  0.00    +0.010 A 
ENDBRANCH   2  29
BRANCH   1  35
ATOM     35  N   UNL     1       0.539  -0.614  -0.361  0.00  0.00    -0.323 N 
ATOM     36  H   UNL     1       0.060  -1.147  -1.015  0.00  0.00    +0.148 HD
BRANCH  35  38
ATOM     37  C   UNL     1      -0.474   0.663   1.462  0.00  0.00    +0.031 C 
ATOM     38  C   UNL     1       0.154  -0.670   1.052  0.00  0.00    +0.025 C 
ATOM     39  C   UNL     1       1.394  -0.936   1.908  0.00  0.00    +0.031 C 
ATOM     40  C   UNL     1      -0.861  -1.797   1.260  0.00  0.00    +0.031 C 
ENDBRANCH  35  38
ENDBRANCH   1  35
TORSDOF 5
