REMARK  Name = ZINC14242118
REMARK  11 active torsions:
REMARK  status: ('A' for Active; 'I' for Inactive)
REMARK    1  A    between atoms: C_1  and  C_2
REMARK    2  A    between atoms: C_2  and  C_4
REMARK    3  A    between atoms: C_2  and  N_25
REMARK    4  A    between atoms: C_4  and  O_6
REMARK    5  A    between atoms: O_6  and  C_7
REMARK    6  A    between atoms: C_7  and  C_9
REMARK    7  A    between atoms: C_7  and  C_10
REMARK    8  A    between atoms: C_22  and  C_23
REMARK    9  A    between atoms: C_22  and  C_24
REMARK   10  A    between atoms: N_25  and  S_26
REMARK   11  A    between atoms: S_26  and  C_29
REMARK                            x       y       z     vdW  Elec       q    Type
REMARK                         _______ _______ _______ _____ _____    ______ ____
ROOT
ATOM      1  C   UNL     1      -0.191   1.374   0.925  0.00  0.00    +0.259 C 
ATOM      2  C   UNL     1       0.589   0.508  -0.066  0.00  0.00    +0.062 C 
ENDROOT
BRANCH   1   3
ATOM      3  C   UNL     1       0.184   0.988   2.333  0.00  0.00    +0.261 C 
ATOM      4  O   UNL     1       0.579   1.832   3.109  0.00  0.00    -0.271 OA
ATOM      5  N   UNL     1       0.081  -0.296   2.729  0.00  0.00    -0.252 N 
ATOM      6  C   UNL     1      -0.512  -1.264   1.903  0.00  0.00    +0.059 A 
ATOM      7  C   UNL     1      -1.494  -0.925   0.993  0.00  0.00    +0.025 A 
ATOM      8  C   UNL     1      -2.057  -1.903   0.194  0.00  0.00    +0.002 A 
ATOM      9  C   UNL     1      -1.636  -3.216   0.300  0.00  0.00    +0.002 A 
ATOM     10  C   UNL     1      -0.649  -3.563   1.204  0.00  0.00    +0.025 A 
ATOM     11  C   UNL     1      -0.077  -2.589   2.008  0.00  0.00    +0.055 A 
ATOM     12  N   UNL     1       0.927  -2.917   2.925  0.00  0.00    -0.282 N 
ATOM     13  C   UNL     1       1.287  -2.050   3.890  0.00  0.00    +0.241 C 
ATOM     14  O   UNL     1       2.191  -2.338   4.647  0.00  0.00    -0.273 OA
ATOM     15  C   UNL     1       0.581  -0.728   4.043  0.00  0.00    +0.113 C 
ATOM     16  C   UNL     1       1.560   0.316   4.585  0.00  0.00    +0.042 C 
ATOM     17  C   UNL     1      -0.593  -0.883   5.012  0.00  0.00    +0.042 C 
ATOM     18  H   UNL     1       1.369  -3.778   2.865  0.00  0.00    +0.155 HD
ENDBRANCH   1   3
BRANCH   1  19
ATOM     19  O   UNL     1       0.133   2.772   0.705  0.00  0.00    -0.451 OA
BRANCH  19  20
ATOM     20  C   UNL     1      -0.632   3.444  -0.170  0.00  0.00    +0.326 C 
ATOM     21  O   UNL     1      -1.542   2.883  -0.733  0.00  0.00    -0.249 OA
BRANCH  20  23
ATOM     22  C   UNL     1      -0.486   5.701   0.847  0.00  0.00    +0.037 C 
ATOM     23  C   UNL     1      -0.356   4.899  -0.450  0.00  0.00    +0.182 C 
BRANCH  23  24
ATOM     24  N   UNL     1      -1.322   5.399  -1.432  0.00  0.00    -0.176 NA
ATOM     25  H   UNL     1      -2.234   5.068  -1.427  0.00  0.00    +0.149 HD
BRANCH  24  26
ATOM     26  S   UNL     1      -0.857   6.529  -2.549  0.00  0.00    +0.059 S 
ATOM     27  O   UNL     1      -1.992   6.786  -3.364  0.00  0.00    -0.153 OA
ATOM     28  O   UNL     1      -0.184   7.556  -1.833  0.00  0.00    -0.153 OA
BRANCH  26  29
ATOM     29  C   UNL     1       0.347   5.769  -3.588  0.00  0.00    +0.105 A 
ATOM     30  C   UNL     1       1.688   5.846  -3.263  0.00  0.00    +0.031 A 
ATOM     31  C   UNL     1       2.632   5.247  -4.074  0.00  0.00    +0.040 A 
ATOM     32  C   UNL     1       2.235   4.578  -5.220  0.00  0.00    +0.124 A 
ATOM     33  C   UNL     1       0.892   4.506  -5.548  0.00  0.00    +0.040 A 
ATOM     34  C   UNL     1      -0.051   5.102  -4.732  0.00  0.00    +0.031 A 
ATOM     35  F   UNL     1       3.158   3.995  -6.016  0.00  0.00    -0.205 F 
ENDBRANCH  26  29
ENDBRANCH  24  26
ENDBRANCH  23  24
ENDBRANCH  20  23
ENDBRANCH  19  20
ENDBRANCH   1  19
TORSDOF 7
