REMARK  Name = ZINC15686453
REMARK  8 active torsions:
REMARK  status: ('A' for Active; 'I' for Inactive)
REMARK    1  A    between atoms: C_1  and  C_2
REMARK    2  A    between atoms: C_5  and  S_8
REMARK    3  A    between atoms: S_8  and  C_11
REMARK    4  A    between atoms: C_11  and  N_12
REMARK    5  A    between atoms: C_13  and  C_23
REMARK    6  A    between atoms: N_14  and  C_15
REMARK    7  A    between atoms: C_15  and  N_17
REMARK    8  A    between atoms: N_17  and  N_18
REMARK                            x       y       z     vdW  Elec       q    Type
REMARK                         _______ _______ _______ _____ _____    ______ ____
ROOT
ATOM      1  N   UNL     1       2.073  -4.423   1.016  0.00  0.00    -0.313 N 
ATOM      2  C   UNL     1       2.404  -4.935   2.241  0.00  0.00    +0.098 C 
ATOM      3  N   UNL     1       2.380  -6.240   2.440  0.00  0.00    -0.284 N 
ATOM      4  H   UNL     1       2.091  -3.465   0.870  0.00  0.00    +0.149 HD
ATOM      5  H   UNL     1       2.208  -6.841   1.697  0.00  0.00    +0.155 HD
ENDROOT
BRANCH   2   6
ATOM      6  C   UNL     1       2.790  -4.028   3.340  0.00  0.00    +0.011 A 
ATOM      7  C   UNL     1       3.851  -4.361   4.185  0.00  0.00    +0.011 A 
ATOM      8  C   UNL     1       4.206  -3.509   5.210  0.00  0.00    +0.001 A 
ATOM      9  C   UNL     1       3.513  -2.326   5.402  0.00  0.00    +0.000 A 
ATOM     10  C   UNL     1       2.461  -1.990   4.568  0.00  0.00    +0.001 A 
ATOM     11  C   UNL     1       2.099  -2.830   3.536  0.00  0.00    +0.011 A 
ENDBRANCH   2   6
BRANCH   3  12
ATOM     12  C   UNL     1       2.591  -6.736   3.669  0.00  0.00    +0.154 C 
ATOM     13  S   UNL     1       4.058  -7.544   4.025  0.00  0.00    -0.017 S 
BRANCH  12  14
ATOM     14  N   UNL     1       1.649  -6.598   4.623  0.00  0.00    -0.232 N 
ATOM     15  H   UNL     1       0.852  -6.075   4.444  0.00  0.00    +0.175 HD
BRANCH  14  16
ATOM     16  N   UNL     1       1.822  -7.209   5.872  0.00  0.00    -0.235 N 
ATOM     17  C   UNL     1       2.429  -8.393   6.122  0.00  0.00    +0.244 A 
ATOM     18  N   UNL     1       2.375  -8.593   7.411  0.00  0.00    -0.137 NA
ATOM     19  N   UNL     1       1.772  -7.608   7.976  0.00  0.00    -0.137 NA
ATOM     20  C   UNL     1       1.420  -6.732   7.074  0.00  0.00    +0.244 A 
ENDBRANCH  14  16
ENDBRANCH  12  14
ENDBRANCH   3  12
BRANCH   1  21
ATOM     21  C   UNL     1       1.690  -5.324  -0.074  0.00  0.00    +0.276 C 
BRANCH  21  22
ATOM     22  S   UNL     1      -0.117  -5.473  -0.130  0.00  0.00    +0.013 S 
ATOM     23  O   UNL     1      -0.628  -5.712   1.174  0.00  0.00    -0.168 OA
ATOM     24  O   UNL     1      -0.507  -6.293  -1.222  0.00  0.00    -0.168 OA
BRANCH  22  29
ATOM     25  C   UNL     1      -2.089   0.045  -1.567  0.00  0.00    +0.044 C 
ATOM     26  C   UNL     1      -1.596  -1.333  -1.208  0.00  0.00    -0.050 A 
ATOM     27  C   UNL     1      -1.310  -2.246  -2.205  0.00  0.00    +0.005 A 
ATOM     28  C   UNL     1      -0.858  -3.510  -1.876  0.00  0.00    +0.027 A 
ATOM     29  C   UNL     1      -0.692  -3.861  -0.549  0.00  0.00    +0.090 A 
ATOM     30  C   UNL     1      -0.976  -2.947   0.448  0.00  0.00    +0.027 A 
ATOM     31  C   UNL     1      -1.424  -1.682   0.119  0.00  0.00    +0.005 A 
ENDBRANCH  22  29
ENDBRANCH  21  22
ENDBRANCH   1  21
TORSDOF 7
