REMARK  Name = ZINC39664460
REMARK  10 active torsions:
REMARK  status: ('A' for Active; 'I' for Inactive)
REMARK    1  A    between atoms: C_1  and  C_2
REMARK    2  A    between atoms: C_2  and  C_3
REMARK    3  A    between atoms: C_3  and  C_5
REMARK    4  A    between atoms: C_3  and  C_6
REMARK    5  A    between atoms: C_6  and  C_7
REMARK    6  A    between atoms: C_11  and  C_20
REMARK    7  A    between atoms: N_22  and  C_23
REMARK    8  A    between atoms: C_23  and  C_24
REMARK    9  A    between atoms: C_24  and  C_26
REMARK   10  A    between atoms: C_24  and  N_32
REMARK                            x       y       z     vdW  Elec       q    Type
REMARK                         _______ _______ _______ _____ _____    ______ ____
ROOT
ATOM      1  C   UNL     1       2.606  -2.986  -4.293  0.00  0.00    +0.216 C 
ATOM      2  O   UNL     1       2.915  -2.415  -5.317  0.00  0.00    -0.276 OA
ATOM      3  N   UNL     1       2.627  -4.332  -4.240  0.00  0.00    -0.300 N 
ATOM      4  C   UNL     1       2.280  -5.202  -3.091  0.00  0.00    +0.121 C 
ATOM      5  C   UNL     1       1.521  -6.393  -3.718  0.00  0.00    +0.100 C 
ATOM      6  C   UNL     1       2.002  -6.439  -5.178  0.00  0.00    -0.004 C 
ATOM      7  C   UNL     1       2.997  -5.279  -5.320  0.00  0.00    +0.115 C 
ATOM      8  C   UNL     1       0.825  -6.236  -6.128  0.00  0.00    -0.010 C 
ATOM      9  C   UNL     1       1.318  -6.343  -7.574  0.00  0.00    -0.082 C 
ATOM     10  N   UNL     1       1.924  -7.662  -7.789  0.00  0.00    +0.379 N 
ATOM     11  C   UNL     1       3.110  -7.814  -6.938  0.00  0.00    -0.082 C 
ATOM     12  C   UNL     1       2.693  -7.768  -5.465  0.00  0.00    -0.010 C 
ATOM     13  H   UNL     1       1.254  -8.380  -7.560  0.00  0.00    -0.086 HD
ATOM     14  H   UNL     1       2.193  -7.753  -8.758  0.00  0.00    -0.086 HD
ENDROOT
BRANCH   5  15
ATOM     15  C   UNL     1       1.875  -7.673  -3.006  0.00  0.00    +0.218 C 
ATOM     16  O   UNL     1       2.981  -7.817  -2.531  0.00  0.00    -0.275 OA
ATOM     17  N   UNL     1       0.961  -8.658  -2.897  0.00  0.00    -0.313 N 
ATOM     18  H   UNL     1       0.076  -8.543  -3.277  0.00  0.00    +0.149 HD
BRANCH  17  19
ATOM     19  C   UNL     1       1.304  -9.903  -2.205  0.00  0.00    +0.127 C 
BRANCH  19  20
ATOM     20  C   UNL     1       0.099 -10.845  -2.224  0.00  0.00    +0.104 C 
BRANCH  20  21
ATOM     21  C   UNL     1       0.410 -12.074  -1.407  0.00  0.00    -0.029 A 
ATOM     22  C   UNL     1       0.171 -13.330  -1.931  0.00  0.00    +0.005 A 
ATOM     23  C   UNL     1       0.456 -14.457  -1.183  0.00  0.00    +0.000 A 
ATOM     24  C   UNL     1       0.981 -14.327   0.089  0.00  0.00    +0.000 A 
ATOM     25  C   UNL     1       1.220 -13.070   0.613  0.00  0.00    +0.000 A 
ATOM     26  C   UNL     1       0.939 -11.944  -0.137  0.00  0.00    +0.005 A 
ENDBRANCH  20  21
BRANCH  20  27
ATOM     27  N   UNL     1      -1.067 -10.160  -1.652  0.00  0.00    -0.290 NA
ATOM     28  C   UNL     1      -0.834  -9.807  -0.244  0.00  0.00    +0.113 C 
ATOM     29  C   UNL     1      -2.047  -9.044   0.294  0.00  0.00    +0.175 C 
ATOM     30  O   UNL     1      -3.220  -9.844   0.124  0.00  0.00    -0.377 OA
ATOM     31  C   UNL     1      -3.479 -10.206  -1.236  0.00  0.00    +0.175 C 
ATOM     32  C   UNL     1      -2.280 -10.980  -1.789  0.00  0.00    +0.113 C 
ENDBRANCH  20  27
ENDBRANCH  19  20
ENDBRANCH  17  19
ENDBRANCH   5  15
BRANCH   1  33
ATOM     33  C   UNL     1       2.198  -2.190  -3.080  0.00  0.00    +0.099 C 
BRANCH  33  34
ATOM     34  C   UNL     1       2.259  -0.697  -3.406  0.00  0.00    -0.006 C 
ATOM     35  C   UNL     1       1.218  -0.365  -4.477  0.00  0.00    +0.008 C 
BRANCH  34  37
ATOM     36  C   UNL     1       2.150   1.604  -2.437  0.00  0.00    +0.004 C 
ATOM     37  C   UNL     1       1.966   0.114  -2.141  0.00  0.00    +0.000 C 
ENDBRANCH  34  37
ENDBRANCH  33  34
ENDBRANCH   1  33
TORSDOF 8
