REMARK  Name = ZINC50638779
REMARK  4 active torsions:
REMARK  status: ('A' for Active; 'I' for Inactive)
REMARK    1  A    between atoms: C_3  and  N_20
REMARK    2  A    between atoms: C_4  and  S_10
REMARK    3  A    between atoms: C_6  and  N_7
REMARK    4  A    between atoms: S_10  and  N_13
REMARK                            x       y       z     vdW  Elec       q    Type
REMARK                         _______ _______ _______ _____ _____    ______ ____
ROOT
ATOM      1  C   UNL     1      -0.051   1.275   0.039  0.00  0.00    +0.034 A 
ATOM      2  C   UNL     1       1.121   2.000   0.136  0.00  0.00    +0.027 A 
ATOM      3  C   UNL     1       2.345   1.348   0.077  0.00  0.00    +0.051 A 
ATOM      4  C   UNL     1       2.387  -0.032  -0.080  0.00  0.00    +0.128 A 
ATOM      5  C   UNL     1       1.212  -0.750  -0.176  0.00  0.00    +0.063 A 
ATOM      6  C   UNL     1      -0.006  -0.098  -0.117  0.00  0.00    +0.128 A 
ENDROOT
BRANCH   6   7
ATOM      7  N   UNL     1      -1.264  -0.871  -0.221  0.00  0.00    +0.056 N 
ATOM      8  O   UNL     1      -2.329  -0.302  -0.169  0.00  0.00    -0.126 OA
ATOM      9  O   UNL     1      -1.226  -2.072  -0.357  0.00  0.00    -0.126 OA
ENDBRANCH   6   7
BRANCH   4  10
ATOM     10  S   UNL     1       3.939  -0.864  -0.156  0.00  0.00    +0.063 S 
ATOM     11  O   UNL     1       4.718  -0.370   0.924  0.00  0.00    -0.153 OA
ATOM     12  O   UNL     1       3.651  -2.246  -0.318  0.00  0.00    -0.153 OA
BRANCH  10  13
ATOM     13  N   UNL     1       4.691  -0.372  -1.547  0.00  0.00    -0.177 NA
ATOM     14  C   UNL     1       4.349  -1.027  -2.789  0.00  0.00    +0.109 C 
ATOM     15  C   UNL     1       5.272  -2.252  -3.001  0.00  0.00    +0.017 C 
ATOM     16  C   UNL     1       6.638  -1.813  -3.323  0.00  0.00    +0.001 C 
ATOM     17  C   UNL     1       7.319  -1.014  -2.215  0.00  0.00    +0.001 C 
ATOM     18  C   UNL     1       6.925   0.437  -2.331  0.00  0.00    +0.017 C 
ATOM     19  C   UNL     1       5.678   0.723  -1.468  0.00  0.00    +0.109 C 
ENDBRANCH  10  13
ENDBRANCH   4  10
BRANCH   3  20
ATOM     20  N   UNL     1       3.532   2.078   0.174  0.00  0.00    -0.356 N 
ATOM     21  H   UNL     1       3.507   3.047   0.177  0.00  0.00    +0.142 HD
ATOM     22  H   UNL     1       4.382   1.615   0.239  0.00  0.00    +0.142 HD
ENDBRANCH   3  20
TORSDOF 4
