REMARK  Name = ZINC39359019
REMARK  6 active torsions:
REMARK  status: ('A' for Active; 'I' for Inactive)
REMARK    1  A    between atoms: C_1  and  C_2
REMARK    2  A    between atoms: C_2  and  C_27
REMARK    3  A    between atoms: C_6  and  C_16
REMARK    4  A    between atoms: C_9  and  O_15
REMARK    5  A    between atoms: C_19  and  O_23
REMARK    6  A    between atoms: C_20  and  O_22
REMARK                            x       y       z     vdW  Elec       q    Type
REMARK                         _______ _______ _______ _____ _____    ______ ____
ROOT
ATOM      1  C   UNL     1      -0.019   1.526   0.010  0.00  0.00    +0.011 C 
ATOM      2  C   UNL     1       0.002  -0.004   0.002  0.00  0.00    -0.023 C 
ATOM      3  C   UNL     1       0.742  -0.503  -1.240  0.00  0.00    +0.057 C 
ATOM      4  C   UNL     1       2.168   0.009  -1.225  0.00  0.00    +0.014 C 
ATOM      5  C   UNL     1       2.811   0.187  -0.051  0.00  0.00    +0.023 C 
ATOM      6  C   UNL     1       4.253   0.667   0.021  0.00  0.00    +0.089 C 
ATOM      7  C   UNL     1       4.633   1.117  -1.358  0.00  0.00    +0.048 C 
ATOM      8  C   UNL     1       5.321   2.129  -1.840  0.00  0.00    +0.235 C 
ATOM      9  N   UNL     1       5.252   2.139  -3.199  0.00  0.00    -0.114 NA
ATOM     10  N   UNL     1       4.614   1.196  -3.686  0.00  0.00    -0.157 NA
ATOM     11  C   UNL     1       4.178   0.330  -2.590  0.00  0.00    +0.245 C 
ATOM     12  N   UNL     1       2.721   0.271  -2.454  0.00  0.00    -0.321 N 
ATOM     13  C   UNL     1       2.172  -0.057   1.176  0.00  0.00    +0.162 C 
ATOM     14  O   UNL     1       2.790   0.108   2.210  0.00  0.00    -0.292 OA
ATOM     15  C   UNL     1       0.742  -0.517   1.242  0.00  0.00    +0.086 C 
ATOM     16  C   UNL     1      -1.431  -0.539  -0.001  0.00  0.00    +0.011 C 
ATOM     17  H   UNL     1       2.151   0.416  -3.225  0.00  0.00    +0.148 HD
ENDROOT
BRANCH   6  18
ATOM     18  C   UNL     1       4.364   1.817   0.989  0.00  0.00    -0.032 A 
ATOM     19  C   UNL     1       3.639   2.974   0.772  0.00  0.00    +0.008 A 
ATOM     20  C   UNL     1       3.739   4.032   1.657  0.00  0.00    +0.049 A 
ATOM     21  C   UNL     1       4.566   3.933   2.764  0.00  0.00    +0.158 A 
ATOM     22  C   UNL     1       5.295   2.768   2.983  0.00  0.00    +0.159 A 
ATOM     23  C   UNL     1       5.187   1.710   2.094  0.00  0.00    +0.053 A 
BRANCH  22  24
ATOM     24  O   UNL     1       6.108   2.667   4.068  0.00  0.00    -0.503 OA
ATOM     25  H   UNL     1       5.673   2.306   4.853  0.00  0.00    +0.292 HD
ENDBRANCH  22  24
BRANCH  21  26
ATOM     26  O   UNL     1       4.665   4.973   3.635  0.00  0.00    -0.503 OA
ATOM     27  H   UNL     1       4.023   4.942   4.358  0.00  0.00    +0.292 HD
ENDBRANCH  21  26
ENDBRANCH   6  18
BRANCH   8  28
ATOM     28  O   UNL     1       6.003   3.034  -1.089  0.00  0.00    -0.491 OA
ATOM     29  H   UNL     1       6.455   3.714  -1.608  0.00  0.00    +0.294 HD
ENDBRANCH   8  28
TORSDOF 4
