REMARK  Name = ZINC37773671
REMARK  6 active torsions:
REMARK  status: ('A' for Active; 'I' for Inactive)
REMARK    1  A    between atoms: C_1  and  C_2
REMARK    2  A    between atoms: C_2  and  N_3
REMARK    3  A    between atoms: C_5  and  N_10
REMARK    4  A    between atoms: N_10  and  C_11
REMARK    5  A    between atoms: C_11  and  C_12
REMARK    6  A    between atoms: C_17  and  O_18
REMARK                            x       y       z     vdW  Elec       q    Type
REMARK                         _______ _______ _______ _____ _____    ______ ____
ROOT
ATOM      1  N   UNL     1      -3.899  -1.453   2.463  0.00  0.00    -0.338 N 
ATOM      2  H   UNL     1      -3.425  -1.282   3.292  0.00  0.00    +0.146 HD
ENDROOT
BRANCH   1   5
ATOM      3  N   UNL     1      -1.372  -0.511   0.012  0.00  0.00    -0.314 N 
ATOM      4  C   UNL     1      -1.994  -0.745   1.200  0.00  0.00    +0.112 A 
ATOM      5  C   UNL     1      -3.268  -1.215   1.233  0.00  0.00    +0.044 A 
ATOM      6  C   UNL     1      -3.953  -1.463   0.030  0.00  0.00    +0.029 A 
ATOM      7  C   UNL     1      -3.324  -1.226  -1.157  0.00  0.00    +0.072 A 
ATOM      8  C   UNL     1      -2.008  -0.735  -1.153  0.00  0.00    +0.251 A 
ATOM      9  O   UNL     1      -1.437  -0.515  -2.210  0.00  0.00    -0.268 OA
BRANCH   3  11
ATOM     10  C   UNL     1      -0.019   1.526   0.010  0.00  0.00    +0.027 C 
ATOM     11  C   UNL     1       0.002  -0.004   0.002  0.00  0.00    +0.121 C 
ENDBRANCH   3  11
ENDBRANCH   1   5
BRANCH   1  12
ATOM     12  C   UNL     1      -5.273  -1.960   2.496  0.00  0.00    +0.140 C 
BRANCH  12  13
ATOM     13  C   UNL     1      -5.712  -2.128   3.928  0.00  0.00    +0.014 A 
ATOM     14  C   UNL     1      -5.686  -3.378   4.517  0.00  0.00    +0.028 A 
ATOM     15  C   UNL     1      -6.089  -3.534   5.831  0.00  0.00    +0.043 A 
ATOM     16  C   UNL     1      -6.520  -2.438   6.559  0.00  0.00    +0.043 A 
ATOM     17  C   UNL     1      -6.548  -1.187   5.974  0.00  0.00    +0.084 A 
ATOM     18  C   UNL     1      -6.137  -1.028   4.657  0.00  0.00    +0.140 A 
ATOM     19 CL   UNL     1      -7.089   0.187   6.886  0.00  0.00    -0.080 Cl
ATOM     20 CL   UNL     1      -6.055  -5.105   6.568  0.00  0.00    -0.083 Cl
BRANCH  18  21
ATOM     21  O   UNL     1      -6.159   0.203   4.080  0.00  0.00    -0.505 OA
ATOM     22  H   UNL     1      -6.994   0.418   3.643  0.00  0.00    +0.292 HD
ENDBRANCH  18  21
ENDBRANCH  12  13
ENDBRANCH   1  12
TORSDOF 5
