REMARK  Name = ZINC07204497
REMARK  10 active torsions:
REMARK  status: ('A' for Active; 'I' for Inactive)
REMARK    1  A    between atoms: C_1  and  C_2
REMARK    2  A    between atoms: C_2  and  C_4
REMARK    3  A    between atoms: C_2  and  S_11
REMARK    4  A    between atoms: N_6  and  C_7
REMARK    5  A    between atoms: C_7  and  C_8
REMARK    6  A    between atoms: C_8  and  C_9
REMARK    7  A    between atoms: C_8  and  C_10
REMARK    8  A    between atoms: S_11  and  C_12
REMARK    9  A    between atoms: C_15  and  C_19
REMARK   10  A    between atoms: C_16  and  N_18
REMARK                            x       y       z     vdW  Elec       q    Type
REMARK                         _______ _______ _______ _____ _____    ______ ____
ROOT
ATOM      1  S   UNL     1       0.851  -0.589  -1.490  0.00  0.00    -0.074 S 
ENDROOT
BRANCH   1   2
ATOM      2  C   UNL     1       2.509  -0.029  -1.285  0.00  0.00    +0.191 A 
ATOM      3  N   UNL     1       2.828   0.650  -0.189  0.00  0.00    -0.229 NA
ATOM      4  C   UNL     1       4.057   1.089   0.008  0.00  0.00    +0.136 A 
ATOM      5  C   UNL     1       5.035   0.832  -0.960  0.00  0.00    +0.109 A 
ATOM      6  C   UNL     1       4.658   0.108  -2.112  0.00  0.00    +0.138 A 
ATOM      7  N   UNL     1       3.401  -0.302  -2.227  0.00  0.00    -0.206 NA
BRANCH   6   8
ATOM      8  N   UNL     1       5.582  -0.173  -3.098  0.00  0.00    -0.342 N 
ATOM      9  H   UNL     1       6.499   0.128  -3.003  0.00  0.00    +0.144 HD
ATOM     10  H   UNL     1       5.314  -0.671  -3.886  0.00  0.00    +0.144 HD
ENDBRANCH   6   8
BRANCH   5  11
ATOM     11  C   UNL     1       6.380   1.291  -0.786  0.00  0.00    +0.104 C 
ATOM     12  N   UNL     1       7.447   1.656  -0.649  0.00  0.00    -0.191 NA
ENDBRANCH   5  11
ENDBRANCH   1   2
BRANCH   1  14
ATOM     13  C   UNL     1      -0.019   1.526   0.010  0.00  0.00    +0.029 C 
ATOM     14  C   UNL     1       0.002  -0.004   0.002  0.00  0.00    +0.137 C 
BRANCH  14  15
ATOM     15  C   UNL     1      -1.412  -0.526   0.013  0.00  0.00    +0.226 C 
ATOM     16  O   UNL     1      -1.927  -0.901  -1.019  0.00  0.00    -0.275 OA
ATOM     17  N   UNL     1      -2.103  -0.575   1.169  0.00  0.00    -0.314 N 
ATOM     18  H   UNL     1      -1.691  -0.275   1.994  0.00  0.00    +0.149 HD
BRANCH  17  19
ATOM     19  C   UNL     1      -3.478  -1.082   1.179  0.00  0.00    +0.107 C 
BRANCH  19  20
ATOM     20  C   UNL     1      -4.029  -1.031   2.605  0.00  0.00    -0.000 C 
ATOM     21  C   UNL     1      -4.132   0.426   3.061  0.00  0.00    +0.009 C 
ATOM     22  C   UNL     1      -5.417  -1.675   2.639  0.00  0.00    +0.009 C 
ENDBRANCH  19  20
ENDBRANCH  17  19
ENDBRANCH  14  15
ENDBRANCH   1  14
TORSDOF 7
