REMARK  Name = ZINC09311838
REMARK  7 active torsions:
REMARK  status: ('A' for Active; 'I' for Inactive)
REMARK    1  A    between atoms: C_4  and  N_7
REMARK    2  A    between atoms: N_9  and  C_28
REMARK    3  A    between atoms: C_13  and  C_14
REMARK    4  A    between atoms: N_16  and  C_23
REMARK    5  A    between atoms: C_23  and  C_24
REMARK    6  A    between atoms: C_28  and  C_29
REMARK    7  A    between atoms: C_29  and  C_30
REMARK                            x       y       z     vdW  Elec       q    Type
REMARK                         _______ _______ _______ _____ _____    ______ ____
ROOT
ATOM      1  N   UNL     1       3.989  -0.180   0.593  0.00  0.00    -0.225 NA
ATOM      2  C   UNL     1       4.085  -1.322   1.238  0.00  0.00    +0.168 C 
ATOM      3  N   UNL     1       5.152  -2.195   1.299  0.00  0.00    -0.246 N 
ATOM      4  C   UNL     1       5.059  -3.307   2.008  0.00  0.00    +0.259 C 
ATOM      5  O   UNL     1       5.993  -4.086   2.071  0.00  0.00    -0.269 OA
ATOM      6  C   UNL     1       3.839  -3.571   2.698  0.00  0.00    +0.078 C 
ATOM      7  C   UNL     1       3.505  -4.632   3.482  0.00  0.00    +0.030 C 
ATOM      8  S   UNL     1       2.869  -2.134   2.265  0.00  0.00    -0.049 S 
ENDROOT
BRANCH   7   9
ATOM      9  C   UNL     1       2.251  -4.618   4.237  0.00  0.00    +0.001 A 
ATOM     10  C   UNL     1       1.190  -3.778   4.045  0.00  0.00    +0.095 A 
ATOM     11  N   UNL     1       0.209  -4.070   4.938  0.00  0.00    -0.335 N 
ATOM     12  C   UNL     1       0.594  -5.116   5.751  0.00  0.00    +0.050 A 
ATOM     13  C   UNL     1       1.880  -5.512   5.351  0.00  0.00    +0.007 A 
ATOM     14  C   UNL     1       2.522  -6.563   6.001  0.00  0.00    +0.010 A 
ATOM     15  C   UNL     1       1.887  -7.214   7.036  0.00  0.00    +0.001 A 
ATOM     16  C   UNL     1       0.614  -6.827   7.430  0.00  0.00    +0.002 A 
ATOM     17  C   UNL     1      -0.029  -5.783   6.801  0.00  0.00    +0.026 A 
BRANCH  11  18
ATOM     18  C   UNL     1      -1.076  -3.371   5.026  0.00  0.00    +0.246 C 
BRANCH  18  19
ATOM     19  C   UNL     1      -0.987  -2.286   6.068  0.00  0.00    +0.375 C 
ATOM     20  O   UNL     1       0.053  -2.112   6.680  0.00  0.00    -0.244 OA
ATOM     21  O   UNL     1      -1.955  -1.582   6.299  0.00  0.00    -0.244 OA
ENDBRANCH  18  19
ENDBRANCH  11  18
ENDBRANCH   7   9
BRANCH   1  25
ATOM     22  C   UNL     1       0.497   2.030   0.805  0.00  0.00    +0.000 A 
ATOM     23  C   UNL     1       1.721   2.661   0.944  0.00  0.00    +0.002 A 
ATOM     24  C   UNL     1       2.889   1.931   0.875  0.00  0.00    +0.028 A 
ATOM     25  C   UNL     1       2.834   0.551   0.664  0.00  0.00    +0.067 A 
ATOM     26  C   UNL     1       1.595  -0.079   0.524  0.00  0.00    +0.028 A 
ATOM     27  C   UNL     1       0.436   0.664   0.596  0.00  0.00    +0.002 A 
ENDBRANCH   1  25
BRANCH   3  28
ATOM     28  C   UNL     1       6.389  -1.889   0.577  0.00  0.00    +0.120 C 
BRANCH  28  29
ATOM     29  C   UNL     1       7.324  -1.086   1.483  0.00  0.00    +0.056 C 
BRANCH  29  30
ATOM     30  C   UNL     1       8.596  -0.772   0.740  0.00  0.00    -0.021 A 
ATOM     31  C   UNL     1       9.738  -1.477   0.777  0.00  0.00    +0.087 A 
ATOM     32  N   UNL     1      10.676  -0.888  -0.026  0.00  0.00    -0.360 N 
ATOM     33  H   UNL     1      11.579  -1.216  -0.161  0.00  0.00    +0.165 HD
ATOM     34  C   UNL     1      10.148   0.239  -0.615  0.00  0.00    +0.047 A 
ATOM     35  C   UNL     1       8.820   0.358  -0.166  0.00  0.00    +0.003 A 
ATOM     36  C   UNL     1       8.027   1.419  -0.608  0.00  0.00    +0.010 A 
ATOM     37  C   UNL     1       8.546   2.336  -1.479  0.00  0.00    +0.001 A 
ATOM     38  C   UNL     1       9.854   2.220  -1.928  0.00  0.00    +0.002 A 
ATOM     39  C   UNL     1      10.657   1.187  -1.497  0.00  0.00    +0.026 A 
ENDBRANCH  29  30
ENDBRANCH  28  29
ENDBRANCH   3  28
TORSDOF 7
