REMARK  Name = ZINC49350792
REMARK  5 active torsions:
REMARK  status: ('A' for Active; 'I' for Inactive)
REMARK    1  A    between atoms: C_1  and  C_2
REMARK    2  A    between atoms: C_5  and  C_7
REMARK    3  A    between atoms: C_8  and  C_14
REMARK    4  A    between atoms: C_9  and  N_13
REMARK    5  A    between atoms: N_10  and  C_12
REMARK                            x       y       z     vdW  Elec       q    Type
REMARK                         _______ _______ _______ _____ _____    ______ ____
ROOT
ATOM      1  C   UNL     1       1.666  -3.225  -0.024  0.00  0.00    +0.137 A 
ATOM      2  C   UNL     1       2.921  -3.284  -0.684  0.00  0.00    +0.052 A 
ATOM      3  C   UNL     1       3.453  -4.536  -0.440  0.00  0.00    +0.123 A 
ATOM      4  N   UNL     1       2.565  -5.211   0.334  0.00  0.00    -0.253 N 
ATOM      5  N   UNL     1       1.470  -4.376   0.583  0.00  0.00    -0.166 NA
ATOM      6  C   UNL     1       2.728  -6.580   0.829  0.00  0.00    +0.174 C 
ENDROOT
BRANCH   2   7
ATOM      7  C   UNL     1       3.544  -2.206  -1.486  0.00  0.00    -0.007 A 
ATOM      8  C   UNL     1       2.943  -1.776  -2.669  0.00  0.00    +0.047 A 
ATOM      9  C   UNL     1       3.528  -0.770  -3.413  0.00  0.00    +0.127 A 
ATOM     10  C   UNL     1       4.710  -0.188  -2.987  0.00  0.00    +0.076 A 
ATOM     11  C   UNL     1       5.312  -0.611  -1.813  0.00  0.00    +0.127 A 
ATOM     12  C   UNL     1       4.731  -1.612  -1.058  0.00  0.00    +0.047 A 
ATOM     13  F   UNL     1       6.465  -0.039  -1.403  0.00  0.00    -0.205 F 
ATOM     14  F   UNL     1       2.946  -0.353  -4.559  0.00  0.00    -0.205 F 
ENDBRANCH   2   7
BRANCH   1  19
ATOM     15  C   UNL     1      -0.018   1.503   0.010  0.00  0.00    +0.086 C 
ATOM     16  C   UNL     1       0.002  -0.004   0.002  0.00  0.00    +0.103 A 
ATOM     17  C   UNL     1      -1.082  -0.804   0.003  0.00  0.00    +0.045 A 
ATOM     18  C   UNL     1      -0.614  -2.134  -0.007  0.00  0.00    +0.052 A 
ATOM     19  C   UNL     1       0.745  -2.070  -0.013  0.00  0.00    +0.156 A 
ATOM     20  O   UNL     1       1.104  -0.772  -0.013  0.00  0.00    -0.458 OA
ENDBRANCH   1  19
BRANCH   3  21
ATOM     21  N   UNL     1       4.671  -5.016  -0.901  0.00  0.00    -0.343 N 
ATOM     22  H   UNL     1       5.237  -4.452  -1.452  0.00  0.00    +0.144 HD
ATOM     23  H   UNL     1       4.957  -5.914  -0.673  0.00  0.00    +0.144 HD
ENDBRANCH   3  21
TORSDOF 3
