REMARK  Name = ZINC17025395
REMARK  2 active torsions:
REMARK  status: ('A' for Active; 'I' for Inactive)
REMARK    1  A    between atoms: C_4  and  C_7
REMARK    2  A    between atoms: N_13  and  C_14
REMARK                            x       y       z     vdW  Elec       q    Type
REMARK                         _______ _______ _______ _____ _____    ______ ____
ROOT
ATOM      1  C   UNL     1       3.410  -0.686   0.013  0.00  0.00    +0.208 C 
ATOM      2  N   UNL     1       4.468   0.254   0.402  0.00  0.00    -0.335 N 
ATOM      3  C   UNL     1       5.024   0.170   1.581  0.00  0.00    +0.191 C 
ATOM      4  N   UNL     1       4.691  -0.791   2.460  0.00  0.00    -0.187 NA
ATOM      5  C   UNL     1       3.977  -1.836   2.084  0.00  0.00    +0.189 C 
ATOM      6  N   UNL     1       3.602  -1.937   0.763  0.00  0.00    -0.247 N 
ATOM      7  N   UNL     1       3.618  -2.798   2.986  0.00  0.00    -0.331 N 
ATOM      8  N   UNL     1       5.985   1.096   1.935  0.00  0.00    -0.329 N 
ATOM      9  H   UNL     1       3.888  -2.718   3.914  0.00  0.00    +0.145 HD
ATOM     10  H   UNL     1       3.094  -3.562   2.698  0.00  0.00    +0.145 HD
ATOM     11  H   UNL     1       6.237   1.795   1.313  0.00  0.00    +0.145 HD
ATOM     12  H   UNL     1       6.408   1.047   2.807  0.00  0.00    +0.145 HD
ATOM     13  H   UNL     1       4.756   0.940  -0.219  0.00  0.00    +0.164 HD
ENDROOT
BRANCH   6  14
ATOM     14  C   UNL     1       3.411  -3.183   0.155  0.00  0.00    +0.057 A 
ATOM     15  C   UNL     1       2.236  -3.889   0.371  0.00  0.00    +0.025 A 
ATOM     16  C   UNL     1       2.050  -5.118  -0.231  0.00  0.00    +0.002 A 
ATOM     17  C   UNL     1       3.033  -5.646  -1.048  0.00  0.00    +0.002 A 
ATOM     18  C   UNL     1       4.205  -4.946  -1.265  0.00  0.00    +0.022 A 
ATOM     19  C   UNL     1       4.396  -3.713  -0.670  0.00  0.00    +0.062 A 
ATOM     20 CL   UNL     1       5.865  -2.831  -0.949  0.00  0.00    -0.082 Cl
ENDBRANCH   6  14
BRANCH   1  24
ATOM     21  C   UNL     1      -0.411   0.981   0.947  0.00  0.00    +0.000 A 
ATOM     22  C   UNL     1       0.677   1.812   0.755  0.00  0.00    +0.000 A 
ATOM     23  C   UNL     1       1.914   1.272   0.452  0.00  0.00    +0.007 A 
ATOM     24  C   UNL     1       2.062  -0.098   0.344  0.00  0.00    -0.007 A 
ATOM     25  C   UNL     1       0.974  -0.928   0.537  0.00  0.00    +0.007 A 
ATOM     26  C   UNL     1      -0.262  -0.389   0.838  0.00  0.00    +0.000 A 
ENDBRANCH   1  24
TORSDOF 2
