REMARK  Name = ZINC22020516
REMARK  5 active torsions:
REMARK  status: ('A' for Active; 'I' for Inactive)
REMARK    1  A    between atoms: C_1  and  C_2
REMARK    2  A    between atoms: C_5  and  C_8
REMARK    3  A    between atoms: C_8  and  N_9
REMARK    4  A    between atoms: C_10  and  C_12
REMARK    5  A    between atoms: C_14  and  C_24
REMARK                            x       y       z     vdW  Elec       q    Type
REMARK                         _______ _______ _______ _____ _____    ______ ____
ROOT
ATOM      1  N   UNL     1       0.146  -0.488   1.424  0.00  0.00    -0.308 N 
ATOM      2  C   UNL     1       0.112  -1.815   1.659  0.00  0.00    +0.258 C 
ATOM      3  O   UNL     1       0.009  -2.592   0.734  0.00  0.00    -0.272 OA
ATOM      4  H   UNL     1       0.158   0.220   2.266  0.00  0.00    +0.149 HD
ENDROOT
BRANCH   2   5
ATOM      5  C   UNL     1       0.200  -2.332   3.072  0.00  0.00    +0.299 C 
ATOM      6  C   UNL     1      -1.123  -2.070   3.803  0.00  0.00    +0.220 C 
ATOM      7  O   UNL     1      -1.010  -2.585   5.134  0.00  0.00    -0.481 OA
ATOM      8  C   UNL     1      -0.481  -3.832   5.264  0.00  0.00    +0.163 A 
ATOM      9  C   UNL     1      -0.664  -4.528   6.450  0.00  0.00    +0.049 A 
ATOM     10  C   UNL     1      -0.127  -5.793   6.600  0.00  0.00    +0.004 A 
ATOM     11  C   UNL     1       0.594  -6.367   5.569  0.00  0.00    +0.004 A 
ATOM     12  C   UNL     1       0.779  -5.679   4.385  0.00  0.00    +0.049 A 
ATOM     13  C   UNL     1       0.242  -4.410   4.228  0.00  0.00    +0.163 A 
ATOM     14  O   UNL     1       0.430  -3.745   3.055  0.00  0.00    -0.472 OA
ATOM     15  C   UNL     1      -1.395  -0.565   3.853  0.00  0.00    +0.056 C 
ENDBRANCH   2   5
BRANCH   1  16
ATOM     16  C   UNL     1       0.169   0.011   0.047  0.00  0.00    +0.139 C 
BRANCH  16  21
ATOM     17  C   UNL     1       0.311   5.788   0.095  0.00  0.00    +0.044 C 
ATOM     18  C   UNL     1       0.274   4.282   0.083  0.00  0.00    -0.050 A 
ATOM     19  C   UNL     1       1.454   3.561   0.086  0.00  0.00    +0.003 A 
ATOM     20  C   UNL     1       1.420   2.179   0.074  0.00  0.00    +0.005 A 
ATOM     21  C   UNL     1       0.206   1.518   0.060  0.00  0.00    -0.030 A 
ATOM     22  C   UNL     1      -0.974   2.239   0.051  0.00  0.00    +0.005 A 
ATOM     23  C   UNL     1      -0.940   3.620   0.068  0.00  0.00    +0.003 A 
ENDBRANCH  16  21
ENDBRANCH   1  16
TORSDOF 3
