REMARK  Name = ZINC20726158
REMARK  4 active torsions:
REMARK  status: ('A' for Active; 'I' for Inactive)
REMARK    1  A    between atoms: C_9  and  O_23
REMARK    2  A    between atoms: N_15  and  C_16
REMARK    3  A    between atoms: N_26  and  C_27
REMARK    4  A    between atoms: C_27  and  C_28
REMARK                            x       y       z     vdW  Elec       q    Type
REMARK                         _______ _______ _______ _____ _____    ______ ____
ROOT
ATOM      1  C   UNL     1      -0.017   1.387   0.010  0.00  0.00    +0.000 A 
ATOM      2  C   UNL     1       1.151   2.121   0.003  0.00  0.00    +0.002 A 
ATOM      3  C   UNL     1       2.398   1.516  -0.013  0.00  0.00    +0.024 A 
ATOM      4  C   UNL     1       2.432   0.121  -0.020  0.00  0.00    +0.041 A 
ATOM      5  C   UNL     1       1.238  -0.613  -0.013  0.00  0.00    -0.006 A 
ATOM      6  C   UNL     1       0.002  -0.004   0.002  0.00  0.00    +0.007 A 
ATOM      7  C   UNL     1       1.636  -2.054  -0.023  0.00  0.00    +0.112 C 
ATOM      8  C   UNL     1       1.107  -2.768  -1.266  0.00  0.00    +0.121 C 
ATOM      9  C   UNL     1      -0.324  -3.190  -1.090  0.00  0.00    +0.191 C 
ATOM     10  N   UNL     1      -0.836  -3.536   0.054  0.00  0.00    -0.197 NA
ATOM     11  C   UNL     1      -0.068  -3.474   1.179  0.00  0.00    +0.164 A 
ATOM     12  C   UNL     1       1.133  -2.772   1.198  0.00  0.00    +0.036 A 
ATOM     13  C   UNL     1       1.672  -2.890   2.464  0.00  0.00    +0.142 A 
ATOM     14  N   UNL     1       0.856  -3.611   3.200  0.00  0.00    -0.172 NA
ATOM     15  N   UNL     1      -0.250  -3.983   2.418  0.00  0.00    -0.213 N 
ATOM     16  C   UNL     1       3.148  -2.030  -0.036  0.00  0.00    +0.236 C 
ATOM     17  O   UNL     1       3.885  -2.993  -0.046  0.00  0.00    -0.274 OA
ATOM     18  N   UNL     1       3.521  -0.732  -0.035  0.00  0.00    -0.261 N 
ENDROOT
BRANCH  15  19
ATOM     19  C   UNL     1      -1.345  -4.744   2.846  0.00  0.00    +0.086 A 
ATOM     20  C   UNL     1      -2.373  -5.044   1.961  0.00  0.00    +0.029 A 
ATOM     21  C   UNL     1      -3.451  -5.794   2.386  0.00  0.00    +0.002 A 
ATOM     22  C   UNL     1      -3.510  -6.248   3.691  0.00  0.00    +0.002 A 
ATOM     23  C   UNL     1      -2.489  -5.952   4.575  0.00  0.00    +0.022 A 
ATOM     24  C   UNL     1      -1.403  -5.206   4.155  0.00  0.00    +0.066 A 
ATOM     25 CL   UNL     1      -0.118  -4.842   5.263  0.00  0.00    -0.081 Cl
ENDBRANCH  15  19
BRANCH   9  26
ATOM     26  O   UNL     1      -1.121  -3.212  -2.178  0.00  0.00    -0.495 OA
ATOM     27  H   UNL     1      -2.028  -3.493  -1.995  0.00  0.00    +0.293 HD
ENDBRANCH   9  26
BRANCH  18  28
ATOM     28  C   UNL     1       4.915  -0.281  -0.048  0.00  0.00    +0.209 C 
BRANCH  28  29
ATOM     29  C   UNL     1       5.408  -0.131   1.368  0.00  0.00    +0.228 C 
ATOM     30  O   UNL     1       4.668  -0.377   2.297  0.00  0.00    -0.274 OA
ATOM     31  N   UNL     1       6.671   0.277   1.602  0.00  0.00    -0.328 N 
ATOM     32  H   UNL     1       7.263   0.473   0.859  0.00  0.00    +0.145 HD
ATOM     33  H   UNL     1       6.988   0.373   2.514  0.00  0.00    +0.145 HD
ENDBRANCH  28  29
ENDBRANCH  18  28
TORSDOF 4
