REMARK  Name = ZINC43383999
REMARK  3 active torsions:
REMARK  status: ('A' for Active; 'I' for Inactive)
REMARK    1  A    between atoms: C_1  and  C_2
REMARK    2  A    between atoms: N_7  and  C_8
REMARK    3  A    between atoms: N_10  and  C_11
REMARK                            x       y       z     vdW  Elec       q    Type
REMARK                         _______ _______ _______ _____ _____    ______ ____
ROOT
ATOM      1  C   UNL     1       0.256  -4.858  -0.027  0.00  0.00    +0.326 C 
ATOM      2  O   UNL     1      -0.952  -4.691  -0.021  0.00  0.00    -0.251 OA
ATOM      3  N   UNL     1       0.763  -6.107  -0.036  0.00  0.00    -0.291 N 
ATOM      4  H   UNL     1       1.724  -6.240  -0.041  0.00  0.00    +0.151 HD
ENDROOT
BRANCH   3   5
ATOM      5  C   UNL     1      -0.137  -7.263  -0.040  0.00  0.00    +0.107 C 
ATOM      6  C   UNL     1       0.579  -8.437   0.605  0.00  0.00    +0.038 C 
ATOM      7  C   UNL     1      -0.373  -9.641   0.653  0.00  0.00    +0.076 C 
ATOM      8  S   UNL     1      -0.547 -10.253  -1.049  0.00  0.00    -0.125 S 
ATOM      9  C   UNL     1      -0.795  -8.779  -1.987  0.00  0.00    +0.013 A 
ATOM     10  C   UNL     1      -0.575  -7.525  -1.450  0.00  0.00    -0.014 A 
ATOM     11  C   UNL     1      -0.775  -6.409  -2.258  0.00  0.00    +0.006 A 
ATOM     12  C   UNL     1      -1.190  -6.543  -3.566  0.00  0.00    +0.000 A 
ATOM     13  C   UNL     1      -1.415  -7.800  -4.096  0.00  0.00    +0.001 A 
ATOM     14  C   UNL     1      -1.221  -8.909  -3.309  0.00  0.00    +0.015 A 
ENDBRANCH   3   5
BRANCH   1  21
ATOM     15  C   UNL     1      -0.018   1.503   0.010  0.00  0.00    +0.053 C 
ATOM     16  C   UNL     1       0.002  -0.004   0.002  0.00  0.00    +0.006 A 
ATOM     17  C   UNL     1      -1.025  -0.859   0.002  0.00  0.00    +0.095 A 
ATOM     18  N   UNL     1      -0.732  -2.188  -0.007  0.00  0.00    -0.342 N 
ATOM     19  H   UNL     1      -1.440  -2.851  -0.008  0.00  0.00    +0.167 HD
ATOM     20  C   UNL     1       0.575  -2.571  -0.014  0.00  0.00    +0.165 A 
ATOM     21  N   UNL     1       1.076  -3.804  -0.024  0.00  0.00    -0.139 NA
ATOM     22  S   UNL     1       1.403  -1.107  -0.018  0.00  0.00    -0.058 S 
ENDBRANCH   1  21
TORSDOF 2
