REMARK  Name = ZINC11859241
REMARK  6 active torsions:
REMARK  status: ('A' for Active; 'I' for Inactive)
REMARK    1  A    between atoms: C_4  and  C_7
REMARK    2  A    between atoms: C_7  and  C_9
REMARK    3  A    between atoms: C_11  and  C_23
REMARK    4  A    between atoms: C_17  and  C_18
REMARK    5  A    between atoms: C_17  and  O_22
REMARK    6  A    between atoms: C_27  and  O_29
REMARK                            x       y       z     vdW  Elec       q    Type
REMARK                         _______ _______ _______ _____ _____    ______ ____
ROOT
ATOM      1  C   UNL     1       2.023  -3.045   0.200  0.00  0.00    +0.144 C 
ATOM      2  C   UNL     1       2.382  -4.282  -0.631  0.00  0.00    +0.120 C 
ATOM      3  N   UNL     1       1.870  -5.477   0.041  0.00  0.00    -0.292 N 
ATOM      4  C   UNL     1       1.736  -5.524   1.375  0.00  0.00    +0.302 C 
ATOM      5  O   UNL     1       1.317  -6.545   1.884  0.00  0.00    -0.253 OA
ATOM      6  N   UNL     1       2.046  -4.489   2.169  0.00  0.00    -0.264 N 
ATOM      7  C   UNL     1       2.568  -3.236   1.619  0.00  0.00    +0.243 C 
ATOM      8  H   UNL     1       1.623  -6.251  -0.489  0.00  0.00    +0.151 HD
ATOM      9  H   UNL     1       1.923  -4.572   3.128  0.00  0.00    +0.153 HD
ENDROOT
BRANCH   2  10
ATOM     10  C   UNL     1       1.759  -4.168  -1.999  0.00  0.00    -0.023 A 
ATOM     11  C   UNL     1       2.455  -3.557  -3.026  0.00  0.00    +0.006 A 
ATOM     12  C   UNL     1       1.886  -3.451  -4.282  0.00  0.00    +0.004 A 
ATOM     13  C   UNL     1       0.620  -3.954  -4.513  0.00  0.00    +0.045 A 
ATOM     14  C   UNL     1      -0.080  -4.568  -3.485  0.00  0.00    +0.117 A 
ATOM     15  C   UNL     1       0.495  -4.678  -2.227  0.00  0.00    +0.051 A 
BRANCH  14  16
ATOM     16  O   UNL     1      -1.325  -5.064  -3.709  0.00  0.00    -0.507 OA
ATOM     17  H   UNL     1      -1.334  -5.986  -4.000  0.00  0.00    +0.292 HD
ENDBRANCH  14  16
ENDBRANCH   2  10
BRANCH   7  18
ATOM     18  C   UNL     1       4.096  -3.294   1.577  0.00  0.00    +0.436 C 
ATOM     19  F   UNL     1       4.593  -2.099   1.044  0.00  0.00    -0.166 F 
ATOM     20  F   UNL     1       4.592  -3.468   2.873  0.00  0.00    -0.166 F 
ATOM     21  F   UNL     1       4.500  -4.366   0.774  0.00  0.00    -0.166 F 
ENDBRANCH   7  18
BRANCH   1  22
ATOM     22  C   UNL     1       0.525  -2.886   0.250  0.00  0.00    +0.173 C 
ATOM     23  O   UNL     1      -0.188  -3.867   0.277  0.00  0.00    -0.292 OA
BRANCH  22  27
ATOM     24  C   UNL     1      -1.197   0.990   0.299  0.00  0.00    +0.000 A 
ATOM     25  C   UNL     1      -2.014  -0.127   0.329  0.00  0.00    +0.001 A 
ATOM     26  C   UNL     1      -1.462  -1.390   0.313  0.00  0.00    +0.011 A 
ATOM     27  C   UNL     1      -0.072  -1.542   0.267  0.00  0.00    +0.018 A 
ATOM     28  C   UNL     1       0.747  -0.408   0.236  0.00  0.00    +0.011 A 
ATOM     29  C   UNL     1       0.179   0.848   0.253  0.00  0.00    +0.001 A 
ENDBRANCH  22  27
ENDBRANCH   1  22
BRANCH   7  30
ATOM     30  O   UNL     1       2.152  -2.144   2.441  0.00  0.00    -0.364 OA
ATOM     31  H   UNL     1       2.462  -2.200   3.356  0.00  0.00    +0.212 HD
ENDBRANCH   7  30
TORSDOF 6
