REMARK  Name = ZINC54751840
REMARK  7 active torsions:
REMARK  status: ('A' for Active; 'I' for Inactive)
REMARK    1  A    between atoms: C_4  and  N_6
REMARK    2  A    between atoms: C_7  and  C_9
REMARK    3  A    between atoms: C_9  and  C_10
REMARK    4  A    between atoms: C_10  and  N_11
REMARK    5  A    between atoms: N_14  and  N_15
REMARK    6  A    between atoms: C_16  and  C_18
REMARK    7  A    between atoms: C_18  and  C_19
REMARK                            x       y       z     vdW  Elec       q    Type
REMARK                         _______ _______ _______ _____ _____    ______ ____
ROOT
ATOM      1  N   UNL     1       0.381  -5.613  -3.847  0.00  0.00    -0.298 N 
ATOM      2  C   UNL     1       0.219  -6.948  -3.768  0.00  0.00    +0.316 C 
ATOM      3  O   UNL     1       0.253  -7.502  -2.686  0.00  0.00    -0.251 OA
ATOM      4  N   UNL     1       0.019  -7.670  -4.888  0.00  0.00    -0.218 N 
ATOM      5  H   UNL     1       0.354  -5.171  -4.710  0.00  0.00    +0.150 HD
ATOM      6  H   UNL     1      -0.097  -8.632  -4.831  0.00  0.00    +0.174 HD
ENDROOT
BRANCH   4   7
ATOM      7  N   UNL     1      -0.020  -7.032  -6.135  0.00  0.00    -0.233 N 
ATOM      8  C   UNL     1      -0.220  -7.755  -7.255  0.00  0.00    +0.230 C 
ATOM      9  O   UNL     1      -0.366  -8.957  -7.184  0.00  0.00    -0.274 OA
ATOM     10  H   UNL     1       0.097  -6.071  -6.192  0.00  0.00    +0.173 HD
BRANCH   8  11
ATOM     11  C   UNL     1      -0.262  -7.069  -8.596  0.00  0.00    +0.104 C 
BRANCH  11  12
ATOM     12  C   UNL     1      -0.500  -8.108  -9.694  0.00  0.00    -0.020 C 
ATOM     13  C   UNL     1       0.636  -9.133  -9.681  0.00  0.00    +0.011 C 
ATOM     14  C   UNL     1       0.398 -10.172 -10.778  0.00  0.00    -0.010 C 
ATOM     15  C   UNL     1       0.355  -9.475 -12.139  0.00  0.00    +0.007 C 
ATOM     16  C   UNL     1      -0.781  -8.451 -12.152  0.00  0.00    -0.010 C 
ATOM     17  C   UNL     1      -0.543  -7.411 -11.055  0.00  0.00    +0.011 C 
ATOM     18  C   UNL     1      -2.112  -9.162 -11.901  0.00  0.00    +0.007 C 
ATOM     19  C   UNL     1      -2.069  -9.858 -10.540  0.00  0.00    -0.010 C 
ATOM     20  C   UNL     1      -0.933 -10.883 -10.527  0.00  0.00    +0.007 C 
ATOM     21  C   UNL     1      -1.831  -8.819  -9.442  0.00  0.00    +0.011 C 
ENDBRANCH  11  12
ENDBRANCH   8  11
ENDBRANCH   4   7
BRANCH   1  22
ATOM     22  C   UNL     1       0.598  -4.828  -2.629  0.00  0.00    +0.115 C 
BRANCH  22  23
ATOM     23  C   UNL     1       0.751  -3.350  -2.995  0.00  0.00    +0.114 C 
BRANCH  23  25
ATOM     24  N   UNL     1       1.136  -1.207  -1.821  0.00  0.00    -0.312 N 
ATOM     25  C   UNL     1       0.974  -2.543  -1.742  0.00  0.00    +0.215 C 
ATOM     26  O   UNL     1       1.008  -3.095  -0.663  0.00  0.00    -0.276 OA
ATOM     27  H   UNL     1       1.109  -0.765  -2.685  0.00  0.00    +0.149 HD
BRANCH  24  31
ATOM     28  C   UNL     1      -0.019   1.538   0.011  0.00  0.00    +0.002 C 
ATOM     29  C   UNL     1       1.477   1.939  -0.002  0.00  0.00    +0.002 C 
ATOM     30  C   UNL     1       2.107   0.881  -0.942  0.00  0.00    +0.022 C 
ATOM     31  C   UNL     1       1.353  -0.422  -0.604  0.00  0.00    +0.073 C 
ATOM     32  C   UNL     1       0.002  -0.004   0.002  0.00  0.00    +0.022 C 
ENDBRANCH  24  31
ENDBRANCH  23  25
ENDBRANCH  22  23
ENDBRANCH   1  22
TORSDOF 7
