REMARK  Name = ZINC61148847
REMARK  6 active torsions:
REMARK  status: ('A' for Active; 'I' for Inactive)
REMARK    1  A    between atoms: C_2  and  C_13
REMARK    2  A    between atoms: C_5  and  N_10
REMARK    3  A    between atoms: C_6  and  N_7
REMARK    4  A    between atoms: N_10  and  N_11
REMARK    5  A    between atoms: N_15  and  C_16
REMARK    6  A    between atoms: C_16  and  C_17
REMARK                            x       y       z     vdW  Elec       q    Type
REMARK                         _______ _______ _______ _____ _____    ______ ____
ROOT
ATOM      1  C   UNL     1       0.236   1.495   0.202  0.00  0.00    +0.047 A 
ATOM      2  C   UNL     1       1.472   2.140   0.308  0.00  0.00    +0.040 A 
ATOM      3  C   UNL     1       2.640   1.387   0.452  0.00  0.00    +0.035 A 
ATOM      4  C   UNL     1       2.571   0.012   0.489  0.00  0.00    +0.066 A 
ATOM      5  C   UNL     1       1.338  -0.627   0.383  0.00  0.00    +0.090 A 
ATOM      6  C   UNL     1       0.173   0.121   0.239  0.00  0.00    +0.150 A 
ATOM      7 CL   UNL     1       4.022  -0.924   0.668  0.00  0.00    -0.081 Cl
ENDROOT
BRANCH   2   8
ATOM      8  C   UNL     1       1.542   3.614   0.268  0.00  0.00    +0.244 C 
ATOM      9  O   UNL     1       0.524   4.267   0.142  0.00  0.00    -0.270 OA
ATOM     10  N   UNL     1       2.733   4.234   0.370  0.00  0.00    -0.311 N 
ATOM     11  H   UNL     1       3.545   3.713   0.471  0.00  0.00    +0.149 HD
BRANCH  10  12
ATOM     12  C   UNL     1       2.803   5.697   0.330  0.00  0.00    +0.110 C 
BRANCH  12  13
ATOM     13  C   UNL     1       4.261   6.142   0.466  0.00  0.00    +0.034 C 
ATOM     14  C   UNL     1       4.378   7.688   0.371  0.00  0.00    +0.035 C 
ATOM     15  C   UNL     1       5.654   7.938   1.212  0.00  0.00    +0.160 C 
ATOM     16  O   UNL     1       5.594   6.980   2.280  0.00  0.00    -0.379 OA
ATOM     17  C   UNL     1       4.793   5.855   1.886  0.00  0.00    +0.165 C 
ENDBRANCH  12  13
ENDBRANCH  10  12
ENDBRANCH   2   8
BRANCH   6  18
ATOM     18  N   UNL     1      -1.135  -0.563   0.127  0.00  0.00    +0.058 N 
ATOM     19  O   UNL     1      -2.155   0.085   0.104  0.00  0.00    -0.126 OA
ATOM     20  O   UNL     1      -1.183  -1.769   0.059  0.00  0.00    -0.126 OA
ENDBRANCH   6  18
BRANCH   5  21
ATOM     21  N   UNL     1       1.271  -2.016   0.420  0.00  0.00    -0.280 N 
ATOM     22  H   UNL     1       0.519  -2.454   0.848  0.00  0.00    +0.166 HD
BRANCH  21  23
ATOM     23  N   UNL     1       2.265  -2.763  -0.146  0.00  0.00    -0.256 NA
ATOM     24  H   UNL     1       2.120  -3.747   0.025  0.00  0.00    +0.140 HD
ATOM     25  H   UNL     1       2.340  -2.575  -1.135  0.00  0.00    +0.140 HD
ENDBRANCH  21  23
ENDBRANCH   5  21
TORSDOF 6
