REMARK  Name = ZINC08754788
REMARK  9 active torsions:
REMARK  status: ('A' for Active; 'I' for Inactive)
REMARK    1  A    between atoms: C_4  and  C_7
REMARK    2  A    between atoms: C_7  and  N_8
REMARK    3  A    between atoms: C_9  and  N_33
REMARK    4  A    between atoms: C_10  and  N_17
REMARK    5  A    between atoms: N_17  and  C_18
REMARK    6  A    between atoms: C_18  and  C_19
REMARK    7  A    between atoms: C_19  and  C_20
REMARK    8  A    between atoms: C_20  and  O_21
REMARK    9  A    between atoms: C_22  and  C_24
REMARK                            x       y       z     vdW  Elec       q    Type
REMARK                         _______ _______ _______ _____ _____    ______ ____
ROOT
ATOM      1  N   UNL     1      -9.023   2.984  -0.014  0.00  0.00    -0.276 N 
ATOM      2  C   UNL     1      -7.707   3.083  -0.401  0.00  0.00    +0.128 A 
ATOM      3  C   UNL     1      -6.778   3.583   0.488  0.00  0.00    +0.140 A 
ATOM      4  C   UNL     1      -7.210   3.989   1.765  0.00  0.00    +0.277 A 
ATOM      5  O   UNL     1      -6.412   4.439   2.570  0.00  0.00    -0.266 OA
ATOM      6  N   UNL     1      -8.513   3.876   2.093  0.00  0.00    -0.273 N 
ATOM      7  H   UNL     1      -8.821   4.164   2.999  0.00  0.00    +0.173 HD
ATOM      8  C   UNL     1      -9.402   3.381   1.214  0.00  0.00    +0.331 A 
ATOM      9  O   UNL     1     -10.572   3.291   1.536  0.00  0.00    -0.246 OA
ENDROOT
BRANCH   3  10
ATOM     10  N   UNL     1      -5.420   3.692   0.123  0.00  0.00    -0.258 N 
ATOM     11  C   UNL     1      -4.698   2.582  -0.125  0.00  0.00    +0.286 C 
ATOM     12  O   UNL     1      -5.234   1.489  -0.099  0.00  0.00    -0.266 OA
BRANCH  11  13
ATOM     13  C   UNL     1      -3.264   2.690  -0.428  0.00  0.00    +0.191 A 
ATOM     14  C   UNL     1      -2.414   1.641  -0.573  0.00  0.00    +0.063 A 
ATOM     15  C   UNL     1      -1.103   2.219  -0.865  0.00  0.00    +0.021 A 
ATOM     16  C   UNL     1       0.164   1.684  -1.113  0.00  0.00    +0.011 A 
ATOM     17  C   UNL     1       1.214   2.520  -1.364  0.00  0.00    +0.001 A 
ATOM     18  C   UNL     1       1.032   3.897  -1.369  0.00  0.00    +0.004 A 
ATOM     19  C   UNL     1      -0.208   4.444  -1.121  0.00  0.00    +0.047 A 
ATOM     20  C   UNL     1      -1.292   3.613  -0.863  0.00  0.00    +0.136 A 
ATOM     21  O   UNL     1      -2.591   3.848  -0.592  0.00  0.00    -0.450 OA
ENDBRANCH  11  13
BRANCH  10  22
ATOM     22  C   UNL     1      -4.795   5.013   0.013  0.00  0.00    +0.116 C 
BRANCH  22  23
ATOM     23  C   UNL     1      -4.804   5.461  -1.450  0.00  0.00    +0.047 C 
BRANCH  23  24
ATOM     24  C   UNL     1      -4.151   6.840  -1.564  0.00  0.00    +0.157 C 
BRANCH  24  25
ATOM     25  O   UNL     1      -4.159   7.259  -2.930  0.00  0.00    -0.395 OA
ATOM     26  H   UNL     1      -3.760   8.127  -3.078  0.00  0.00    +0.209 HD
ENDBRANCH  24  25
ENDBRANCH  23  24
ENDBRANCH  22  23
ENDBRANCH  10  22
ENDBRANCH   3  10
BRANCH   2  27
ATOM     27  N   UNL     1      -7.320   2.682  -1.658  0.00  0.00    -0.343 N 
ATOM     28  H   UNL     1      -6.382   2.697  -1.905  0.00  0.00    +0.144 HD
ATOM     29  H   UNL     1      -7.985   2.385  -2.298  0.00  0.00    +0.144 HD
ENDBRANCH   2  27
BRANCH   1  30
ATOM     30  C   UNL     1     -10.018   2.450  -0.946  0.00  0.00    +0.163 C 
BRANCH  30  34
ATOM     31  C   UNL     1     -11.660   5.642  -3.261  0.00  0.00    +0.000 A 
ATOM     32  C   UNL     1     -10.539   4.969  -3.710  0.00  0.00    +0.000 A 
ATOM     33  C   UNL     1     -10.008   3.936  -2.960  0.00  0.00    +0.005 A 
ATOM     34  C   UNL     1     -10.597   3.576  -1.763  0.00  0.00    -0.028 A 
ATOM     35  C   UNL     1     -11.722   4.246  -1.317  0.00  0.00    +0.005 A 
ATOM     36  C   UNL     1     -12.250   5.282  -2.064  0.00  0.00    +0.000 A 
ENDBRANCH  30  34
ENDBRANCH   1  30
TORSDOF 9
