REMARK  Name = ZINC27834725
REMARK  7 active torsions:
REMARK  status: ('A' for Active; 'I' for Inactive)
REMARK    1  A    between atoms: C_1  and  O_2
REMARK    2  A    between atoms: O_2  and  C_3
REMARK    3  A    between atoms: C_5  and  N_20
REMARK    4  A    between atoms: C_7  and  N_9
REMARK    5  A    between atoms: N_9  and  S_10
REMARK    6  A    between atoms: S_10  and  C_13
REMARK    7  A    between atoms: N_20  and  N_21
REMARK                            x       y       z     vdW  Elec       q    Type
REMARK                         _______ _______ _______ _____ _____    ______ ____
ROOT
ATOM      1  C   UNL     1      -2.229   4.001  -0.916  0.00  0.00    +0.221 A 
ATOM      2  C   UNL     1      -3.479   3.511  -0.558  0.00  0.00    +0.112 A 
ATOM      3  C   UNL     1      -3.561   2.227  -0.026  0.00  0.00    +0.141 A 
ATOM      4  N   UNL     1      -2.447   1.513   0.116  0.00  0.00    -0.196 NA
ATOM      5  C   UNL     1      -1.272   2.015  -0.231  0.00  0.00    +0.262 A 
ATOM      6  N   UNL     1      -1.158   3.233  -0.740  0.00  0.00    -0.177 NA
ENDROOT
BRANCH   1   8
ATOM      7  C   UNL     1      -0.775   5.718  -1.675  0.00  0.00    +0.279 C 
ATOM      8  O   UNL     1      -2.103   5.246  -1.437  0.00  0.00    -0.480 OA
ENDBRANCH   1   8
BRANCH   3   9
ATOM      9  N   UNL     1      -4.787   1.697   0.344  0.00  0.00    -0.267 N 
ATOM     10  H   UNL     1      -5.704   2.292   0.219  0.00  0.00    +0.167 HD
BRANCH   9  11
ATOM     11  N   UNL     1      -4.857   0.436   0.865  0.00  0.00    -0.255 NA
ATOM     12  H   UNL     1      -5.904   0.192   1.096  0.00  0.00    +0.140 HD
ATOM     13  H   UNL     1      -4.466  -0.285   0.132  0.00  0.00    +0.140 HD
ENDBRANCH   9  11
ENDBRANCH   3   9
BRANCH   5  14
ATOM     14  N   UNL     1      -0.134   1.246  -0.064  0.00  0.00    -0.057 NA
BRANCH  14  15
ATOM     15  S   UNL     1       1.362   1.950  -0.153  0.00  0.00    +0.096 S 
ATOM     16  O   UNL     1       1.308   3.123   0.647  0.00  0.00    -0.148 OA
ATOM     17  O   UNL     1       2.311   0.917   0.073  0.00  0.00    -0.148 OA
BRANCH  15  18
ATOM     18  C   UNL     1       1.588   2.486  -1.817  0.00  0.00    +0.129 A 
ATOM     19  C   UNL     1       1.728   3.832  -2.096  0.00  0.00    +0.030 A 
ATOM     20  C   UNL     1       1.909   4.253  -3.400  0.00  0.00    +0.002 A 
ATOM     21  C   UNL     1       1.940   3.327  -4.427  0.00  0.00    +0.002 A 
ATOM     22  C   UNL     1       1.795   1.981  -4.150  0.00  0.00    +0.022 A 
ATOM     23  C   UNL     1       1.618   1.560  -2.844  0.00  0.00    +0.068 A 
ATOM     24 CL   UNL     1       1.435  -0.131  -2.494  0.00  0.00    -0.082 Cl
ENDBRANCH  15  18
ENDBRANCH  14  15
ENDBRANCH   5  14
TORSDOF 6
