REMARK  Name = ZINC63182735
REMARK  9 active torsions:
REMARK  status: ('A' for Active; 'I' for Inactive)
REMARK    1  A    between atoms: C_1  and  C_2
REMARK    2  A    between atoms: C_5  and  N_12
REMARK    3  A    between atoms: C_7  and  S_8
REMARK    4  A    between atoms: S_8  and  N_11
REMARK    5  A    between atoms: C_13  and  C_15
REMARK    6  A    between atoms: C_15  and  C_17
REMARK    7  A    between atoms: C_15  and  N_27
REMARK    8  A    between atoms: C_17  and  C_18
REMARK    9  A    between atoms: C_28  and  C_30
REMARK                            x       y       z     vdW  Elec       q    Type
REMARK                         _______ _______ _______ _____ _____    ______ ____
ROOT
ATOM      1  C   UNL     1      -0.134  -6.343  -1.187  0.00  0.00    +0.163 C 
ENDROOT
BRANCH   1   3
ATOM      2  N   UNL     1       0.059  -4.170  -0.021  0.00  0.00    -0.284 N 
ATOM      3  C   UNL     1      -0.040  -4.839  -1.187  0.00  0.00    +0.238 C 
ATOM      4  O   UNL     1      -0.054  -4.230  -2.236  0.00  0.00    -0.273 OA
ATOM      5  H   UNL     1       0.147  -4.658   0.812  0.00  0.00    +0.155 HD
BRANCH   2  10
ATOM      6  C   UNL     1      -0.041   1.502   0.014  0.00  0.00    +0.046 C 
ATOM      7  C   UNL     1      -0.015  -0.004   0.004  0.00  0.00    -0.024 A 
ATOM      8  C   UNL     1      -0.752  -0.702  -0.935  0.00  0.00    +0.007 A 
ATOM      9  C   UNL     1      -0.730  -2.082  -0.946  0.00  0.00    +0.023 A 
ATOM     10  C   UNL     1       0.034  -2.771  -0.013  0.00  0.00    +0.035 A 
ATOM     11  C   UNL     1       0.773  -2.068   0.929  0.00  0.00    +0.052 A 
ATOM     12  C   UNL     1       0.751  -0.686   0.932  0.00  0.00    +0.110 A 
BRANCH  12  13
ATOM     13  S   UNL     1       1.694   0.207   2.123  0.00  0.00    +0.056 S 
ATOM     14  O   UNL     1       0.818   1.167   2.697  0.00  0.00    -0.153 OA
ATOM     15  O   UNL     1       2.382  -0.760   2.904  0.00  0.00    -0.153 OA
BRANCH  13  16
ATOM     16  N   UNL     1       2.849   1.056   1.294  0.00  0.00    -0.204 NA
ATOM     17  H   UNL     1       3.174   1.901   1.644  0.00  0.00    +0.144 HD
ATOM     18  H   UNL     1       3.201   0.710   0.460  0.00  0.00    +0.144 HD
ENDBRANCH  13  16
ENDBRANCH  12  13
ENDBRANCH   2  10
ENDBRANCH   1   3
BRANCH   1  19
ATOM     19  N   UNL     1      -0.699  -6.797  -2.460  0.00  0.00    -0.299 N 
ATOM     20  C   UNL     1      -0.070  -6.509  -3.617  0.00  0.00    +0.251 C 
ATOM     21  O   UNL     1       0.968  -5.873  -3.604  0.00  0.00    -0.270 OA
ATOM     22  H   UNL     1      -1.526  -7.304  -2.471  0.00  0.00    +0.150 HD
BRANCH  20  23
ATOM     23  C   UNL     1      -0.635  -6.963  -4.891  0.00  0.00    +0.074 A 
ATOM     24  C   UNL     1      -0.149  -6.782  -6.177  0.00  0.00    +0.021 A 
ATOM     25  C   UNL     1      -0.907  -7.329  -7.184  0.00  0.00    +0.008 A 
ATOM     26  C   UNL     1      -2.046  -7.992  -6.866  0.00  0.00    +0.046 A 
ATOM     27  S   UNL     1      -2.122  -7.900  -5.191  0.00  0.00    -0.092 S 
ENDBRANCH  20  23
ENDBRANCH   1  19
BRANCH   1  28
ATOM     28  C   UNL     1       1.263  -6.941  -1.007  0.00  0.00    +0.065 C 
BRANCH  28  29
ATOM     29  C   UNL     1       1.156  -8.439  -0.884  0.00  0.00    -0.039 C 
ATOM     30  C   UNL     1       1.294  -9.348  -1.875  0.00  0.00    -0.001 A 
ATOM     31  C   UNL     1       1.575  -9.219  -3.311  0.00  0.00    +0.010 A 
ATOM     32  C   UNL     1       1.656 -10.338  -4.066  0.00  0.00    +0.001 A 
ATOM     33  C   UNL     1       1.480 -11.614  -3.514  0.00  0.00    +0.002 A 
ATOM     34  C   UNL     1       1.219 -11.813  -2.205  0.00  0.00    +0.026 A 
ATOM     35  C   UNL     1       1.113 -10.707  -1.317  0.00  0.00    +0.043 A 
ATOM     36  N   UNL     1       0.871 -10.640  -0.030  0.00  0.00    -0.380 N 
ATOM     37  C   UNL     1       0.878  -9.230   0.375  0.00  0.00    +0.144 C 
ATOM     38  H   UNL     1       0.717 -11.397   0.556  0.00  0.00    +0.160 HD
ENDBRANCH  28  29
ENDBRANCH   1  28
TORSDOF 8
