REMARK  Name = ZINC13057387
REMARK  14 active torsions:
REMARK  status: ('A' for Active; 'I' for Inactive)
REMARK    1  A    between atoms: C_1  and  C_2
REMARK    2  A    between atoms: C_2  and  C_3
REMARK    3  A    between atoms: C_3  and  N_4
REMARK    4  A    between atoms: C_5  and  N_32
REMARK    5  A    between atoms: C_6  and  N_13
REMARK    6  A    between atoms: N_13  and  C_14
REMARK    7  A    between atoms: C_14  and  C_15
REMARK    8  A    between atoms: C_15  and  O_16
REMARK    9  A    between atoms: O_16  and  C_17
REMARK   10  A    between atoms: C_18  and  C_20
REMARK   11  A    between atoms: C_20  and  C_21
REMARK   12  A    between atoms: C_21  and  C_22
REMARK   13  A    between atoms: N_24  and  C_25
REMARK   14  A    between atoms: C_28  and  C_31
REMARK                            x       y       z     vdW  Elec       q    Type
REMARK                         _______ _______ _______ _____ _____    ______ ____
ROOT
ATOM      1  N   UNL     1       2.541   4.460   0.072  0.00  0.00    -0.262 N 
ATOM      2  C   UNL     1       1.395   3.793   0.320  0.00  0.00    +0.221 C 
ATOM      3  O   UNL     1       0.367   4.406   0.518  0.00  0.00    -0.275 OA
ENDROOT
BRANCH   1   6
ATOM      4  N   UNL     1       1.855   8.007  -0.602  0.00  0.00    -0.280 N 
ATOM      5  C   UNL     1       1.807   6.636  -0.706  0.00  0.00    +0.127 A 
ATOM      6  C   UNL     1       2.569   5.869   0.152  0.00  0.00    +0.140 A 
ATOM      7  C   UNL     1       3.369   6.515   1.113  0.00  0.00    +0.277 A 
ATOM      8  O   UNL     1       4.048   5.862   1.886  0.00  0.00    -0.266 OA
ATOM      9  N   UNL     1       3.384   7.862   1.168  0.00  0.00    -0.273 N 
ATOM     10  H   UNL     1       3.958   8.322   1.845  0.00  0.00    +0.173 HD
ATOM     11  C   UNL     1       2.635   8.593   0.324  0.00  0.00    +0.331 A 
ATOM     12  O   UNL     1       2.664   9.806   0.399  0.00  0.00    -0.246 OA
BRANCH   5  13
ATOM     13  N   UNL     1       1.011   6.038  -1.652  0.00  0.00    -0.343 N 
ATOM     14  H   UNL     1       0.950   5.070  -1.694  0.00  0.00    +0.144 HD
ATOM     15  H   UNL     1       0.509   6.582  -2.279  0.00  0.00    +0.144 HD
ENDBRANCH   5  13
BRANCH   4  16
ATOM     16  C   UNL     1       1.051   8.834  -1.506  0.00  0.00    +0.128 C 
BRANCH  16  18
ATOM     17  C   UNL     1      -1.160   9.952  -1.823  0.00  0.00    +0.005 C 
ATOM     18  C   UNL     1      -0.321   9.089  -0.879  0.00  0.00    +0.018 C 
ENDBRANCH  16  18
ENDBRANCH   4  16
ENDBRANCH   1   6
BRANCH   1  19
ATOM     19  C   UNL     1       3.757   3.723  -0.281  0.00  0.00    +0.142 C 
BRANCH  19  20
ATOM     20  C   UNL     1       3.766   3.445  -1.786  0.00  0.00    +0.178 C 
BRANCH  20  21
ATOM     21  O   UNL     1       3.854   4.681  -2.498  0.00  0.00    -0.381 OA
ATOM     22  C   UNL     1       3.870   4.534  -3.919  0.00  0.00    +0.194 C 
ENDBRANCH  20  21
ENDBRANCH  19  20
ENDBRANCH   1  19
BRANCH   2  23
ATOM     23  C   UNL     1       1.392   2.286   0.350  0.00  0.00    +0.105 C 
BRANCH  23  24
ATOM     24  C   UNL     1      -0.022   1.785   0.649  0.00  0.00    +0.105 C 
BRANCH  24  25
ATOM     25  C   UNL     1      -0.025   0.278   0.680  0.00  0.00    +0.218 C 
ATOM     26  O   UNL     1       1.002  -0.334   0.481  0.00  0.00    -0.275 OA
ATOM     27  N   UNL     1      -1.170  -0.388   0.927  0.00  0.00    -0.285 N 
ATOM     28  H   UNL     1      -1.977   0.101   1.154  0.00  0.00    +0.155 HD
BRANCH  27  29
ATOM     29  C   UNL     1      -1.195  -1.786   0.858  0.00  0.00    +0.033 A 
ATOM     30  C   UNL     1      -2.329  -2.439   0.392  0.00  0.00    +0.023 A 
ATOM     31  C   UNL     1      -2.348  -3.818   0.319  0.00  0.00    +0.005 A 
ATOM     32  C   UNL     1      -1.245  -4.549   0.720  0.00  0.00    -0.050 A 
ATOM     33  C   UNL     1      -0.117  -3.901   1.189  0.00  0.00    +0.005 A 
ATOM     34  C   UNL     1      -0.089  -2.522   1.260  0.00  0.00    +0.023 A 
ATOM     35  C   UNL     1      -1.272  -6.053   0.645  0.00  0.00    +0.044 C 
ENDBRANCH  27  29
ENDBRANCH  24  25
ENDBRANCH  23  24
ENDBRANCH   2  23
TORSDOF 11
