REMARK  Name = ZINC02794799
REMARK  10 active torsions:
REMARK  status: ('A' for Active; 'I' for Inactive)
REMARK    1  A    between atoms: C_1  and  C_2
REMARK    2  A    between atoms: C_2  and  O_3
REMARK    3  A    between atoms: O_3  and  C_4
REMARK    4  A    between atoms: C_7  and  N_10
REMARK    5  A    between atoms: N_10  and  C_11
REMARK    6  A    between atoms: C_11  and  N_13
REMARK    7  A    between atoms: N_13  and  N_14
REMARK    8  A    between atoms: C_15  and  C_17
REMARK    9  A    between atoms: C_23  and  C_31
REMARK   10  A    between atoms: C_26  and  C_28
REMARK                            x       y       z     vdW  Elec       q    Type
REMARK                         _______ _______ _______ _____ _____    ______ ____
ROOT
ATOM      1  N   UNL     1      -0.077   1.342   0.033  0.00  0.00    -0.231 N 
ATOM      2  C   UNL     1      -0.088  -0.005   0.044  0.00  0.00    +0.265 C 
ATOM      3  O   UNL     1      -1.086  -0.603   0.401  0.00  0.00    -0.268 OA
ATOM      4  H   UNL     1       0.827   1.882  -0.285  0.00  0.00    +0.173 HD
ENDROOT
BRANCH   2   5
ATOM      5  C   UNL     1       1.104  -0.752  -0.374  0.00  0.00    +0.097 A 
ATOM      6  C   UNL     1       2.334  -0.202  -0.812  0.00  0.00    +0.149 A 
ATOM      7  N   UNL     1       3.144  -1.185  -1.093  0.00  0.00    -0.177 NA
ATOM      8  N   UNL     1       2.493  -2.396  -0.856  0.00  0.00    -0.241 N 
ATOM      9  C   UNL     1       1.245  -2.133  -0.410  0.00  0.00    +0.130 A 
ATOM     10  N   UNL     1       0.302  -3.083  -0.077  0.00  0.00    -0.322 N 
ATOM     11  C   UNL     1       0.654  -4.392  -0.649  0.00  0.00    +0.104 C 
ATOM     12  C   UNL     1       2.109  -4.728  -0.302  0.00  0.00    +0.059 C 
ATOM     13  C   UNL     1       3.033  -3.749  -1.040  0.00  0.00    +0.177 C 
ATOM     14  H   UNL     1      -0.614  -2.974   0.523  0.00  0.00    +0.148 HD
BRANCH  11  15
ATOM     15  C   UNL     1      -0.255  -5.450  -0.080  0.00  0.00    -0.027 A 
ATOM     16  C   UNL     1      -0.598  -5.419   1.259  0.00  0.00    +0.005 A 
ATOM     17  C   UNL     1      -1.436  -6.387   1.781  0.00  0.00    +0.000 A 
ATOM     18  C   UNL     1      -1.923  -7.392   0.965  0.00  0.00    +0.000 A 
ATOM     19  C   UNL     1      -1.576  -7.425  -0.372  0.00  0.00    +0.000 A 
ATOM     20  C   UNL     1      -0.742  -6.455  -0.895  0.00  0.00    +0.005 A 
ENDBRANCH  11  15
BRANCH  13  21
ATOM     21  C   UNL     1       3.071  -4.094  -2.530  0.00  0.00    +0.365 C 
ATOM     22  F   UNL     1       3.886  -3.175  -3.200  0.00  0.00    -0.207 F 
ATOM     23  F   UNL     1       3.587  -5.383  -2.698  0.00  0.00    -0.207 F 
ENDBRANCH  13  21
ENDBRANCH   2   5
BRANCH   1  24
ATOM     24  N   UNL     1      -1.217   2.055   0.426  0.00  0.00    -0.245 N 
ATOM     25  H   UNL     1      -2.121   1.515   0.744  0.00  0.00    +0.172 HD
BRANCH  24  26
ATOM     26  C   UNL     1      -1.207   3.403   0.414  0.00  0.00    +0.151 C 
ATOM     27  S   UNL     1      -2.600   4.274   0.895  0.00  0.00    -0.017 S 
BRANCH  26  28
ATOM     28  N   UNL     1      -0.099   4.065   0.025  0.00  0.00    -0.296 N 
ATOM     29  H   UNL     1       0.818   3.508  -0.217  0.00  0.00    +0.154 HD
BRANCH  28  33
ATOM     30  C   UNL     1      -0.149   8.224  -0.267  0.00  0.00    +0.121 A 
ATOM     31  C   UNL     1      -0.692   7.601   0.847  0.00  0.00    +0.047 A 
ATOM     32  C   UNL     1      -0.676   6.223   0.944  0.00  0.00    +0.027 A 
ATOM     33  C   UNL     1      -0.116   5.462  -0.073  0.00  0.00    +0.033 A 
ATOM     34  C   UNL     1       0.431   6.087  -1.186  0.00  0.00    +0.027 A 
ATOM     35  C   UNL     1       0.410   7.465  -1.284  0.00  0.00    +0.047 A 
BRANCH  30  36
ATOM     36  O   UNL     1      -0.166   9.580  -0.362  0.00  0.00    -0.492 OA
BRANCH  36  38
ATOM     37  C   UNL     1       0.300  11.680  -1.465  0.00  0.00    +0.048 C 
ATOM     38  C   UNL     1       0.410  10.155  -1.536  0.00  0.00    +0.225 C 
ENDBRANCH  36  38
ENDBRANCH  30  36
ENDBRANCH  28  33
ENDBRANCH  26  28
ENDBRANCH  24  26
ENDBRANCH   1  24
TORSDOF 9
