REMARK  Name = ZINC06293071
REMARK  3 active torsions:
REMARK  status: ('A' for Active; 'I' for Inactive)
REMARK    1  A    between atoms: C_8  and  C_11
REMARK    2  A    between atoms: C_11  and  C_12
REMARK    3  A    between atoms: N_14  and  N_15
REMARK                            x       y       z     vdW  Elec       q    Type
REMARK                         _______ _______ _______ _____ _____    ______ ____
ROOT
ATOM      1  C   UNL     1      -4.340   1.027   0.049  0.00  0.00    +0.104 C 
ENDROOT
BRANCH   1   9
ATOM      2  C   UNL     1      -0.013   1.086   0.008  0.00  0.00    +0.007 C 
ATOM      3  C   UNL     1      -0.729   1.579   1.267  0.00  0.00    -0.010 C 
ATOM      4  C   UNL     1      -0.750   3.109   1.275  0.00  0.00    +0.007 C 
ATOM      5  C   UNL     1      -1.490   3.616   0.036  0.00  0.00    -0.010 C 
ATOM      6  C   UNL     1      -0.773   3.123  -1.223  0.00  0.00    +0.007 C 
ATOM      7  C   UNL     1      -0.753   1.593  -1.232  0.00  0.00    -0.010 C 
ATOM      8  C   UNL     1      -2.188   1.063  -1.221  0.00  0.00    +0.011 C 
ATOM      9  C   UNL     1      -2.904   1.556   0.038  0.00  0.00    -0.020 C 
ATOM     10  C   UNL     1      -2.164   1.050   1.278  0.00  0.00    +0.011 C 
ATOM     11  C   UNL     1      -2.925   3.086   0.047  0.00  0.00    +0.011 C 
ENDBRANCH   1   9
BRANCH   1  12
ATOM     12  C   UNL     1      -5.045   1.513   1.289  0.00  0.00    +0.230 C 
ATOM     13  O   UNL     1      -4.457   2.214   2.085  0.00  0.00    -0.274 OA
ATOM     14  N   UNL     1      -6.329   1.169   1.513  0.00  0.00    -0.233 N 
ATOM     15  H   UNL     1      -6.799   0.608   0.875  0.00  0.00    +0.173 HD
BRANCH  14  16
ATOM     16  N   UNL     1      -6.984   1.621   2.665  0.00  0.00    -0.218 N 
ATOM     17  C   UNL     1      -8.268   1.276   2.889  0.00  0.00    +0.313 C 
ATOM     18  O   UNL     1      -8.837   1.668   3.889  0.00  0.00    -0.252 OA
ATOM     19  N   UNL     1      -8.921   0.497   2.004  0.00  0.00    -0.312 N 
ATOM     20  H   UNL     1      -6.515   2.181   3.302  0.00  0.00    +0.174 HD
ATOM     21  H   UNL     1      -8.467   0.184   1.206  0.00  0.00    +0.147 HD
ATOM     22  H   UNL     1      -9.845   0.249   2.165  0.00  0.00    +0.147 HD
ENDBRANCH  14  16
ENDBRANCH   1  12
TORSDOF 3
