REMARK  Name = ZINC08416526
REMARK  11 active torsions:
REMARK  status: ('A' for Active; 'I' for Inactive)
REMARK    1  A    between atoms: C_1  and  C_2
REMARK    2  A    between atoms: C_5  and  N_8
REMARK    3  A    between atoms: C_9  and  C_11
REMARK    4  A    between atoms: C_11  and  S_12
REMARK    5  A    between atoms: S_12  and  C_13
REMARK    6  A    between atoms: C_13  and  C_15
REMARK    7  A    between atoms: C_13  and  C_16
REMARK    8  A    between atoms: N_18  and  N_19
REMARK    9  A    between atoms: N_19  and  C_20
REMARK   10  A    between atoms: C_20  and  N_22
REMARK   11  A    between atoms: N_22  and  C_23
REMARK                            x       y       z     vdW  Elec       q    Type
REMARK                         _______ _______ _______ _____ _____    ______ ____
ROOT
ATOM      1  C   UNL     1       4.264   3.395   4.834  0.00  0.00    +0.131 C 
ATOM      2  C   UNL     1       4.298   4.881   4.471  0.00  0.00    +0.029 C 
ENDROOT
BRANCH   1   3
ATOM      3  C   UNL     1       2.856   2.999   5.197  0.00  0.00    +0.242 C 
ATOM      4  O   UNL     1       2.507   2.994   6.359  0.00  0.00    -0.273 OA
ATOM      5  N   UNL     1       1.984   2.650   4.230  0.00  0.00    -0.234 N 
ATOM      6  H   UNL     1       2.263   2.654   3.301  0.00  0.00    +0.173 HD
BRANCH   5   7
ATOM      7  N   UNL     1       0.675   2.282   4.568  0.00  0.00    -0.246 N 
ATOM      8  H   UNL     1       0.396   2.278   5.497  0.00  0.00    +0.172 HD
BRANCH   7   9
ATOM      9  C   UNL     1      -0.197   1.933   3.601  0.00  0.00    +0.147 C 
ATOM     10  S   UNL     1      -1.797   1.482   4.013  0.00  0.00    -0.017 S 
BRANCH   9  11
ATOM     11  N   UNL     1       0.190   1.938   2.310  0.00  0.00    -0.323 N 
ATOM     12  H   UNL     1       1.096   2.193   2.077  0.00  0.00    +0.148 HD
BRANCH  11  13
ATOM     13  C   UNL     1      -0.758   1.558   1.259  0.00  0.00    +0.072 C 
ATOM     14  C   UNL     1      -0.006   1.038   0.017  0.00  0.00    +0.022 C 
ATOM     15  C   UNL     1      -0.777   1.552  -1.212  0.00  0.00    +0.002 C 
ATOM     16  C   UNL     1      -1.971   2.367  -0.673  0.00  0.00    +0.002 C 
ATOM     17  C   UNL     1      -1.525   2.802   0.745  0.00  0.00    +0.022 C 
ENDBRANCH  11  13
ENDBRANCH   9  11
ENDBRANCH   7   9
ENDBRANCH   5   7
ENDBRANCH   1   3
BRANCH   1  18
ATOM     18  S   UNL     1       5.360   3.094   6.248  0.00  0.00    -0.139 S 
BRANCH  18  19
ATOM     19  C   UNL     1       7.015   3.470   5.608  0.00  0.00    +0.165 C 
BRANCH  19  21
ATOM     20  N   UNL     1       9.341   3.478   6.449  0.00  0.00    -0.285 N 
ATOM     21  C   UNL     1       8.035   3.257   6.697  0.00  0.00    +0.227 C 
ATOM     22  O   UNL     1       7.680   2.888   7.796  0.00  0.00    -0.275 OA
ATOM     23  H   UNL     1       9.633   3.708   5.553  0.00  0.00    +0.155 HD
BRANCH  20  28
ATOM     24  C   UNL     1      13.135   3.058  10.646  0.00  0.00    +0.044 C 
ATOM     25  C   UNL     1      12.127   3.170   9.531  0.00  0.00    -0.050 A 
ATOM     26  C   UNL     1      11.032   2.325   9.504  0.00  0.00    +0.005 A 
ATOM     27  C   UNL     1      10.107   2.425   8.483  0.00  0.00    +0.023 A 
ATOM     28  C   UNL     1      10.277   3.374   7.484  0.00  0.00    +0.033 A 
ATOM     29  C   UNL     1      11.381   4.217   7.511  0.00  0.00    +0.023 A 
ATOM     30  C   UNL     1      12.299   4.116   8.538  0.00  0.00    +0.005 A 
ENDBRANCH  20  28
ENDBRANCH  19  21
ENDBRANCH  18  19
ENDBRANCH   1  18
TORSDOF 9
