REMARK  Name = ZINC14833826
REMARK  9 active torsions:
REMARK  status: ('A' for Active; 'I' for Inactive)
REMARK    1  A    between atoms: C_1  and  C_2
REMARK    2  A    between atoms: C_2  and  C_4
REMARK    3  A    between atoms: C_2  and  N_10
REMARK    4  A    between atoms: C_11  and  C_13
REMARK    5  A    between atoms: C_18  and  N_19
REMARK    6  A    between atoms: N_19  and  C_20
REMARK    7  A    between atoms: C_20  and  N_22
REMARK    8  A    between atoms: C_23  and  C_25
REMARK    9  A    between atoms: C_26  and  C_27
REMARK                            x       y       z     vdW  Elec       q    Type
REMARK                         _______ _______ _______ _____ _____    ______ ____
ROOT
ATOM      1  C   UNL     1       3.696  -4.691   0.128  0.00  0.00    +0.058 A 
ATOM      2  C   UNL     1       3.756  -6.083   0.220  0.00  0.00    +0.015 A 
ATOM      3  C   UNL     1       2.594  -6.823   0.221  0.00  0.00    +0.001 A 
ATOM      4  C   UNL     1       1.363  -6.193   0.130  0.00  0.00    +0.002 A 
ATOM      5  C   UNL     1       1.287  -4.818   0.043  0.00  0.00    +0.024 A 
ATOM      6  C   UNL     1       2.448  -4.056   0.036  0.00  0.00    +0.045 A 
ENDROOT
BRANCH   1   8
ATOM      7  N   UNL     1       6.134  -4.509   0.104  0.00  0.00    -0.305 N 
ATOM      8  C   UNL     1       4.936  -3.892   0.127  0.00  0.00    +0.246 C 
ATOM      9  O   UNL     1       4.877  -2.678   0.148  0.00  0.00    -0.270 OA
ATOM     10  H   UNL     1       6.181  -5.478   0.087  0.00  0.00    +0.150 HD
BRANCH   7  12
ATOM     11  C   UNL     1       7.711  -3.310  -1.331  0.00  0.00    +0.033 C 
ATOM     12  C   UNL     1       7.366  -3.716   0.103  0.00  0.00    +0.100 C 
BRANCH  12  13
ATOM     13  C   UNL     1       8.492  -4.537   0.678  0.00  0.00    -0.027 A 
ATOM     14  C   UNL     1       8.597  -5.879   0.366  0.00  0.00    +0.005 A 
ATOM     15  C   UNL     1       9.633  -6.631   0.889  0.00  0.00    +0.000 A 
ATOM     16  C   UNL     1      10.557  -6.043   1.732  0.00  0.00    +0.000 A 
ATOM     17  C   UNL     1      10.448  -4.701   2.048  0.00  0.00    +0.000 A 
ATOM     18  C   UNL     1       9.415  -3.949   1.521  0.00  0.00    +0.005 A 
ENDBRANCH  12  13
ENDBRANCH   7  12
ENDBRANCH   1   8
BRANCH   6  19
ATOM     19  N   UNL     1       2.373  -2.669  -0.057  0.00  0.00    -0.296 N 
ATOM     20  H   UNL     1       2.938  -2.194  -0.686  0.00  0.00    +0.154 HD
BRANCH  19  21
ATOM     21  C   UNL     1       1.517  -1.986   0.728  0.00  0.00    +0.141 C 
ATOM     22  S   UNL     1       0.434  -2.831   1.751  0.00  0.00    -0.018 S 
BRANCH  21  23
ATOM     23  N   UNL     1       1.512  -0.638   0.708  0.00  0.00    -0.264 N 
ATOM     24  C   UNL     1       0.655   0.044   1.493  0.00  0.00    +0.242 C 
ATOM     25  O   UNL     1      -0.114  -0.556   2.220  0.00  0.00    -0.270 OA
ATOM     26  H   UNL     1       2.126  -0.160   0.129  0.00  0.00    +0.157 HD
BRANCH  24  27
ATOM     27  C   UNL     1       0.651   1.507   1.472  0.00  0.00    +0.068 C 
ATOM     28  C   UNL     1      -0.211   2.190   2.254  0.00  0.00    +0.013 C 
BRANCH  28  29
ATOM     29  C   UNL     1      -0.216   3.661   2.232  0.00  0.00    -0.025 A 
ATOM     30  C   UNL     1       0.675   4.355   1.406  0.00  0.00    +0.009 A 
ATOM     31  C   UNL     1       0.662   5.733   1.388  0.00  0.00    +0.020 A 
ATOM     32  C   UNL     1      -0.224   6.431   2.192  0.00  0.00    +0.041 A 
ATOM     33  C   UNL     1      -1.106   5.751   3.016  0.00  0.00    +0.020 A 
ATOM     34  C   UNL     1      -1.108   4.373   3.041  0.00  0.00    +0.009 A 
ATOM     35 CL   UNL     1      -0.229   8.167   2.167  0.00  0.00    -0.084 Cl
ENDBRANCH  28  29
ENDBRANCH  24  27
ENDBRANCH  21  23
ENDBRANCH  19  21
ENDBRANCH   6  19
TORSDOF 8
