REMARK  Name = ZINC44117007
REMARK  8 active torsions:
REMARK  status: ('A' for Active; 'I' for Inactive)
REMARK    1  A    between atoms: C_1  and  C_2
REMARK    2  A    between atoms: C_5  and  C_9
REMARK    3  A    between atoms: C_6  and  C_8
REMARK    4  A    between atoms: C_9  and  C_11
REMARK    5  A    between atoms: C_9  and  O_22
REMARK    6  A    between atoms: C_11  and  N_12
REMARK    7  A    between atoms: C_14  and  C_21
REMARK    8  A    between atoms: C_17  and  C_20
REMARK                            x       y       z     vdW  Elec       q    Type
REMARK                         _______ _______ _______ _____ _____    ______ ____
ROOT
ATOM      1  C   UNL     1       0.057  -4.275  -0.042  0.00  0.00    +0.159 C 
ENDROOT
BRANCH   1   6
ATOM      2  C   UNL     1      -0.015   1.502   0.042  0.00  0.00    +0.044 C 
ATOM      3  C   UNL     1       0.004  -0.004   0.020  0.00  0.00    -0.050 A 
ATOM      4  C   UNL     1      -0.014  -0.678  -1.187  0.00  0.00    +0.004 A 
ATOM      5  C   UNL     1       0.003  -2.060  -1.207  0.00  0.00    +0.007 A 
ATOM      6  C   UNL     1       0.039  -2.768  -0.020  0.00  0.00    -0.015 A 
ATOM      7  C   UNL     1       0.059  -2.095   1.186  0.00  0.00    -0.045 A 
ATOM      8  C   UNL     1       0.046  -0.712   1.206  0.00  0.00    +0.007 A 
ATOM      9  C   UNL     1       0.098  -2.867   2.480  0.00  0.00    +0.044 C 
ENDBRANCH   1   6
BRANCH   1  10
ATOM     10  O   UNL     1       0.604  -4.727  -1.283  0.00  0.00    -0.386 OA
ATOM     11  H   UNL     1       0.107  -4.436  -2.061  0.00  0.00    +0.210 HD
ENDBRANCH   1  10
BRANCH   1  12
ATOM     12  C   UNL     1      -1.370  -4.804   0.109  0.00  0.00    +0.120 C 
BRANCH  12  13
ATOM     13  N   UNL     1      -1.351  -6.273   0.101  0.00  0.00    -0.295 NA
ATOM     14  C   UNL     1      -2.680  -6.816  -0.218  0.00  0.00    +0.115 C 
ATOM     15  C   UNL     1      -2.601  -8.344  -0.274  0.00  0.00    +0.130 C 
ATOM     16  O   UNL     1      -2.100  -8.837   0.971  0.00  0.00    -0.371 OA
ATOM     17  C   UNL     1      -0.808  -8.329   1.313  0.00  0.00    +0.130 C 
ATOM     18  C   UNL     1      -0.868  -6.801   1.385  0.00  0.00    +0.115 C 
ATOM     19  C   UNL     1      -0.382  -8.890   2.671  0.00  0.00    +0.039 C 
ATOM     20  C   UNL     1      -1.663  -8.765  -1.407  0.00  0.00    +0.039 C 
ENDBRANCH  12  13
ENDBRANCH   1  12
TORSDOF 4
