REMARK  Name = ZINC06394928
REMARK  5 active torsions:
REMARK  status: ('A' for Active; 'I' for Inactive)
REMARK    1  A    between atoms: C_1  and  C_2
REMARK    2  A    between atoms: C_5  and  C_7
REMARK    3  A    between atoms: C_5  and  O_11
REMARK    4  A    between atoms: C_12  and  C_14
REMARK    5  A    between atoms: C_17  and  C_19
REMARK                            x       y       z     vdW  Elec       q    Type
REMARK                         _______ _______ _______ _____ _____    ______ ____
ROOT
ATOM      1  C   UNL     1      -1.219  -0.888   0.009  0.00  0.00    +0.062 C 
ATOM      2  C   UNL     1       0.002  -0.004   0.002  0.00  0.00    +0.039 C 
ATOM      3  N   UNL     1      -0.015   1.266   0.009  0.00  0.00    -0.184 NA
ATOM      4  N   UNL     1       1.245   1.860   0.000  0.00  0.00    -0.152 N 
ATOM      5  C   UNL     1       2.267   0.801  -0.015  0.00  0.00    +0.256 C 
ATOM      6  C   UNL     1       1.432  -0.496  -0.014  0.00  0.00    +0.118 C 
ATOM      7  C   UNL     1       1.488   3.186   0.005  0.00  0.00    +0.241 C 
ATOM      8  O   UNL     1       2.630   3.593  -0.004  0.00  0.00    -0.273 OA
ENDROOT
BRANCH   5   9
ATOM      9  C   UNL     1       3.144   0.879   1.236  0.00  0.00    +0.438 C 
ATOM     10  F   UNL     1       4.012  -0.218   1.266  0.00  0.00    -0.166 F 
ATOM     11  F   UNL     1       3.890   2.062   1.209  0.00  0.00    -0.166 F 
ATOM     12  F   UNL     1       2.334   0.863   2.376  0.00  0.00    -0.166 F 
ENDBRANCH   5   9
BRANCH   7  13
ATOM     13  C   UNL     1       0.340   4.162   0.022  0.00  0.00    +0.085 C 
ATOM     14  C   UNL     1       0.110   5.004  -1.235  0.00  0.00    +0.022 C 
ATOM     15  C   UNL     1       0.681   5.654   0.027  0.00  0.00    +0.032 C 
BRANCH  15  16
ATOM     16  C   UNL     1       2.139   6.034   0.015  0.00  0.00    -0.044 A 
ATOM     17  C   UNL     1       2.950   5.630  -1.030  0.00  0.00    +0.004 A 
ATOM     18  C   UNL     1       4.287   5.983  -1.043  0.00  0.00    +0.000 A 
ATOM     19  C   UNL     1       4.815   6.731  -0.007  0.00  0.00    +0.000 A 
ATOM     20  C   UNL     1       4.005   7.130   1.040  0.00  0.00    +0.000 A 
ATOM     21  C   UNL     1       2.667   6.782   1.050  0.00  0.00    +0.004 A 
ENDBRANCH  15  16
ENDBRANCH   7  13
BRANCH   5  22
ATOM     22  O   UNL     1       3.064   0.886  -1.198  0.00  0.00    -0.363 OA
ATOM     23  H   UNL     1       3.609   1.683  -1.249  0.00  0.00    +0.212 HD
ENDBRANCH   5  22
TORSDOF 4
