REMARK  Name = ZINC61088457
REMARK  6 active torsions:
REMARK  status: ('A' for Active; 'I' for Inactive)
REMARK    1  A    between atoms: C_1  and  C_2
REMARK    2  A    between atoms: C_2  and  C_4
REMARK    3  A    between atoms: C_2  and  N_17
REMARK    4  A    between atoms: C_4  and  N_5
REMARK    5  A    between atoms: C_6  and  C_8
REMARK    6  A    between atoms: C_10  and  N_16
REMARK                            x       y       z     vdW  Elec       q    Type
REMARK                         _______ _______ _______ _____ _____    ______ ____
ROOT
ATOM      1  N   UNL     1       0.781  -2.204  -0.862  0.00  0.00    -0.313 N 
ATOM      2  C   UNL     1       1.466  -3.039  -1.669  0.00  0.00    +0.245 C 
ATOM      3  O   UNL     1       2.058  -2.599  -2.636  0.00  0.00    -0.270 OA
ATOM      4  H   UNL     1       0.309  -2.555  -0.090  0.00  0.00    +0.149 HD
ENDROOT
BRANCH   2   5
ATOM      5  C   UNL     1       1.497  -4.486  -1.380  0.00  0.00    +0.053 A 
ATOM      6  C   UNL     1       0.813  -4.994  -0.273  0.00  0.00    +0.039 A 
ATOM      7  C   UNL     1       0.846  -6.352  -0.007  0.00  0.00    +0.061 A 
ATOM      8  C   UNL     1       1.560  -7.208  -0.843  0.00  0.00    +0.145 A 
ATOM      9  C   UNL     1       2.238  -6.705  -1.940  0.00  0.00    +0.056 A 
ATOM     10  C   UNL     1       2.206  -5.353  -2.215  0.00  0.00    +0.033 A 
ATOM     11 BR   UNL     1       3.128  -4.672  -3.720  0.00  0.00    -0.049 Br
ATOM     12  F   UNL     1       1.591  -8.534  -0.582  0.00  0.00    -0.204 F 
BRANCH   7  13
ATOM     13  N   UNL     1       0.163  -6.865   1.101  0.00  0.00    -0.356 N 
ATOM     14  H   UNL     1      -0.334  -6.269   1.683  0.00  0.00    +0.142 HD
ATOM     15  H   UNL     1       0.186  -7.817   1.287  0.00  0.00    +0.142 HD
ENDBRANCH   7  13
ENDBRANCH   2   5
BRANCH   1  16
ATOM     16  C   UNL     1       0.750  -0.768  -1.149  0.00  0.00    +0.089 C 
BRANCH  16  18
ATOM     17  C   UNL     1      -0.300   1.412  -0.526  0.00  0.00    -0.012 C 
ATOM     18  C   UNL     1      -0.196  -0.072  -0.168  0.00  0.00    -0.054 C 
BRANCH  18  19
ATOM     19  N   UNL     1      -1.526  -0.690  -0.249  0.00  0.00    +0.382 N 
ATOM     20  C   UNL     1      -2.099  -0.443  -1.577  0.00  0.00    -0.078 C 
ATOM     21  C   UNL     1      -3.450  -1.153  -1.694  0.00  0.00    -0.019 C 
ATOM     22  C   UNL     1      -4.398  -0.615  -0.619  0.00  0.00    -0.004 C 
ATOM     23  C   UNL     1      -3.757  -0.811   0.758  0.00  0.00    -0.019 C 
ATOM     24  C   UNL     1      -2.395  -0.114   0.784  0.00  0.00    -0.078 C 
ATOM     25  H   UNL     1      -1.443  -1.685  -0.100  0.00  0.00    -0.081 HD
ENDBRANCH  18  19
ENDBRANCH  16  18
ENDBRANCH   1  16
TORSDOF 5
