REMARK  Name = ZINC18097460
REMARK  6 active torsions:
REMARK  status: ('A' for Active; 'I' for Inactive)
REMARK    1  A    between atoms: C_1  and  C_2
REMARK    2  A    between atoms: C_9  and  C_11
REMARK    3  A    between atoms: C_12  and  C_31
REMARK    4  A    between atoms: C_16  and  C_18
REMARK    5  A    between atoms: C_27  and  C_29
REMARK    6  A    between atoms: C_27  and  C_30
REMARK                            x       y       z     vdW  Elec       q    Type
REMARK                         _______ _______ _______ _____ _____    ______ ____
ROOT
ATOM      1  C   UNL     1       3.938   3.178  -0.447  0.00  0.00    +0.043 C 
ATOM      2  C   UNL     1       3.057   3.976   0.177  0.00  0.00    +0.014 C 
ATOM      3  N   UNL     1       1.848   3.486   0.588  0.00  0.00    -0.321 N 
ATOM      4  C   UNL     1       1.342   2.335   0.047  0.00  0.00    +0.016 C 
ATOM      5  C   UNL     1       2.153   1.462  -0.586  0.00  0.00    +0.024 C 
ATOM      6  C   UNL     1       3.632   1.732  -0.705  0.00  0.00    +0.092 C 
ATOM      7  C   UNL     1       1.646   0.278  -1.149  0.00  0.00    +0.162 C 
ATOM      8  O   UNL     1       2.401  -0.480  -1.726  0.00  0.00    -0.292 OA
ATOM      9  C   UNL     1       0.185  -0.068  -1.051  0.00  0.00    +0.086 C 
ATOM     10  C   UNL     1      -0.391   0.564   0.221  0.00  0.00    -0.023 C 
ATOM     11  C   UNL     1      -0.139   2.073   0.170  0.00  0.00    +0.058 C 
ATOM     12  C   UNL     1       0.299  -0.032   1.449  0.00  0.00    +0.011 C 
ATOM     13  C   UNL     1      -1.896   0.297   0.296  0.00  0.00    +0.011 C 
ATOM     14  C   UNL     1       3.403   5.422   0.426  0.00  0.00    +0.061 C 
ATOM     15  H   UNL     1       1.273   4.018   1.360  0.00  0.00    +0.152 HD
ENDROOT
BRANCH   1  24
ATOM     16  C   UNL     1      10.872   6.490  -1.669  0.00  0.00    +0.045 C 
ATOM     17  C   UNL     1       9.622   5.806  -1.179  0.00  0.00    -0.032 A 
ATOM     18  C   UNL     1       9.537   5.355   0.132  0.00  0.00    +0.008 A 
ATOM     19  C   UNL     1       8.372   4.732   0.541  0.00  0.00    +0.044 A 
ATOM     20  C   UNL     1       7.330   4.581  -0.368  0.00  0.00    +0.125 A 
ATOM     21  N   UNL     1       7.452   5.021  -1.611  0.00  0.00    -0.240 NA
ATOM     22  C   UNL     1       8.549   5.622  -2.028  0.00  0.00    +0.116 A 
ATOM     23  N   UNL     1       6.151   3.956   0.031  0.00  0.00    -0.267 N 
ATOM     24  C   UNL     1       5.180   3.711  -0.871  0.00  0.00    +0.248 C 
ATOM     25  O   UNL     1       5.370   3.948  -2.050  0.00  0.00    -0.270 OA
ATOM     26  H   UNL     1       6.013   3.662   1.082  0.00  0.00    +0.157 HD
ENDBRANCH   1  24
BRANCH   6  27
ATOM     27  C   UNL     1       4.372   0.883   0.297  0.00  0.00    -0.017 A 
ATOM     28  C   UNL     1       5.313  -0.043  -0.126  0.00  0.00    +0.007 A 
ATOM     29  C   UNL     1       5.973  -0.798   0.831  0.00  0.00    +0.020 A 
ATOM     30  C   UNL     1       5.665  -0.611   2.166  0.00  0.00    +0.111 A 
ATOM     31  N   UNL     1       4.761   0.276   2.532  0.00  0.00    -0.263 NA
ATOM     32  C   UNL     1       4.117   1.015   1.649  0.00  0.00    +0.115 A 
ENDBRANCH   6  27
TORSDOF 2
