REMARK  Name = ZINC04607772
REMARK  10 active torsions:
REMARK  status: ('A' for Active; 'I' for Inactive)
REMARK    1  A    between atoms: C_1  and  N_2
REMARK    2  A    between atoms: N_2  and  C_3
REMARK    3  A    between atoms: N_2  and  C_4
REMARK    4  A    between atoms: C_7  and  C_10
REMARK    5  A    between atoms: N_11  and  C_12
REMARK    6  A    between atoms: C_14  and  O_27
REMARK    7  A    between atoms: C_16  and  O_26
REMARK    8  A    between atoms: C_18  and  C_24
REMARK    9  A    between atoms: C_21  and  O_23
REMARK   10  A    between atoms: C_24  and  O_25
REMARK                            x       y       z     vdW  Elec       q    Type
REMARK                         _______ _______ _______ _____ _____    ______ ____
ROOT
ATOM      1  C   UNL     1       2.091  -0.124  -1.207  0.00  0.00    +0.192 C 
ATOM      2  C   UNL     1       2.147   1.406  -1.233  0.00  0.00    +0.175 C 
ATOM      3  C   UNL     1       1.419   1.953  -0.001  0.00  0.00    +0.176 C 
ATOM      4  C   UNL     1      -0.017   1.425   0.010  0.00  0.00    +0.178 C 
ATOM      5  O   UNL     1       0.002  -0.004   0.002  0.00  0.00    -0.341 OA
ATOM      6  C   UNL     1       0.628  -0.573  -1.150  0.00  0.00    +0.275 C 
ENDROOT
BRANCH   1   8
ATOM      7  C   UNL     1       3.818  -1.411  -0.167  0.00  0.00    +0.113 C 
ATOM      8  N   UNL     1       2.802  -0.621  -0.026  0.00  0.00    -0.280 NA
BRANCH   7  12
ATOM      9  C   UNL     1       5.878  -2.849   3.255  0.00  0.00    +0.029 A 
ATOM     10  C   UNL     1       6.296  -3.228   1.982  0.00  0.00    +0.024 A 
ATOM     11  C   UNL     1       5.630  -2.763   0.871  0.00  0.00    +0.011 A 
ATOM     12  C   UNL     1       4.533  -1.910   1.021  0.00  0.00    -0.007 A 
ATOM     13  C   UNL     1       4.119  -1.527   2.300  0.00  0.00    +0.011 A 
ATOM     14  C   UNL     1       4.786  -2.000   3.408  0.00  0.00    +0.024 A 
BRANCH   9  16
ATOM     15  C   UNL     1       7.703  -4.214   4.217  0.00  0.00    +0.129 C 
ATOM     16  N   UNL     1       6.554  -3.320   4.377  0.00  0.00    -0.336 N 
ATOM     17  C   UNL     1       6.115  -2.922   5.717  0.00  0.00    +0.129 C 
ENDBRANCH   9  16
ENDBRANCH   7  12
ENDBRANCH   1   8
BRANCH   6  18
ATOM     18  O   UNL     1       0.569  -1.998  -1.069  0.00  0.00    -0.365 OA
ATOM     19  H   UNL     1      -0.329  -2.353  -1.029  0.00  0.00    +0.213 HD
ENDBRANCH   6  18
BRANCH   3  20
ATOM     20  O   UNL     1       2.095   1.524   1.183  0.00  0.00    -0.387 OA
ATOM     21  H   UNL     1       1.685   1.831   2.003  0.00  0.00    +0.210 HD
ENDBRANCH   3  20
BRANCH   2  22
ATOM     22  O   UNL     1       3.510   1.835  -1.212  0.00  0.00    -0.387 OA
ATOM     23  H   UNL     1       3.621   2.795  -1.227  0.00  0.00    +0.210 HD
ENDBRANCH   2  22
BRANCH   4  24
ATOM     24  C   UNL     1      -0.733   1.919   1.269  0.00  0.00    +0.190 C 
BRANCH  24  25
ATOM     25  O   UNL     1      -2.105   1.522   1.223  0.00  0.00    -0.392 OA
ATOM     26  H   UNL     1      -2.621   1.802   1.991  0.00  0.00    +0.210 HD
ENDBRANCH  24  25
ENDBRANCH   4  24
TORSDOF 8
