REMARK  Name = ZINC67408030
REMARK  12 active torsions:
REMARK  status: ('A' for Active; 'I' for Inactive)
REMARK    1  A    between atoms: C_1  and  C_2
REMARK    2  A    between atoms: C_7  and  C_9
REMARK    3  A    between atoms: C_7  and  N_22
REMARK    4  A    between atoms: C_9  and  N_10
REMARK    5  A    between atoms: N_13  and  N_14
REMARK    6  A    between atoms: C_15  and  C_17
REMARK    7  A    between atoms: C_17  and  C_18
REMARK    8  A    between atoms: C_18  and  C_19
REMARK    9  A    between atoms: C_19  and  C_20
REMARK   10  A    between atoms: C_19  and  C_21
REMARK   11  A    between atoms: N_22  and  C_23
REMARK   12  A    between atoms: N_22  and  C_24
REMARK                            x       y       z     vdW  Elec       q    Type
REMARK                         _______ _______ _______ _____ _____    ______ ____
ROOT
ATOM      1  N   UNL     1       1.149  -4.115   2.383  0.00  0.00    -0.300 N 
ATOM      2  C   UNL     1       1.601  -4.886   3.392  0.00  0.00    +0.316 C 
ATOM      3  O   UNL     1       2.207  -4.381   4.318  0.00  0.00    -0.251 OA
ATOM      4  N   UNL     1       1.381  -6.215   3.375  0.00  0.00    -0.218 N 
ATOM      5  H   UNL     1       0.666  -4.517   1.644  0.00  0.00    +0.150 HD
ATOM      6  H   UNL     1       1.706  -6.770   4.101  0.00  0.00    +0.174 HD
ENDROOT
BRANCH   4   7
ATOM      7  N   UNL     1       0.683  -6.796   2.308  0.00  0.00    -0.233 N 
ATOM      8  C   UNL     1       0.464  -8.126   2.291  0.00  0.00    +0.229 C 
ATOM      9  O   UNL     1       0.870  -8.819   3.199  0.00  0.00    -0.274 OA
ATOM     10  H   UNL     1       0.358  -6.242   1.582  0.00  0.00    +0.173 HD
BRANCH   8  11
ATOM     11  C   UNL     1      -0.287  -8.751   1.144  0.00  0.00    +0.097 C 
BRANCH  11  12
ATOM     12  C   UNL     1      -0.398 -10.261   1.369  0.00  0.00    +0.012 C 
BRANCH  12  13
ATOM     13  C   UNL     1      -1.160 -10.895   0.203  0.00  0.00    -0.017 C 
ATOM     14  C   UNL     1      -0.349 -10.736  -1.084  0.00  0.00    +0.007 C 
ATOM     15  C   UNL     1      -1.379 -12.382   0.487  0.00  0.00    +0.007 C 
ENDBRANCH  12  13
ENDBRANCH  11  12
ENDBRANCH   8  11
ENDBRANCH   4   7
BRANCH   1  16
ATOM     16  C   UNL     1       1.388  -2.670   2.401  0.00  0.00    +0.094 C 
BRANCH  16  22
ATOM     17  C   UNL     1       1.112  -2.509  -2.585  0.00  0.00    +0.007 C 
ATOM     18  C   UNL     1       0.543  -1.940  -1.284  0.00  0.00    -0.015 C 
ATOM     19  C   UNL     1      -0.956  -2.236  -1.210  0.00  0.00    +0.003 C 
ATOM     20  C   UNL     1      -1.525  -1.667   0.091  0.00  0.00    -0.001 C 
ATOM     21  C   UNL     1      -0.818  -2.316   1.283  0.00  0.00    -0.010 C 
ATOM     22  C   UNL     1       0.681  -2.021   1.210  0.00  0.00    -0.050 C 
ATOM     23  C   UNL     1       1.250  -2.589  -0.092  0.00  0.00    -0.007 C 
BRANCH  22  24
ATOM     24  N   UNL     1       0.896  -0.568   1.245  0.00  0.00    +0.381 N 
ATOM     25  C   UNL     1       0.328  -0.018   2.483  0.00  0.00    -0.096 C 
ATOM     26  C   UNL     1       2.337  -0.285   1.199  0.00  0.00    -0.096 C 
ATOM     27  H   UNL     1       0.444  -0.142   0.449  0.00  0.00    -0.082 HD
ENDBRANCH  22  24
ENDBRANCH  16  22
ENDBRANCH   1  16
TORSDOF 7
