REMARK  Name = ZINC46538787
REMARK  4 active torsions:
REMARK  status: ('A' for Active; 'I' for Inactive)
REMARK    1  A    between atoms: C_1  and  C_2
REMARK    2  A    between atoms: C_2  and  N_3
REMARK    3  A    between atoms: N_14  and  N_15
REMARK    4  A    between atoms: C_16  and  C_18
REMARK                            x       y       z     vdW  Elec       q    Type
REMARK                         _______ _______ _______ _____ _____    ______ ____
ROOT
ATOM      1  N   UNL     1      -1.372  -0.511   0.012  0.00  0.00    -0.280 N 
ATOM      2  C   UNL     1      -1.992  -0.745   1.192  0.00  0.00    +0.263 A 
ATOM      3  O   UNL     1      -1.430  -0.540   2.252  0.00  0.00    -0.267 OA
ATOM      4  C   UNL     1      -3.370  -1.253   1.147  0.00  0.00    +0.065 A 
ATOM      5  C   UNL     1      -4.095  -1.524   2.307  0.00  0.00    +0.015 A 
ATOM      6  C   UNL     1      -5.375  -1.995   2.207  0.00  0.00    +0.001 A 
ATOM      7  C   UNL     1      -5.958  -2.206   0.964  0.00  0.00    +0.002 A 
ATOM      8  C   UNL     1      -5.271  -1.948  -0.188  0.00  0.00    +0.028 A 
ATOM      9  C   UNL     1      -3.961  -1.466  -0.119  0.00  0.00    +0.080 A 
ATOM     10  N   UNL     1      -3.243  -1.197  -1.235  0.00  0.00    -0.214 NA
ATOM     11  C   UNL     1      -2.018  -0.739  -1.168  0.00  0.00    +0.216 A 
ATOM     12  N   UNL     1      -1.351  -0.482  -2.339  0.00  0.00    -0.234 N 
ATOM     13  H   UNL     1      -0.441  -0.147  -2.315  0.00  0.00    +0.173 HD
ENDROOT
BRANCH  12  14
ATOM     14  N   UNL     1      -1.983  -0.705  -3.569  0.00  0.00    -0.230 N 
ATOM     15  C   UNL     1      -1.327  -0.453  -4.719  0.00  0.00    +0.259 C 
ATOM     16  O   UNL     1      -0.186  -0.032  -4.689  0.00  0.00    -0.269 OA
ATOM     17  H   UNL     1      -2.893  -1.040  -3.593  0.00  0.00    +0.173 HD
BRANCH  15  18
ATOM     18  C   UNL     1      -1.988  -0.685  -6.003  0.00  0.00    +0.053 C 
ATOM     19  C   UNL     1      -1.329  -0.437  -7.162  0.00  0.00    +0.023 C 
ATOM     20  C   UNL     1      -2.047  -0.669  -8.425  0.00  0.00    +0.017 A 
ATOM     21  C   UNL     1      -1.371  -0.765  -9.640  0.00  0.00    +0.011 A 
ATOM     22  C   UNL     1      -2.086  -0.984 -10.800  0.00  0.00    +0.001 A 
ATOM     23  C   UNL     1      -3.466  -1.107 -10.759  0.00  0.00    +0.004 A 
ATOM     24  C   UNL     1      -4.146  -1.013  -9.560  0.00  0.00    +0.046 A 
ATOM     25  C   UNL     1      -3.447  -0.794  -8.386  0.00  0.00    +0.128 A 
ATOM     26  O   UNL     1      -4.084  -0.698  -7.194  0.00  0.00    -0.487 OA
ATOM     27  C   UNL     1      -3.401  -1.206  -6.044  0.00  0.00    +0.269 C 
ENDBRANCH  15  18
ENDBRANCH  12  14
BRANCH   1  29
ATOM     28  C   UNL     1      -0.019   1.526   0.010  0.00  0.00    +0.027 C 
ATOM     29  C   UNL     1       0.002  -0.004   0.002  0.00  0.00    +0.125 C 
ENDBRANCH   1  29
TORSDOF 3
