REMARK  Name = ZINC16844983
REMARK  9 active torsions:
REMARK  status: ('A' for Active; 'I' for Inactive)
REMARK    1  A    between atoms: C_1  and  C_2
REMARK    2  A    between atoms: C_2  and  C_3
REMARK    3  A    between atoms: C_3  and  C_22
REMARK    4  A    between atoms: C_10  and  N_16
REMARK    5  A    between atoms: C_12  and  S_14
REMARK    6  A    between atoms: S_14  and  C_15
REMARK    7  A    between atoms: N_16  and  C_17
REMARK    8  A    between atoms: C_17  and  C_18
REMARK    9  A    between atoms: C_17  and  C_19
REMARK                            x       y       z     vdW  Elec       q    Type
REMARK                         _______ _______ _______ _____ _____    ______ ____
ROOT
ATOM      1  C   UNL     1       4.291   4.601   1.333  0.00  0.00    +0.071 C 
ATOM      2  C   UNL     1       3.338   3.674   0.573  0.00  0.00    +0.071 C 
ATOM      3  C   UNL     1       4.179   2.704  -0.253  0.00  0.00    -0.020 A 
ATOM      4  C   UNL     1       5.476   2.989  -0.499  0.00  0.00    +0.021 A 
ATOM      5  S   UNL     1       6.071   1.633  -1.468  0.00  0.00    -0.071 S 
ATOM      6  C   UNL     1       4.575   0.681  -1.543  0.00  0.00    +0.115 A 
ATOM      7  C   UNL     1       3.656   1.456  -0.806  0.00  0.00    +0.051 A 
ATOM      8  C   UNL     1       2.343   0.915  -0.702  0.00  0.00    +0.132 A 
ATOM      9  N   UNL     1       2.074  -0.244  -1.278  0.00  0.00    -0.206 NA
ATOM     10  C   UNL     1       2.988  -0.921  -1.963  0.00  0.00    +0.191 A 
ATOM     11  N   UNL     1       4.227  -0.466  -2.093  0.00  0.00    -0.215 NA
ATOM     12  C   UNL     1       6.218   4.204  -0.036  0.00  0.00    +0.203 C 
ATOM     13  O   UNL     1       5.254   5.159   0.436  0.00  0.00    -0.368 OA
ATOM     14  C   UNL     1       5.014   3.803   2.421  0.00  0.00    +0.042 C 
ENDROOT
BRANCH   1  16
ATOM     15  C   UNL     1       4.438   6.648   2.758  0.00  0.00    +0.007 C 
ATOM     16  C   UNL     1       3.490   5.730   1.984  0.00  0.00    +0.032 C 
ENDBRANCH   1  16
BRANCH  10  17
ATOM     17  S   UNL     1       2.549  -2.457  -2.707  0.00  0.00    -0.089 S 
ATOM     18  C   UNL     1       4.131  -2.903  -3.464  0.00  0.00    +0.093 C 
ENDBRANCH  10  17
BRANCH   8  19
ATOM     19  N   UNL     1       1.362   1.593  -0.002  0.00  0.00    -0.326 N 
ATOM     20  H   UNL     1       1.542   2.478   0.352  0.00  0.00    +0.148 HD
BRANCH  19  21
ATOM     21  C   UNL     1       0.050   0.974   0.203  0.00  0.00    +0.066 C 
ATOM     22  C   UNL     1      -0.838   1.244  -1.013  0.00  0.00    +0.027 C 
ATOM     23  C   UNL     1      -0.604   1.568   1.453  0.00  0.00    +0.027 C 
ENDBRANCH  19  21
ENDBRANCH   8  19
TORSDOF 4
