REMARK  Name = ZINC63883529
REMARK  4 active torsions:
REMARK  status: ('A' for Active; 'I' for Inactive)
REMARK    1  A    between atoms: C_1  and  C_2
REMARK    2  A    between atoms: C_4  and  C_10
REMARK    3  A    between atoms: C_5  and  C_9
REMARK    4  A    between atoms: N_6  and  C_8
REMARK                            x       y       z     vdW  Elec       q    Type
REMARK                         _______ _______ _______ _____ _____    ______ ____
ROOT
ATOM      1  C   UNL     1      -2.711  -0.153  -0.573  0.00  0.00    +0.075 A 
ATOM      2  C   UNL     1      -3.950  -0.730  -0.253  0.00  0.00    +0.048 A 
ATOM      3  C   UNL     1      -5.046  -0.401  -1.023  0.00  0.00    +0.116 A 
ATOM      4  N   UNL     1      -4.900   0.442  -2.035  0.00  0.00    -0.223 NA
ATOM      5  C   UNL     1      -3.719   0.974  -2.318  0.00  0.00    +0.218 A 
ATOM      6  N   UNL     1      -2.641   0.693  -1.604  0.00  0.00    -0.215 NA
ATOM      7  N   UNL     1      -3.612   1.850  -3.384  0.00  0.00    -0.297 N 
ATOM      8  C   UNL     1      -2.310   2.439  -3.711  0.00  0.00    +0.112 C 
ATOM      9  C   UNL     1      -1.939   2.092  -5.164  0.00  0.00    +0.052 C 
ATOM     10  C   UNL     1      -3.173   2.341  -5.996  0.00  0.00    -0.036 C 
ATOM     11  C   UNL     1      -3.357   3.051  -7.102  0.00  0.00    -0.001 A 
ATOM     12  C   UNL     1      -2.412   3.761  -7.979  0.00  0.00    +0.010 A 
ATOM     13  C   UNL     1      -2.955   4.417  -9.039  0.00  0.00    +0.001 A 
ATOM     14  C   UNL     1      -4.327   4.436  -9.311  0.00  0.00    +0.002 A 
ATOM     15  C   UNL     1      -5.266   3.804  -8.563  0.00  0.00    +0.026 A 
ATOM     16  C   UNL     1      -4.816   3.073  -7.426  0.00  0.00    +0.043 A 
ATOM     17  N   UNL     1      -5.484   2.366  -6.562  0.00  0.00    -0.376 N 
ATOM     18  C   UNL     1      -4.534   1.762  -5.628  0.00  0.00    +0.124 C 
ATOM     19  C   UNL     1      -4.805   2.174  -4.182  0.00  0.00    +0.137 C 
ATOM     20  H   UNL     1      -6.447   2.258  -6.541  0.00  0.00    +0.160 HD
ENDROOT
BRANCH   1  23
ATOM     21  C   UNL     1      -1.709  -2.894   0.801  0.00  0.00    +0.031 C 
ATOM     22  C   UNL     1      -1.403  -1.491   1.329  0.00  0.00    +0.103 C 
ATOM     23  C   UNL     1      -1.512  -0.470   0.216  0.00  0.00    +0.014 C 
ATOM     24  C   UNL     1      -0.300   0.086   0.093  0.00  0.00    +0.025 C 
ATOM     25  N   UNL     1       0.589  -0.444   0.988  0.00  0.00    -0.273 N 
ATOM     26  N   UNL     1       0.003  -1.400   1.771  0.00  0.00    -0.233 NA
ATOM     27  C   UNL     1       1.993  -0.038   1.095  0.00  0.00    +0.149 C 
ATOM     28  C   UNL     1       0.042   1.161  -0.906  0.00  0.00    +0.062 C 
ATOM     29  H   UNL     1       0.472  -2.287   1.671  0.00  0.00    +0.145 HD
ENDBRANCH   1  23
TORSDOF 1
