REMARK  Name = ZINC36494960
REMARK  16 active torsions:
REMARK  status: ('A' for Active; 'I' for Inactive)
REMARK    1  A    between atoms: C_1  and  C_2
REMARK    2  A    between atoms: C_2  and  C_3
REMARK    3  A    between atoms: C_2  and  C_4
REMARK    4  A    between atoms: C_2  and  N_5
REMARK    5  A    between atoms: C_6  and  C_8
REMARK    6  A    between atoms: C_8  and  C_10
REMARK    7  A    between atoms: C_8  and  N_19
REMARK    8  A    between atoms: C_11  and  O_18
REMARK    9  A    between atoms: C_13  and  O_17
REMARK   10  A    between atoms: C_15  and  O_16
REMARK   11  A    between atoms: N_19  and  C_20
REMARK   12  A    between atoms: C_20  and  C_21
REMARK   13  A    between atoms: C_26  and  C_28
REMARK   14  A    between atoms: C_28  and  C_30
REMARK   15  A    between atoms: C_28  and  O_36
REMARK   16  A    between atoms: O_36  and  C_37
REMARK                            x       y       z     vdW  Elec       q    Type
REMARK                         _______ _______ _______ _____ _____    ______ ____
ROOT
ATOM      1  C   UNL     1       2.332  -0.753  -3.208  0.00  0.00    +0.200 C 
ENDROOT
BRANCH   1   2
ATOM      2  C   UNL     1       2.304  -2.207  -3.604  0.00  0.00    +0.065 A 
ATOM      3  C   UNL     1       3.076  -3.129  -2.913  0.00  0.00    +0.129 A 
ATOM      4  C   UNL     1       3.051  -4.467  -3.277  0.00  0.00    +0.091 A 
ATOM      5  C   UNL     1       2.252  -4.883  -4.332  0.00  0.00    +0.124 A 
ATOM      6  C   UNL     1       1.479  -3.961  -5.022  0.00  0.00    +0.091 A 
ATOM      7  C   UNL     1       1.502  -2.624  -4.655  0.00  0.00    +0.129 A 
BRANCH   7   8
ATOM      8  O   UNL     1       0.741  -1.722  -5.329  0.00  0.00    -0.506 OA
ATOM      9  H   UNL     1       1.186  -1.320  -6.087  0.00  0.00    +0.292 HD
ENDBRANCH   7   8
BRANCH   5  10
ATOM     10  O   UNL     1       2.228  -6.194  -4.689  0.00  0.00    -0.507 OA
ATOM     11  H   UNL     1       1.553  -6.714  -4.232  0.00  0.00    +0.292 HD
ENDBRANCH   5  10
BRANCH   3  12
ATOM     12  O   UNL     1       3.859  -2.721  -1.880  0.00  0.00    -0.506 OA
ATOM     13  H   UNL     1       3.445  -2.816  -1.011  0.00  0.00    +0.292 HD
ENDBRANCH   3  12
ENDBRANCH   1   2
BRANCH   1  15
ATOM     14  N   UNL     1       0.664  -1.029  -1.403  0.00  0.00    -0.309 N 
ATOM     15  C   UNL     1       1.892  -0.615  -1.774  0.00  0.00    +0.239 C 
ATOM     16  O   UNL     1       2.642  -0.130  -0.953  0.00  0.00    -0.273 OA
ATOM     17  H   UNL     1       0.064  -1.417  -2.059  0.00  0.00    +0.149 HD
BRANCH  14  19
ATOM     18  C   UNL     1       0.264   0.582   0.394  0.00  0.00    +0.031 C 
ATOM     19  C   UNL     1       0.236  -0.894  -0.008  0.00  0.00    +0.026 C 
ATOM     20  C   UNL     1       1.183  -1.687   0.895  0.00  0.00    +0.031 C 
ATOM     21  C   UNL     1      -1.187  -1.437   0.143  0.00  0.00    +0.031 C 
ENDBRANCH  14  19
ENDBRANCH   1  15
BRANCH   1  22
ATOM     22  N   UNL     1       3.694  -0.234  -3.353  0.00  0.00    -0.276 N 
ATOM     23  C   UNL     1       3.992   1.007  -2.921  0.00  0.00    +0.250 C 
ATOM     24  O   UNL     1       3.148   1.672  -2.358  0.00  0.00    -0.272 OA
BRANCH  22  25
ATOM     25  C   UNL     1       4.733  -1.064  -3.968  0.00  0.00    +0.183 C 
BRANCH  25  26
ATOM     26  C   UNL     1       4.803  -0.769  -5.444  0.00  0.00    +0.122 A 
ATOM     27  C   UNL     1       5.797  -0.113  -6.069  0.00  0.00    +0.046 A 
ATOM     28  C   UNL     1       5.457  -0.063  -7.440  0.00  0.00    +0.041 A 
ATOM     29  C   UNL     1       4.275  -0.692  -7.571  0.00  0.00    +0.195 A 
ATOM     30  O   UNL     1       3.887  -1.123  -6.360  0.00  0.00    -0.466 OA
ENDBRANCH  25  26
ENDBRANCH  22  25
BRANCH  23  31
ATOM     31  C   UNL     1       5.373   1.569  -3.136  0.00  0.00    +0.233 C 
BRANCH  31  32
ATOM     32  C   UNL     1       6.321   0.973  -2.127  0.00  0.00    -0.010 A 
ATOM     33  C   UNL     1       6.155   1.240  -0.781  0.00  0.00    +0.006 A 
ATOM     34  C   UNL     1       7.024   0.693   0.144  0.00  0.00    +0.000 A 
ATOM     35  C   UNL     1       8.059  -0.121  -0.277  0.00  0.00    +0.000 A 
ATOM     36  C   UNL     1       8.225  -0.389  -1.623  0.00  0.00    +0.000 A 
ATOM     37  C   UNL     1       7.353   0.155  -2.548  0.00  0.00    +0.006 A 
ENDBRANCH  31  32
BRANCH  31  38
ATOM     38  O   UNL     1       5.340   2.989  -2.977  0.00  0.00    -0.366 OA
ATOM     39  C   UNL     1       5.073   3.703  -4.186  0.00  0.00    +0.195 C 
ENDBRANCH  31  38
ENDBRANCH  23  31
ENDBRANCH   1  22
TORSDOF 12
