REMARK  Name = ZINC40732560
REMARK  7 active torsions:
REMARK  status: ('A' for Active; 'I' for Inactive)
REMARK    1  A    between atoms: C_1  and  C_2
REMARK    2  A    between atoms: C_2  and  C_3
REMARK    3  A    between atoms: C_3  and  C_5
REMARK    4  A    between atoms: C_3  and  N_6
REMARK    5  A    between atoms: C_8  and  N_21
REMARK    6  A    between atoms: C_9  and  N_13
REMARK    7  A    between atoms: C_18  and  C_20
REMARK                            x       y       z     vdW  Elec       q    Type
REMARK                         _______ _______ _______ _____ _____    ______ ____
ROOT
ATOM      1  N   UNL     1       2.036  -0.176   1.554  0.00  0.00    -0.325 N 
ATOM      2  C   UNL     1       2.855  -0.046   2.669  0.00  0.00    +0.145 A 
ATOM      3  C   UNL     1       4.190   0.338   2.527  0.00  0.00    +0.105 A 
ATOM      4  C   UNL     1       4.969   0.454   3.679  0.00  0.00    +0.147 A 
ATOM      5  N   UNL     1       4.414   0.195   4.861  0.00  0.00    -0.219 NA
ATOM      6  C   UNL     1       3.150  -0.165   4.951  0.00  0.00    +0.225 A 
ATOM      7  N   UNL     1       2.379  -0.281   3.889  0.00  0.00    -0.219 NA
ATOM      8  H   UNL     1       2.391  -0.003   0.668  0.00  0.00    +0.148 HD
ENDROOT
BRANCH   4   9
ATOM      9  N   UNL     1       6.303   0.833   3.594  0.00  0.00    -0.311 N 
ATOM     10  C   UNL     1       7.355  -0.172   3.387  0.00  0.00    +0.107 C 
ATOM     11  C   UNL     1       8.413  -0.011   4.483  0.00  0.00    +0.019 C 
ATOM     12  C   UNL     1       8.917   1.434   4.493  0.00  0.00    +0.003 C 
ATOM     13  C   UNL     1       7.754   2.380   4.802  0.00  0.00    +0.022 C 
ATOM     14  C   UNL     1       6.688   2.247   3.703  0.00  0.00    +0.072 C 
ATOM     15  C   UNL     1       5.462   3.085   4.071  0.00  0.00    +0.028 C 
ENDBRANCH   4   9
BRANCH   3  16
ATOM     16  N   UNL     1       4.734   0.601   1.259  0.00  0.00    -0.353 N 
ATOM     17  H   UNL     1       4.213   0.423   0.461  0.00  0.00    +0.143 HD
ATOM     18  H   UNL     1       5.631   0.961   1.181  0.00  0.00    +0.143 HD
ENDBRANCH   3  16
BRANCH   1  19
ATOM     19  C   UNL     1       0.635  -0.574   1.716  0.00  0.00    +0.068 C 
ATOM     20  C   UNL     1       0.543  -2.100   1.780  0.00  0.00    +0.028 C 
BRANCH  19  22
ATOM     21  C   UNL     1      -0.192   1.467   0.537  0.00  0.00    +0.005 C 
ATOM     22  C   UNL     1      -0.181  -0.063   0.528  0.00  0.00    +0.018 C 
ENDBRANCH  19  22
ENDBRANCH   1  19
TORSDOF 4
