REMARK  Name = ZINC36496869
REMARK  16 active torsions:
REMARK  status: ('A' for Active; 'I' for Inactive)
REMARK    1  A    between atoms: C_1  and  C_2
REMARK    2  A    between atoms: C_2  and  C_3
REMARK    3  A    between atoms: C_3  and  C_5
REMARK    4  A    between atoms: C_3  and  C_11
REMARK    5  A    between atoms: N_13  and  C_14
REMARK    6  A    between atoms: N_13  and  C_20
REMARK    7  A    between atoms: C_14  and  C_15
REMARK    8  A    between atoms: C_20  and  C_22
REMARK    9  A    between atoms: C_20  and  C_31
REMARK   10  A    between atoms: C_23  and  O_30
REMARK   11  A    between atoms: C_25  and  O_29
REMARK   12  A    between atoms: C_27  and  O_28
REMARK   13  A    between atoms: N_33  and  C_34
REMARK   14  A    between atoms: C_34  and  C_35
REMARK   15  A    between atoms: C_34  and  C_36
REMARK   16  A    between atoms: C_34  and  C_37
REMARK                            x       y       z     vdW  Elec       q    Type
REMARK                         _______ _______ _______ _____ _____    ______ ____
ROOT
ATOM      1  C   UNL     1      -2.883   1.671  -3.245  0.00  0.00    +0.200 C 
ENDROOT
BRANCH   1   2
ATOM      2  C   UNL     1      -2.111   0.903  -4.287  0.00  0.00    +0.065 A 
ATOM      3  C   UNL     1      -0.748   0.704  -4.132  0.00  0.00    +0.129 A 
ATOM      4  C   UNL     1      -0.037  -0.003  -5.091  0.00  0.00    +0.091 A 
ATOM      5  C   UNL     1      -0.690  -0.509  -6.205  0.00  0.00    +0.124 A 
ATOM      6  C   UNL     1      -2.054  -0.310  -6.359  0.00  0.00    +0.091 A 
ATOM      7  C   UNL     1      -2.765   0.392  -5.398  0.00  0.00    +0.129 A 
BRANCH   7   8
ATOM      8  O   UNL     1      -4.102   0.584  -5.547  0.00  0.00    -0.506 OA
ATOM      9  H   UNL     1      -4.333   1.390  -6.027  0.00  0.00    +0.292 HD
ENDBRANCH   7   8
BRANCH   5  10
ATOM     10  O   UNL     1       0.006  -1.201  -7.145  0.00  0.00    -0.507 OA
ATOM     11  H   UNL     1       0.049  -2.153  -6.982  0.00  0.00    +0.292 HD
ENDBRANCH   5  10
BRANCH   3  12
ATOM     12  O   UNL     1      -0.107   1.200  -3.041  0.00  0.00    -0.506 OA
ATOM     13  H   UNL     1      -0.004   0.562  -2.322  0.00  0.00    +0.292 HD
ENDBRANCH   3  12
ENDBRANCH   1   2
BRANCH   1  14
ATOM     14  C   UNL     1      -2.527   3.133  -3.332  0.00  0.00    +0.239 C 
ATOM     15  O   UNL     1      -1.965   3.676  -2.405  0.00  0.00    -0.273 OA
ATOM     16  N   UNL     1      -2.835   3.837  -4.439  0.00  0.00    -0.309 N 
ATOM     17  H   UNL     1      -3.285   3.402  -5.180  0.00  0.00    +0.149 HD
BRANCH  16  18
ATOM     18  C   UNL     1      -2.489   5.258  -4.523  0.00  0.00    +0.026 C 
ATOM     19  C   UNL     1      -0.974   5.423  -4.389  0.00  0.00    +0.031 C 
ATOM     20  C   UNL     1      -2.946   5.814  -5.873  0.00  0.00    +0.031 C 
ATOM     21  C   UNL     1      -3.187   6.020  -3.395  0.00  0.00    +0.031 C 
ENDBRANCH  16  18
ENDBRANCH   1  14
BRANCH   1  24
ATOM     22  C   UNL     1      -3.172   0.076  -1.425  0.00  0.00    +0.224 C 
ATOM     23  O   UNL     1      -3.971  -0.522  -2.115  0.00  0.00    -0.275 OA
ATOM     24  N   UNL     1      -2.543   1.164  -1.913  0.00  0.00    -0.278 N 
BRANCH  22  25
ATOM     25  C   UNL     1      -2.883  -0.396  -0.024  0.00  0.00    +0.105 C 
BRANCH  25  26
ATOM     26  C   UNL     1      -4.180  -0.573   0.724  0.00  0.00    -0.036 A 
ATOM     27  C   UNL     1      -5.129  -1.464   0.260  0.00  0.00    +0.004 A 
ATOM     28  C   UNL     1      -6.318  -1.627   0.946  0.00  0.00    +0.000 A 
ATOM     29  C   UNL     1      -6.558  -0.897   2.095  0.00  0.00    +0.000 A 
ATOM     30  C   UNL     1      -5.609  -0.006   2.560  0.00  0.00    +0.000 A 
ATOM     31  C   UNL     1      -4.418   0.153   1.876  0.00  0.00    +0.004 A 
ENDBRANCH  25  26
BRANCH  25  33
ATOM     32  C   UNL     1      -0.780  -1.532  -0.751  0.00  0.00    +0.005 C 
ATOM     33  C   UNL     1      -2.140  -1.732  -0.078  0.00  0.00    +0.014 C 
ENDBRANCH  25  33
ENDBRANCH  22  25
BRANCH  24  34
ATOM     34  C   UNL     1      -1.519   1.839  -1.112  0.00  0.00    +0.183 C 
BRANCH  34  35
ATOM     35  C   UNL     1      -2.183   2.749  -0.111  0.00  0.00    +0.122 A 
ATOM     36  C   UNL     1      -2.173   2.591   1.224  0.00  0.00    +0.046 A 
ATOM     37  C   UNL     1      -2.913   3.665   1.770  0.00  0.00    +0.041 A 
ATOM     38  C   UNL     1      -3.331   4.416   0.735  0.00  0.00    +0.195 A 
ATOM     39  O   UNL     1      -2.881   3.859  -0.402  0.00  0.00    -0.466 OA
ENDBRANCH  34  35
ENDBRANCH  24  34
ENDBRANCH   1  24
TORSDOF 12
