REMARK  Name = ZINC19772002
REMARK  3 active torsions:
REMARK  status: ('A' for Active; 'I' for Inactive)
REMARK    1  A    between atoms: C_3  and  N_19
REMARK    2  A    between atoms: C_6  and  C_7
REMARK    3  A    between atoms: C_9  and  C_12
REMARK                            x       y       z     vdW  Elec       q    Type
REMARK                         _______ _______ _______ _____ _____    ______ ____
ROOT
ATOM      1  C   UNL     1       4.558   0.620  -0.037  0.00  0.00    +0.259 A 
ATOM      2  N   UNL     1       3.708   1.631  -0.029  0.00  0.00    -0.187 NA
ATOM      3  C   UNL     1       2.481   1.069  -0.015  0.00  0.00    +0.202 A 
ATOM      4  N   UNL     1       2.646  -0.230  -0.024  0.00  0.00    -0.056 NA
ATOM      5  O   UNL     1       3.826  -0.505  -0.036  0.00  0.00    -0.332 OA
ENDROOT
BRANCH   3   6
ATOM      6  C   UNL     1       1.184   1.790   0.000  0.00  0.00    +0.023 A 
ATOM      7  C   UNL     1      -0.013   1.076   0.008  0.00  0.00    +0.014 A 
ATOM      8  C   UNL     1      -1.216   1.750   0.017  0.00  0.00    +0.039 A 
ATOM      9  C   UNL     1      -1.236   3.136   0.030  0.00  0.00    +0.123 A 
ATOM     10  C   UNL     1      -0.048   3.850   0.023  0.00  0.00    +0.039 A 
ATOM     11  C   UNL     1       1.159   3.183   0.008  0.00  0.00    +0.014 A 
ATOM     12  F   UNL     1      -2.417   3.792   0.045  0.00  0.00    -0.205 F 
ENDBRANCH   3   6
BRANCH   1  18
ATOM     13  C   UNL     1       6.656   1.961  -0.054  0.00  0.00    +0.015 A 
ATOM     14  C   UNL     1       8.030   2.043  -0.062  0.00  0.00    +0.023 A 
ATOM     15  C   UNL     1       8.798   0.882  -0.075  0.00  0.00    +0.025 A 
ATOM     16  C   UNL     1       8.179  -0.364  -0.076  0.00  0.00    +0.023 A 
ATOM     17  C   UNL     1       6.805  -0.452  -0.064  0.00  0.00    +0.015 A 
ATOM     18  C   UNL     1       6.032   0.711  -0.050  0.00  0.00    +0.040 A 
BRANCH  15  19
ATOM     19  N   UNL     1      10.188   0.968  -0.088  0.00  0.00    -0.358 N 
ATOM     20  H   UNL     1      10.795   0.051  -0.099  0.00  0.00    +0.142 HD
ATOM     21  H   UNL     1      10.678   1.953  -0.087  0.00  0.00    +0.142 HD
ENDBRANCH  15  19
ENDBRANCH   1  18
TORSDOF 3
