REMARK  Name = ZINC22759990
REMARK  9 active torsions:
REMARK  status: ('A' for Active; 'I' for Inactive)
REMARK    1  A    between atoms: C_1  and  C_2
REMARK    2  A    between atoms: C_2  and  C_3
REMARK    3  A    between atoms: C_2  and  C_4
REMARK    4  A    between atoms: C_2  and  C_5
REMARK    5  A    between atoms: C_12  and  C_14
REMARK    6  A    between atoms: N_16  and  N_17
REMARK    7  A    between atoms: C_18  and  C_20
REMARK    8  A    between atoms: N_26  and  C_33
REMARK    9  A    between atoms: N_29  and  C_32
REMARK                            x       y       z     vdW  Elec       q    Type
REMARK                         _______ _______ _______ _____ _____    ______ ____
ROOT
ATOM      1  N   UNL     1      -4.228   0.590   7.481  0.00  0.00    -0.230 N 
ATOM      2  C   UNL     1      -3.621   0.029   6.417  0.00  0.00    +0.262 C 
ATOM      3  O   UNL     1      -3.556  -1.182   6.323  0.00  0.00    -0.269 OA
ATOM      4  H   UNL     1      -4.288   1.685   7.566  0.00  0.00    +0.173 HD
ENDROOT
BRANCH   2   5
ATOM      5  C   UNL     1      -3.036   0.884   5.365  0.00  0.00    +0.057 A 
ATOM      6  C   UNL     1      -2.403   0.310   4.255  0.00  0.00    +0.031 A 
ATOM      7  C   UNL     1      -1.871   1.166   3.298  0.00  0.00    +0.083 A 
ATOM      8  C   UNL     1      -1.982   2.561   3.470  0.00  0.00    +0.149 A 
ATOM      9  N   UNL     1      -2.591   3.056   4.537  0.00  0.00    -0.236 NA
ATOM     10  C   UNL     1      -3.106   2.277   5.464  0.00  0.00    +0.126 A 
ATOM     11  N   UNL     1      -1.445   3.388   2.503  0.00  0.00    -0.281 N 
ATOM     12  C   UNL     1      -0.826   2.877   1.426  0.00  0.00    +0.333 A 
ATOM     13  O   UNL     1      -0.364   3.645   0.605  0.00  0.00    -0.246 OA
ATOM     14  N   UNL     1      -0.698   1.558   1.213  0.00  0.00    -0.263 N 
ATOM     15  C   UNL     1      -1.187   0.659   2.096  0.00  0.00    +0.266 A 
ATOM     16  O   UNL     1      -1.067  -0.535   1.903  0.00  0.00    -0.267 OA
ATOM     17  C   UNL     1      -0.013   1.086   0.008  0.00  0.00    +0.157 C 
ATOM     18  C   UNL     1      -1.547   4.841   2.658  0.00  0.00    +0.155 C 
ENDBRANCH   2   5
BRANCH   1  21
ATOM     19  C   UNL     1      -5.391   0.340   9.544  0.00  0.00    +0.267 C 
ATOM     20  O   UNL     1      -5.456   1.552   9.638  0.00  0.00    -0.268 OA
ATOM     21  N   UNL     1      -4.784  -0.221   8.479  0.00  0.00    -0.230 N 
ATOM     22  H   UNL     1      -4.724  -1.316   8.395  0.00  0.00    +0.173 HD
BRANCH  19  29
ATOM     23  C   UNL     1      -7.786  -2.099  14.769  0.00  0.00    -0.001 C 
ATOM     24  C   UNL     1      -8.294  -3.311  13.983  0.00  0.00    +0.009 C 
ATOM     25  C   UNL     1      -7.254  -3.678  12.915  0.00  0.00    +0.043 C 
ATOM     26  C   UNL     1      -6.858  -2.427  12.192  0.00  0.00    -0.006 A 
ATOM     27  C   UNL     1      -7.093  -1.140  12.584  0.00  0.00    -0.036 A 
ATOM     28  C   UNL     1      -6.625  -0.138  11.749  0.00  0.00    +0.024 A 
ATOM     29  C   UNL     1      -5.971  -0.508  10.588  0.00  0.00    +0.076 A 
ATOM     30  S   UNL     1      -6.014  -2.289  10.697  0.00  0.00    -0.088 S 
ATOM     31  C   UNL     1      -7.831  -0.850  13.888  0.00  0.00    +0.040 C 
BRANCH  23  33
ATOM     32  C   UNL     1     -10.110  -1.625  15.556  0.00  0.00    +0.011 C 
ATOM     33  C   UNL     1      -8.669  -1.885  16.000  0.00  0.00    -0.035 C 
ATOM     34  C   UNL     1      -8.624  -3.133  16.883  0.00  0.00    +0.011 C 
ATOM     35  C   UNL     1      -8.155  -0.681  16.793  0.00  0.00    +0.011 C 
ENDBRANCH  23  33
ENDBRANCH  19  29
ENDBRANCH   1  21
TORSDOF 4
