REMARK  Name = ZINC41284097
REMARK  4 active torsions:
REMARK  status: ('A' for Active; 'I' for Inactive)
REMARK    1  A    between atoms: C_1  and  C_2
REMARK    2  A    between atoms: C_6  and  C_13
REMARK    3  A    between atoms: C_13  and  N_14
REMARK    4  A    between atoms: C_15  and  C_17
REMARK                            x       y       z     vdW  Elec       q    Type
REMARK                         _______ _______ _______ _____ _____    ______ ____
ROOT
ATOM      1  C   UNL     1      -0.018   1.503   0.010  0.00  0.00    +0.044 C 
ATOM      2  C   UNL     1       0.002  -0.004   0.002  0.00  0.00    -0.047 A 
ATOM      3  C   UNL     1       0.006  -0.684  -1.207  0.00  0.00    +0.004 A 
ATOM      4  C   UNL     1       0.025  -2.050  -1.235  0.00  0.00    +0.012 A 
ATOM      5  C   UNL     1       0.040  -2.768  -0.035  0.00  0.00    +0.022 A 
ATOM      6  C   UNL     1       0.061  -4.234  -0.030  0.00  0.00    -0.013 A 
ATOM      7  C   UNL     1       0.077  -4.870   1.169  0.00  0.00    +0.097 A 
ATOM      8  C   UNL     1       0.072  -4.118   2.363  0.00  0.00    +0.338 A 
ATOM      9  O   UNL     1       0.086  -4.701   3.432  0.00  0.00    -0.245 OA
ATOM     10  O   UNL     1       0.053  -2.776   2.350  0.00  0.00    -0.422 OA
ATOM     11  C   UNL     1       0.037  -2.082   1.193  0.00  0.00    +0.140 A 
ATOM     12  C   UNL     1       0.023  -0.693   1.196  0.00  0.00    +0.050 A 
ENDROOT
BRANCH   6  13
ATOM     13  C   UNL     1       0.066  -5.012  -1.320  0.00  0.00    +0.140 C 
BRANCH  13  14
ATOM     14  N   UNL     1      -1.311  -5.181  -1.793  0.00  0.00    -0.307 N 
ATOM     15  C   UNL     1      -1.553  -5.851  -2.938  0.00  0.00    +0.251 C 
ATOM     16  O   UNL     1      -0.628  -6.315  -3.578  0.00  0.00    -0.270 OA
ATOM     17  H   UNL     1      -2.048  -4.811  -1.283  0.00  0.00    +0.149 HD
BRANCH  15  18
ATOM     18  C   UNL     1      -2.930  -6.019  -3.411  0.00  0.00    +0.074 A 
ATOM     19  C   UNL     1      -3.390  -6.671  -4.545  0.00  0.00    +0.021 A 
ATOM     20  C   UNL     1      -4.753  -6.663  -4.726  0.00  0.00    +0.008 A 
ATOM     21  C   UNL     1      -5.535  -6.038  -3.812  0.00  0.00    +0.046 A 
ATOM     22  S   UNL     1      -4.449  -5.448  -2.674  0.00  0.00    -0.092 S 
ENDBRANCH  15  18
ENDBRANCH  13  14
ENDBRANCH   6  13
TORSDOF 3
