REMARK  Name = ZINC09819910
REMARK  2 active torsions:
REMARK  status: ('A' for Active; 'I' for Inactive)
REMARK    1  A    between atoms: C_8  and  C_20
REMARK    2  A    between atoms: C_11  and  C_13
REMARK                            x       y       z     vdW  Elec       q    Type
REMARK                         _______ _______ _______ _____ _____    ______ ____
ROOT
ATOM      1  C   UNL     1       4.327   5.859   0.437  0.00  0.00    +0.000 A 
ATOM      2  C   UNL     1       3.008   5.449   0.361  0.00  0.00    +0.002 A 
ATOM      3  C   UNL     1       2.703   4.111   0.240  0.00  0.00    +0.024 A 
ATOM      4  C   UNL     1       3.722   3.158   0.189  0.00  0.00    +0.041 A 
ATOM      5  C   UNL     1       5.040   3.578   0.273  0.00  0.00    -0.024 A 
ATOM      6  C   UNL     1       5.342   4.921   0.393  0.00  0.00    +0.005 A 
ATOM      7  C   UNL     1       5.938   2.362   0.202  0.00  0.00    +0.069 C 
ATOM      8  C   UNL     1       4.971   1.174   0.073  0.00  0.00    +0.171 C 
ATOM      9  N   UNL     1       3.631   1.768   0.078  0.00  0.00    -0.255 N 
ATOM     10  C   UNL     1       2.479   1.075  -0.016  0.00  0.00    +0.252 C 
ATOM     11  O   UNL     1       1.416   1.664  -0.048  0.00  0.00    -0.270 OA
ENDROOT
BRANCH  10  12
ATOM     12  C   UNL     1       2.507  -0.402  -0.081  0.00  0.00    +0.039 A 
ATOM     13  C   UNL     1       1.635  -1.156   0.705  0.00  0.00    +0.013 A 
ATOM     14  C   UNL     1       1.670  -2.533   0.645  0.00  0.00    +0.002 A 
ATOM     15  C   UNL     1       2.561  -3.169  -0.202  0.00  0.00    +0.020 A 
ATOM     16  C   UNL     1       3.430  -2.428  -0.985  0.00  0.00    +0.042 A 
ATOM     17  C   UNL     1       3.408  -1.048  -0.929  0.00  0.00    +0.033 A 
ATOM     18 CL   UNL     1       4.549  -3.235  -2.038  0.00  0.00    -0.084 Cl
ENDBRANCH  10  12
BRANCH   8  19
ATOM     19  C   UNL     1       5.132   0.237   1.242  0.00  0.00    +0.232 C 
ATOM     20  O   UNL     1       4.214   0.071   2.017  0.00  0.00    -0.274 OA
ATOM     21  N   UNL     1       6.296  -0.418   1.425  0.00  0.00    -0.328 N 
ATOM     22  H   UNL     1       7.029  -0.285   0.805  0.00  0.00    +0.145 HD
ATOM     23  H   UNL     1       6.399  -1.021   2.177  0.00  0.00    +0.145 HD
ENDBRANCH   8  19
TORSDOF 2
