REMARK  Name = ZINC14510558
REMARK  10 active torsions:
REMARK  status: ('A' for Active; 'I' for Inactive)
REMARK    1  A    between atoms: C_1  and  C_2
REMARK    2  A    between atoms: C_2  and  C_3
REMARK    3  A    between atoms: C_3  and  C_4
REMARK    4  A    between atoms: C_4  and  N_5
REMARK    5  A    between atoms: N_5  and  C_6
REMARK    6  A    between atoms: C_7  and  N_22
REMARK    7  A    between atoms: N_8  and  C_15
REMARK    8  A    between atoms: C_15  and  C_16
REMARK    9  A    between atoms: C_23  and  C_25
REMARK   10  A    between atoms: C_26  and  C_27
REMARK                            x       y       z     vdW  Elec       q    Type
REMARK                         _______ _______ _______ _____ _____    ______ ____
ROOT
ATOM      1  C   UNL     1       1.084   2.059   0.013  0.00  0.00    +0.140 A 
ATOM      2  C   UNL     1       0.445   1.404  -1.020  0.00  0.00    +0.128 A 
ATOM      3  N   UNL     1       0.344   0.032  -0.984  0.00  0.00    -0.276 N 
ATOM      4  C   UNL     1       0.861  -0.662   0.045  0.00  0.00    +0.331 A 
ATOM      5  O   UNL     1       0.761  -1.874   0.058  0.00  0.00    -0.246 OA
ATOM      6  N   UNL     1       1.486  -0.041   1.061  0.00  0.00    -0.273 N 
ATOM      7  H   UNL     1       1.862  -0.580   1.815  0.00  0.00    +0.173 HD
ATOM      8  C   UNL     1       1.613   1.301   1.075  0.00  0.00    +0.277 A 
ATOM      9  O   UNL     1       2.177   1.855   2.003  0.00  0.00    -0.266 OA
ENDROOT
BRANCH   1  10
ATOM     10  N   UNL     1       1.203   3.464   0.006  0.00  0.00    -0.261 N 
ATOM     11  C   UNL     1       2.419   4.037  -0.096  0.00  0.00    +0.244 C 
ATOM     12  O   UNL     1       3.421   3.343  -0.097  0.00  0.00    -0.270 OA
BRANCH  11  13
ATOM     13  C   UNL     1       2.532   5.443  -0.202  0.00  0.00    +0.069 C 
ATOM     14  C   UNL     1       3.756   6.019  -0.304  0.00  0.00    +0.020 C 
BRANCH  14  15
ATOM     15  C   UNL     1       3.869   7.427  -0.410  0.00  0.00    +0.012 A 
ATOM     16  C   UNL     1       5.013   8.207  -0.523  0.00  0.00    +0.015 A 
ATOM     17  C   UNL     1       4.835   9.566  -0.611  0.00  0.00    +0.008 A 
ATOM     18  C   UNL     1       3.575  10.073  -0.583  0.00  0.00    +0.046 A 
ATOM     19  S   UNL     1       2.580   8.660  -0.440  0.00  0.00    -0.097 S 
ENDBRANCH  14  15
ENDBRANCH  11  13
BRANCH  10  20
ATOM     20  C   UNL     1       0.006   4.302   0.110  0.00  0.00    +0.114 C 
BRANCH  20  21
ATOM     21  C   UNL     1      -0.210   4.704   1.571  0.00  0.00    +0.019 C 
BRANCH  21  23
ATOM     22  C   UNL     1      -1.677   5.981   3.139  0.00  0.00    +0.004 C 
ATOM     23  C   UNL     1      -1.461   5.579   1.679  0.00  0.00    -0.002 C 
ENDBRANCH  21  23
ENDBRANCH  20  21
ENDBRANCH  10  20
ENDBRANCH   1  10
BRANCH   2  24
ATOM     24  N   UNL     1      -0.083   2.113  -2.072  0.00  0.00    -0.343 N 
ATOM     25  H   UNL     1      -0.466   1.644  -2.830  0.00  0.00    +0.144 HD
ATOM     26  H   UNL     1      -0.073   3.083  -2.057  0.00  0.00    +0.144 HD
ENDBRANCH   2  24
BRANCH   3  27
ATOM     27  C   UNL     1      -0.332  -0.676  -2.074  0.00  0.00    +0.163 C 
BRANCH  27  28
ATOM     28  C   UNL     1      -1.798  -0.810  -1.754  0.00  0.00    -0.028 A 
ATOM     29  C   UNL     1      -2.257  -1.917  -1.066  0.00  0.00    +0.005 A 
ATOM     30  C   UNL     1      -3.602  -2.038  -0.767  0.00  0.00    +0.000 A 
ATOM     31  C   UNL     1      -4.488  -1.055  -1.166  0.00  0.00    +0.000 A 
ATOM     32  C   UNL     1      -4.030   0.050  -1.859  0.00  0.00    +0.000 A 
ATOM     33  C   UNL     1      -2.685   0.173  -2.152  0.00  0.00    +0.005 A 
ENDBRANCH  27  28
ENDBRANCH   3  27
TORSDOF 9
