REMARK  Name = ZINC46299851
REMARK  9 active torsions:
REMARK  status: ('A' for Active; 'I' for Inactive)
REMARK    1  A    between atoms: C_1  and  N_2
REMARK    2  A    between atoms: N_2  and  C_3
REMARK    3  A    between atoms: C_5  and  C_10
REMARK    4  A    between atoms: C_10  and  N_11
REMARK    5  A    between atoms: N_14  and  N_15
REMARK    6  A    between atoms: C_16  and  C_18
REMARK    7  A    between atoms: C_18  and  O_19
REMARK    8  A    between atoms: O_19  and  C_20
REMARK    9  A    between atoms: C_25  and  N_26
REMARK                            x       y       z     vdW  Elec       q    Type
REMARK                         _______ _______ _______ _____ _____    ______ ____
ROOT
ATOM      1  N   UNL     1      -1.689  -2.816   0.650  0.00  0.00    -0.294 N 
ATOM      2  C   UNL     1      -2.053  -3.378   1.820  0.00  0.00    +0.316 C 
ATOM      3  O   UNL     1      -1.216  -3.899   2.531  0.00  0.00    -0.251 OA
ATOM      4  N   UNL     1      -3.346  -3.364   2.200  0.00  0.00    -0.218 N 
ATOM      5  H   UNL     1      -2.357  -2.400   0.083  0.00  0.00    +0.151 HD
ATOM      6  H   UNL     1      -3.608  -3.769   3.042  0.00  0.00    +0.174 HD
ENDROOT
BRANCH   4   7
ATOM      7  N   UNL     1      -4.311  -2.764   1.381  0.00  0.00    -0.230 N 
ATOM      8  C   UNL     1      -5.604  -2.749   1.762  0.00  0.00    +0.267 C 
ATOM      9  O   UNL     1      -5.932  -3.256   2.814  0.00  0.00    -0.271 OA
ATOM     10  H   UNL     1      -4.049  -2.359   0.540  0.00  0.00    +0.173 HD
BRANCH   8  11
ATOM     11  C   UNL     1      -6.642  -2.104   0.881  0.00  0.00    +0.326 C 
BRANCH  11  12
ATOM     12  O   UNL     1      -7.926  -2.216   1.497  0.00  0.00    -0.480 OA
BRANCH  12  13
ATOM     13  C   UNL     1      -8.981  -1.681   0.827  0.00  0.00    +0.151 A 
ATOM     14  C   UNL     1      -8.784  -1.065  -0.401  0.00  0.00    +0.048 A 
ATOM     15  C   UNL     1      -9.857  -0.522  -1.080  0.00  0.00    +0.004 A 
ATOM     16  C   UNL     1     -11.127  -0.592  -0.537  0.00  0.00    +0.002 A 
ATOM     17  C   UNL     1     -11.326  -1.205   0.686  0.00  0.00    +0.036 A 
ATOM     18  C   UNL     1     -10.256  -1.754   1.367  0.00  0.00    +0.168 A 
BRANCH  18  19
ATOM     19  N   UNL     1     -10.470  -2.416   2.674  0.00  0.00    +0.060 N 
ATOM     20  O   UNL     1     -11.582  -2.479   3.144  0.00  0.00    -0.126 OA
ATOM     21  O   UNL     1      -9.534  -2.892   3.271  0.00  0.00    -0.126 OA
ENDBRANCH  18  19
ENDBRANCH  12  13
ENDBRANCH  11  12
ENDBRANCH   8  11
ENDBRANCH   4   7
BRANCH   1  22
ATOM     22  C   UNL     1      -0.283  -2.831   0.236  0.00  0.00    +0.144 C 
BRANCH  22  27
ATOM     23  C   UNL     1      -1.595   0.450   0.424  0.00  0.00    +0.130 C 
ATOM     24  N   UNL     1      -0.271   0.003  -0.017  0.00  0.00    -0.323 N 
ATOM     25  C   UNL     1       0.918   0.353   0.764  0.00  0.00    +0.130 C 
ATOM     26  C   UNL     1      -0.143  -0.753  -1.176  0.00  0.00    +0.103 A 
ATOM     27  C   UNL     1      -0.145  -2.143  -1.097  0.00  0.00    +0.008 A 
ATOM     28  C   UNL     1      -0.017  -2.883  -2.258  0.00  0.00    +0.010 A 
ATOM     29  C   UNL     1       0.109  -2.206  -3.465  0.00  0.00    +0.018 A 
ATOM     30  C   UNL     1       0.102  -0.826  -3.470  0.00  0.00    +0.084 A 
ATOM     31  N   UNL     1      -0.027  -0.146  -2.347  0.00  0.00    -0.349 N 
ATOM     32  H   UNL     1      -0.032   0.824  -2.379  0.00  0.00    +0.167 HD
ENDBRANCH  22  27
ENDBRANCH   1  22
TORSDOF 7
