REMARK  Name = ZINC40317423
REMARK  6 active torsions:
REMARK  status: ('A' for Active; 'I' for Inactive)
REMARK    1  A    between atoms: C_1  and  C_2
REMARK    2  A    between atoms: C_8  and  N_10
REMARK    3  A    between atoms: N_10  and  C_11
REMARK    4  A    between atoms: N_10  and  S_12
REMARK    5  A    between atoms: S_12  and  C_15
REMARK    6  A    between atoms: C_18  and  N_22
REMARK                            x       y       z     vdW  Elec       q    Type
REMARK                         _______ _______ _______ _____ _____    ______ ____
ROOT
ATOM      1  S   UNL     1       0.859   0.919   3.534  0.00  0.00    +0.064 S 
ATOM      2  O   UNL     1       0.202   0.752   4.784  0.00  0.00    -0.153 OA
ATOM      3  O   UNL     1       2.244   0.656   3.362  0.00  0.00    -0.153 OA
ENDROOT
BRANCH   1   4
ATOM      4  C   UNL     1       0.598   2.592   3.047  0.00  0.00    +0.142 A 
ATOM      5  C   UNL     1       1.477   3.199   2.167  0.00  0.00    +0.070 A 
ATOM      6  C   UNL     1       1.275   4.512   1.783  0.00  0.00    +0.044 A 
ATOM      7  C   UNL     1       0.189   5.221   2.281  0.00  0.00    +0.027 A 
ATOM      8  C   UNL     1      -0.691   4.608   3.164  0.00  0.00    +0.044 A 
ATOM      9  C   UNL     1      -0.487   3.294   3.541  0.00  0.00    +0.070 A 
ATOM     10 CL   UNL     1      -1.591   2.526   4.639  0.00  0.00    -0.081 Cl
ATOM     11 CL   UNL     1       2.833   2.313   1.545  0.00  0.00    -0.081 Cl
BRANCH   7  12
ATOM     12  N   UNL     1      -0.017   6.547   1.895  0.00  0.00    -0.358 N 
ATOM     13  H   UNL     1       0.599   6.974   1.279  0.00  0.00    +0.142 HD
ATOM     14  H   UNL     1      -0.775   7.042   2.244  0.00  0.00    +0.142 HD
ENDBRANCH   7  12
ENDBRANCH   1   4
BRANCH   1  15
ATOM     15  N   UNL     1       0.056  -0.038   2.447  0.00  0.00    -0.176 NA
ATOM     16  C   UNL     1      -1.339  -0.413   2.690  0.00  0.00    +0.132 C 
BRANCH  15  23
ATOM     17  C   UNL     1      -0.019   1.526   0.010  0.00  0.00    +0.009 C 
ATOM     18  C   UNL     1       0.002  -0.004   0.002  0.00  0.00    +0.005 C 
ATOM     19  C   UNL     1       0.718  -0.497  -1.257  0.00  0.00    +0.005 C 
ATOM     20  C   UNL     1       0.739  -2.027  -1.265  0.00  0.00    +0.000 C 
ATOM     21  C   UNL     1       1.479  -2.534  -0.026  0.00  0.00    +0.002 C 
ATOM     22  C   UNL     1       0.763  -2.041   1.233  0.00  0.00    +0.021 C 
ATOM     23  C   UNL     1       0.742  -0.511   1.242  0.00  0.00    +0.082 C 
ENDBRANCH  15  23
ENDBRANCH   1  15
TORSDOF 4
