REMARK  Name = ZINC63864106
REMARK  8 active torsions:
REMARK  status: ('A' for Active; 'I' for Inactive)
REMARK    1  A    between atoms: C_1  and  C_2
REMARK    2  A    between atoms: C_4  and  C_28
REMARK    3  A    between atoms: C_10  and  C_13
REMARK    4  A    between atoms: N_14  and  O_15
REMARK    5  A    between atoms: O_15  and  C_16
REMARK    6  A    between atoms: C_16  and  C_17
REMARK    7  A    between atoms: N_19  and  C_20
REMARK    8  A    between atoms: C_25  and  C_26
REMARK                            x       y       z     vdW  Elec       q    Type
REMARK                         _______ _______ _______ _____ _____    ______ ____
ROOT
ATOM      1  C   UNL     1       0.071  -6.689   3.853  0.00  0.00    +0.164 C 
ATOM      2  N   UNL     1      -0.487  -7.773   3.399  0.00  0.00    -0.069 NA
ATOM      3  N   UNL     1       0.690  -6.695   5.091  0.00  0.00    -0.340 N 
ATOM      4  H   UNL     1       1.106  -5.886   5.429  0.00  0.00    +0.144 HD
ATOM      5  H   UNL     1       0.708  -7.507   5.621  0.00  0.00    +0.144 HD
ENDROOT
BRANCH   1  15
ATOM      6  C   UNL     1      -0.700   0.120  -2.056  0.00  0.00    +0.067 C 
ATOM      7  C   UNL     1      -0.260  -0.516  -0.763  0.00  0.00    +0.061 A 
ATOM      8  C   UNL     1       0.460   0.116   0.258  0.00  0.00    +0.048 A 
ATOM      9  C   UNL     1       0.660  -0.784   1.247  0.00  0.00    +0.044 A 
ATOM     10  N   UNL     1       0.082  -1.952   0.862  0.00  0.00    -0.219 N 
ATOM     11  N   UNL     1      -0.491  -1.751  -0.400  0.00  0.00    -0.170 NA
ATOM     12  C   UNL     1       0.060  -3.140   1.597  0.00  0.00    +0.154 A 
ATOM     13  C   UNL     1      -0.951  -4.068   1.369  0.00  0.00    +0.049 A 
ATOM     14  C   UNL     1      -0.967  -5.241   2.098  0.00  0.00    +0.016 A 
ATOM     15  C   UNL     1       0.043  -5.449   3.045  0.00  0.00    +0.036 A 
ATOM     16  C   UNL     1       1.022  -4.472   3.216  0.00  0.00    +0.124 A 
ATOM     17  N   UNL     1       1.003  -3.369   2.496  0.00  0.00    -0.235 NA
ATOM     18  C   UNL     1       1.391  -0.537   2.541  0.00  0.00    +0.066 C 
ENDBRANCH   1  15
BRANCH   2  19
ATOM     19  O   UNL     1      -0.994  -7.809   2.078  0.00  0.00    -0.383 OA
BRANCH  19  20
ATOM     20  C   UNL     1      -1.578  -9.061   1.713  0.00  0.00    +0.358 C 
BRANCH  20  21
ATOM     21  C   UNL     1      -2.083  -8.987   0.295  0.00  0.00    +0.254 C 
ATOM     22  O   UNL     1      -1.954  -7.962  -0.341  0.00  0.00    -0.272 OA
ATOM     23  N   UNL     1      -2.676 -10.058  -0.267  0.00  0.00    -0.309 N 
ATOM     24  H   UNL     1      -2.779 -10.878   0.242  0.00  0.00    +0.149 HD
BRANCH  23  25
ATOM     25  C   UNL     1      -3.166  -9.986  -1.645  0.00  0.00    +0.076 C 
ATOM     26  C   UNL     1      -2.021 -10.298  -2.611  0.00  0.00    +0.022 C 
ATOM     27  C   UNL     1      -1.488 -11.705  -2.332  0.00  0.00    +0.002 C 
ATOM     28  C   UNL     1      -2.613 -12.724  -2.528  0.00  0.00    +0.000 C 
ATOM     29  C   UNL     1      -3.758 -12.412  -1.563  0.00  0.00    +0.005 C 
ATOM     30  C   UNL     1      -4.290 -11.005  -1.841  0.00  0.00    +0.006 C 
ATOM     31  C   UNL     1      -5.436 -10.693  -0.876  0.00  0.00    +0.009 C 
ENDBRANCH  23  25
ENDBRANCH  20  21
ENDBRANCH  19  20
ENDBRANCH   2  19
TORSDOF 5
