REMARK  Name = ZINC10088736
REMARK  7 active torsions:
REMARK  status: ('A' for Active; 'I' for Inactive)
REMARK    1  A    between atoms: C_1  and  C_2
REMARK    2  A    between atoms: C_2  and  C_3
REMARK    3  A    between atoms: C_6  and  N_9
REMARK    4  A    between atoms: C_19  and  S_20
REMARK    5  A    between atoms: S_20  and  C_21
REMARK    6  A    between atoms: C_21  and  C_22
REMARK    7  A    between atoms: C_35  and  C_37
REMARK                            x       y       z     vdW  Elec       q    Type
REMARK                         _______ _______ _______ _____ _____    ______ ____
ROOT
ATOM      1  N   UNL     1       5.497   6.421   2.409  0.00  0.00    -0.255 N 
ATOM      2  C   UNL     1       6.797   6.207   2.716  0.00  0.00    +0.267 A 
ATOM      3  O   UNL     1       7.278   6.627   3.753  0.00  0.00    -0.267 OA
ATOM      4  C   UNL     1       7.609   5.455   1.751  0.00  0.00    +0.065 A 
ATOM      5  C   UNL     1       8.959   5.188   1.973  0.00  0.00    +0.015 A 
ATOM      6  C   UNL     1       9.669   4.483   1.041  0.00  0.00    +0.001 A 
ATOM      7  C   UNL     1       9.060   4.032  -0.123  0.00  0.00    +0.002 A 
ATOM      8  C   UNL     1       7.738   4.280  -0.367  0.00  0.00    +0.028 A 
ATOM      9  C   UNL     1       6.985   4.997   0.567  0.00  0.00    +0.079 A 
ATOM     10  N   UNL     1       5.674   5.266   0.366  0.00  0.00    -0.223 NA
ATOM     11  C   UNL     1       4.970   5.939   1.242  0.00  0.00    +0.177 A 
ENDROOT
BRANCH   1  15
ATOM     12  C   UNL     1       3.072   8.552   5.045  0.00  0.00    -0.047 A 
ATOM     13  C   UNL     1       3.767   9.220   4.054  0.00  0.00    +0.005 A 
ATOM     14  C   UNL     1       4.572   8.517   3.179  0.00  0.00    +0.026 A 
ATOM     15  C   UNL     1       4.682   7.138   3.295  0.00  0.00    +0.052 A 
ATOM     16  C   UNL     1       3.978   6.469   4.288  0.00  0.00    +0.026 A 
ATOM     17  C   UNL     1       3.180   7.179   5.164  0.00  0.00    +0.005 A 
BRANCH  12  19
ATOM     18  C   UNL     1       0.780   9.419   5.426  0.00  0.00    +0.009 C 
ATOM     19  C   UNL     1       2.196   9.323   5.998  0.00  0.00    +0.032 C 
ENDBRANCH  12  19
ENDBRANCH   1  15
BRANCH  11  20
ATOM     20  S   UNL     1       3.269   6.243   0.899  0.00  0.00    -0.078 S 
BRANCH  20  21
ATOM     21  C   UNL     1       3.121   5.423  -0.708  0.00  0.00    +0.173 C 
BRANCH  21  22
ATOM     22  C   UNL     1       1.708   5.558  -1.212  0.00  0.00    +0.230 C 
ATOM     23  O   UNL     1       0.882   6.150  -0.551  0.00  0.00    -0.274 OA
ATOM     24  N   UNL     1       1.361   5.020  -2.398  0.00  0.00    -0.266 N 
ATOM     25  C   UNL     1       2.305   4.333  -3.174  0.00  0.00    +0.058 A 
ATOM     26  C   UNL     1       3.302   5.021  -3.846  0.00  0.00    +0.025 A 
ATOM     27  C   UNL     1       4.200   4.331  -4.639  0.00  0.00    +0.002 A 
ATOM     28  C   UNL     1       4.108   2.957  -4.763  0.00  0.00    +0.002 A 
ATOM     29  C   UNL     1       3.123   2.261  -4.086  0.00  0.00    +0.025 A 
ATOM     30  C   UNL     1       2.226   2.944  -3.283  0.00  0.00    +0.055 A 
ATOM     31  N   UNL     1       1.236   2.261  -2.566  0.00  0.00    -0.284 N 
ATOM     32  C   UNL     1      -0.051   2.671  -2.611  0.00  0.00    +0.219 C 
ATOM     33  O   UNL     1      -0.883   2.117  -1.924  0.00  0.00    -0.275 OA
ATOM     34  C   UNL     1      -0.459   3.811  -3.506  0.00  0.00    +0.118 C 
ATOM     35  C   UNL     1      -0.007   5.142  -2.902  0.00  0.00    +0.087 C 
ATOM     36  C   UNL     1      -0.058   6.231  -3.976  0.00  0.00    +0.029 C 
ATOM     37  H   UNL     1       1.476   1.487  -2.033  0.00  0.00    +0.155 HD
ENDBRANCH  21  22
ENDBRANCH  20  21
ENDBRANCH  11  20
TORSDOF 5
