REMARK  Name = ZINC31419062
REMARK  10 active torsions:
REMARK  status: ('A' for Active; 'I' for Inactive)
REMARK    1  A    between atoms: C_1  and  C_2
REMARK    2  A    between atoms: C_5  and  C_7
REMARK    3  A    between atoms: C_9  and  C_30
REMARK    4  A    between atoms: C_10  and  C_12
REMARK    5  A    between atoms: N_14  and  C_15
REMARK    6  A    between atoms: C_15  and  C_16
REMARK    7  A    between atoms: C_16  and  S_17
REMARK    8  A    between atoms: S_17  and  N_20
REMARK    9  A    between atoms: C_22  and  C_29
REMARK   10  A    between atoms: C_25  and  C_28
REMARK                            x       y       z     vdW  Elec       q    Type
REMARK                         _______ _______ _______ _____ _____    ______ ____
ROOT
ATOM      1  C   UNL     1      -7.641   3.427   3.730  0.00  0.00    +0.253 C 
ATOM      2  O   UNL     1      -8.134   3.821   4.771  0.00  0.00    -0.270 OA
ATOM      3  N   UNL     1      -8.420   3.225   2.650  0.00  0.00    -0.309 N 
ATOM      4  H   UNL     1      -7.975   2.869   1.709  0.00  0.00    +0.149 HD
ENDROOT
BRANCH   1   8
ATOM      5  C   UNL     1      -3.638   2.602   3.117  0.00  0.00    +0.144 A 
ATOM      6  N   UNL     1      -3.985   3.024   4.332  0.00  0.00    -0.240 NA
ATOM      7  C   UNL     1      -5.221   3.311   4.628  0.00  0.00    +0.058 A 
ATOM      8  C   UNL     1      -6.201   3.173   3.652  0.00  0.00    +0.097 A 
ATOM      9  S   UNL     1      -5.214   2.607   2.272  0.00  0.00    -0.059 S 
ATOM     10  C   UNL     1      -5.583   3.787   6.011  0.00  0.00    +0.067 C 
BRANCH   5  15
ATOM     11  C   UNL     1      -0.013   1.086   0.008  0.00  0.00    +0.086 C 
ATOM     12  C   UNL     1      -0.718   1.572   1.248  0.00  0.00    +0.103 A 
ATOM     13  C   UNL     1      -0.131   1.835   2.434  0.00  0.00    +0.045 A 
ATOM     14  C   UNL     1      -1.144   2.261   3.311  0.00  0.00    +0.052 A 
ATOM     15  C   UNL     1      -2.311   2.235   2.605  0.00  0.00    +0.160 A 
ATOM     16  O   UNL     1      -2.033   1.819   1.353  0.00  0.00    -0.458 OA
ENDBRANCH   5  15
ENDBRANCH   1   8
BRANCH   3  17
ATOM     17  C   UNL     1      -9.861   3.479   2.728  0.00  0.00    +0.128 C 
BRANCH  17  18
ATOM     18  C   UNL     1     -10.507   3.174   1.375  0.00  0.00    +0.204 C 
BRANCH  18  19
ATOM     19  S   UNL     1     -12.291   3.488   1.472  0.00  0.00    +0.033 S 
ATOM     20  O   UNL     1     -12.909   2.543   2.335  0.00  0.00    -0.158 OA
ATOM     21  O   UNL     1     -12.534   4.880   1.628  0.00  0.00    -0.158 OA
BRANCH  19  22
ATOM     22  N   UNL     1     -12.870   3.125  -0.036  0.00  0.00    -0.176 NA
ATOM     23  C   UNL     1     -12.949   4.154  -1.086  0.00  0.00    +0.140 C 
ATOM     24  C   UNL     1     -12.279   3.598  -2.353  0.00  0.00    +0.131 C 
ATOM     25  O   UNL     1     -12.851   2.326  -2.667  0.00  0.00    -0.371 OA
ATOM     26  C   UNL     1     -12.642   1.327  -1.666  0.00  0.00    +0.131 C 
ATOM     27  C   UNL     1     -13.325   1.765  -0.365  0.00  0.00    +0.140 C 
ATOM     28  C   UNL     1     -11.142   1.155  -1.422  0.00  0.00    +0.039 C 
ATOM     29  C   UNL     1     -12.510   4.564  -3.517  0.00  0.00    +0.039 C 
ENDBRANCH  19  22
ENDBRANCH  18  19
ENDBRANCH  17  18
ENDBRANCH   3  17
TORSDOF 6
