REMARK  Name = ZINC38576609
REMARK  14 active torsions:
REMARK  status: ('A' for Active; 'I' for Inactive)
REMARK    1  A    between atoms: C_1  and  C_2
REMARK    2  A    between atoms: N_6  and  C_7
REMARK    3  A    between atoms: C_7  and  C_9
REMARK    4  A    between atoms: C_9  and  C_11
REMARK    5  A    between atoms: C_9  and  N_15
REMARK    6  A    between atoms: C_11  and  C_12
REMARK    7  A    between atoms: C_12  and  S_13
REMARK    8  A    between atoms: S_13  and  C_14
REMARK    9  A    between atoms: C_16  and  C_18
REMARK   10  A    between atoms: C_18  and  N_19
REMARK   11  A    between atoms: C_24  and  O_32
REMARK   12  A    between atoms: C_25  and  O_30
REMARK   13  A    between atoms: O_30  and  C_31
REMARK   14  A    between atoms: O_32  and  C_33
REMARK                            x       y       z     vdW  Elec       q    Type
REMARK                         _______ _______ _______ _____ _____    ______ ____
ROOT
ATOM      1  N   UNL     1       0.070  -2.804   5.763  0.00  0.00    -0.303 N 
ATOM      2  C   UNL     1       0.578  -3.390   6.866  0.00  0.00    +0.231 C 
ATOM      3  O   UNL     1       1.037  -4.511   6.801  0.00  0.00    -0.274 OA
ATOM      4  H   UNL     1      -0.297  -1.908   5.816  0.00  0.00    +0.149 HD
ENDROOT
BRANCH   1   5
ATOM      5  C   UNL     1       0.074  -3.522   4.486  0.00  0.00    +0.162 C 
BRANCH   5   6
ATOM      6  C   UNL     1       0.054  -2.529   3.353  0.00  0.00    +0.259 C 
ATOM      7  O   UNL     1       0.038  -1.335   3.589  0.00  0.00    -0.272 OA
BRANCH   6  13
ATOM      8  C   UNL     1      -0.018   1.503   0.010  0.00  0.00    +0.064 C 
ATOM      9  C   UNL     1       0.002  -0.004   0.002  0.00  0.00    +0.021 A 
ATOM     10  C   UNL     1       0.006  -0.694  -1.144  0.00  0.00    +0.069 A 
ATOM     11  S   UNL     1       0.033  -2.379  -0.561  0.00  0.00    -0.060 S 
ATOM     12  C   UNL     1       0.036  -2.076   1.093  0.00  0.00    +0.163 A 
ATOM     13  N   UNL     1       0.054  -2.955   2.096  0.00  0.00    -0.155 NA
ATOM     14  N   UNL     1       0.023  -0.718   1.159  0.00  0.00    -0.340 N 
ATOM     15  H   UNL     1       0.025  -0.266   2.018  0.00  0.00    +0.167 HD
ENDBRANCH   6  13
ENDBRANCH   5   6
BRANCH   5  16
ATOM     16  C   UNL     1      -1.163  -4.418   4.401  0.00  0.00    +0.042 C 
BRANCH  16  17
ATOM     17  C   UNL     1      -1.081  -5.504   5.475  0.00  0.00    +0.071 C 
BRANCH  17  18
ATOM     18  S   UNL     1      -2.548  -6.567   5.374  0.00  0.00    -0.164 S 
ATOM     19  C   UNL     1      -2.299  -7.785   6.694  0.00  0.00    +0.084 C 
ENDBRANCH  17  18
ENDBRANCH  16  17
ENDBRANCH   5  16
ENDBRANCH   1   5
BRANCH   2  20
ATOM     20  C   UNL     1       0.574  -2.652   8.181  0.00  0.00    +0.205 C 
BRANCH  20  21
ATOM     21  N   UNL     1       1.175  -3.497   9.216  0.00  0.00    -0.273 N 
ATOM     22  C   UNL     1       0.323  -4.401   9.989  0.00  0.00    +0.214 C 
ATOM     23  N   UNL     1       1.066  -5.614  10.351  0.00  0.00    -0.328 N 
ATOM     24  C   UNL     1       2.377  -5.485  10.806  0.00  0.00    +0.044 A 
ATOM     25  C   UNL     1       2.933  -6.397  11.684  0.00  0.00    +0.073 A 
ATOM     26  C   UNL     1       4.247  -6.239  12.097  0.00  0.00    +0.163 A 
ATOM     27  C   UNL     1       5.010  -5.167  11.631  0.00  0.00    +0.162 A 
ATOM     28  C   UNL     1       4.462  -4.247  10.760  0.00  0.00    +0.064 A 
ATOM     29  C   UNL     1       3.137  -4.396  10.345  0.00  0.00    +0.061 A 
ATOM     30  C   UNL     1       2.503  -3.430   9.435  0.00  0.00    +0.250 C 
ATOM     31  O   UNL     1       3.172  -2.574   8.888  0.00  0.00    -0.270 OA
ATOM     32  H   UNL     1       0.652  -6.487  10.277  0.00  0.00    +0.148 HD
BRANCH  27  33
ATOM     33  O   UNL     1       6.301  -5.027  12.039  0.00  0.00    -0.491 OA
ATOM     34  C   UNL     1       7.026  -3.908  11.525  0.00  0.00    +0.277 C 
ENDBRANCH  27  33
BRANCH  26  35
ATOM     35  O   UNL     1       4.795  -7.133  12.960  0.00  0.00    -0.491 OA
ATOM     36  C   UNL     1       3.961  -8.207  13.399  0.00  0.00    +0.277 C 
ENDBRANCH  26  35
ENDBRANCH  20  21
ENDBRANCH   2  20
TORSDOF 10
