REMARK  Name = ZINC05685483
REMARK  7 active torsions:
REMARK  status: ('A' for Active; 'I' for Inactive)
REMARK    1  A    between atoms: C_7  and  N_14
REMARK    2  A    between atoms: N_14  and  C_15
REMARK    3  A    between atoms: C_17  and  O_30
REMARK    4  A    between atoms: C_19  and  O_29
REMARK    5  A    between atoms: C_21  and  C_27
REMARK    6  A    between atoms: C_24  and  O_26
REMARK    7  A    between atoms: C_27  and  O_28
REMARK                            x       y       z     vdW  Elec       q    Type
REMARK                         _______ _______ _______ _____ _____    ______ ____
ROOT
ATOM      1  N   UNL     1       0.002  -0.004   0.002  0.00  0.00    -0.333 N 
ATOM      2  H   UNL     1       0.946  -0.352  -0.074  0.00  0.00    +0.147 HD
ENDROOT
BRANCH   1   9
ATOM      3  C   UNL     1       3.569   2.220  -0.018  0.00  0.00    +0.001 A 
ATOM      4  C   UNL     1       3.514   3.614  -0.011  0.00  0.00    +0.002 A 
ATOM      5  C   UNL     1       2.323   4.270   0.003  0.00  0.00    +0.026 A 
ATOM      6  C   UNL     1       1.119   3.537   0.010  0.00  0.00    +0.049 A 
ATOM      7  C   UNL     1       1.179   2.119   0.002  0.00  0.00    +0.020 A 
ATOM      8  C   UNL     1       2.429   1.476  -0.012  0.00  0.00    +0.012 A 
ATOM      9  C   UNL     1      -0.017   1.374   0.010  0.00  0.00    +0.046 A 
ATOM     10  C   UNL     1      -1.232   2.086   0.019  0.00  0.00    +0.020 A 
ATOM     11  C   UNL     1      -2.465   1.410   0.033  0.00  0.00    +0.012 A 
ATOM     12  C   UNL     1      -3.624   2.122   0.049  0.00  0.00    +0.001 A 
ATOM     13  C   UNL     1      -3.606   3.517   0.056  0.00  0.00    +0.002 A 
ATOM     14  C   UNL     1      -2.434   4.205   0.049  0.00  0.00    +0.026 A 
ATOM     15  C   UNL     1      -1.210   3.505   0.033  0.00  0.00    +0.049 A 
ATOM     16  N   UNL     1      -0.056   4.249   0.025  0.00  0.00    -0.354 N 
ATOM     17  H   UNL     1      -0.070   5.276   0.031  0.00  0.00    +0.166 HD
ENDBRANCH   1   9
BRANCH   1  18
ATOM     18  C   UNL     1      -0.665  -0.546   1.193  0.00  0.00    +0.158 C 
ATOM     19  C   UNL     1      -1.179  -1.958   0.894  0.00  0.00    +0.170 C 
ATOM     20  C   UNL     1      -1.803  -2.542   2.165  0.00  0.00    +0.176 C 
ATOM     21  C   UNL     1      -0.762  -2.528   3.288  0.00  0.00    +0.178 C 
ATOM     22  O   UNL     1      -0.303  -1.191   3.494  0.00  0.00    -0.341 OA
ATOM     23  C   UNL     1       0.331  -0.608   2.354  0.00  0.00    +0.270 C 
BRANCH  23  24
ATOM     24  O   UNL     1       0.771   0.713   2.675  0.00  0.00    -0.365 OA
ATOM     25  H   UNL     1       1.406   0.750   3.404  0.00  0.00    +0.213 HD
ENDBRANCH  23  24
BRANCH  20  26
ATOM     26  O   UNL     1      -2.931  -1.753   2.550  0.00  0.00    -0.387 OA
ATOM     27  H   UNL     1      -3.376  -2.066   3.349  0.00  0.00    +0.210 HD
ENDBRANCH  20  26
BRANCH  19  28
ATOM     28  O   UNL     1      -2.165  -1.899  -0.139  0.00  0.00    -0.387 OA
ATOM     29  H   UNL     1      -2.534  -2.760  -0.379  0.00  0.00    +0.210 HD
ENDBRANCH  19  28
BRANCH  21  30
ATOM     30  C   UNL     1      -1.396  -3.055   4.577  0.00  0.00    +0.190 C 
BRANCH  30  31
ATOM     31  O   UNL     1      -0.396  -3.152   5.594  0.00  0.00    -0.392 OA
ATOM     32  H   UNL     1      -0.727  -3.480   6.441  0.00  0.00    +0.210 HD
ENDBRANCH  30  31
ENDBRANCH  21  30
ENDBRANCH   1  18
TORSDOF 7
