REMARK  Name = ZINC04453341
REMARK  5 active torsions:
REMARK  status: ('A' for Active; 'I' for Inactive)
REMARK    1  A    between atoms: C_1  and  O_2
REMARK    2  A    between atoms: O_2  and  C_3
REMARK    3  A    between atoms: C_3  and  C_4
REMARK    4  A    between atoms: C_11  and  N_25
REMARK    5  A    between atoms: C_12  and  C_23
REMARK                            x       y       z     vdW  Elec       q    Type
REMARK                         _______ _______ _______ _____ _____    ______ ____
ROOT
ATOM      1  C   UNL     1       0.633  -2.085   1.012  0.00  0.00    +0.097 A 
ATOM      2  C   UNL     1      -0.359  -2.913   1.519  0.00  0.00    +0.064 A 
ATOM      3  C   UNL     1      -0.030  -4.205   1.211  0.00  0.00    +0.223 A 
ATOM      4  N   UNL     1       1.129  -4.178   0.535  0.00  0.00    -0.246 N 
ATOM      5  H   UNL     1       1.606  -4.948   0.186  0.00  0.00    +0.192 HD
ATOM      6  N   UNL     1       1.527  -2.837   0.416  0.00  0.00    -0.173 NA
ATOM      7  O   UNL     1      -0.802  -5.261   1.570  0.00  0.00    -0.423 OA
ATOM      8  C   UNL     1      -1.780  -5.050   2.474  0.00  0.00    +0.201 C 
ATOM      9  C   UNL     1      -2.203  -3.820   2.850  0.00  0.00    +0.110 C 
ATOM     10  C   UNL     1      -1.607  -2.562   2.279  0.00  0.00    +0.145 C 
ATOM     11  C   UNL     1      -2.587  -1.841   1.411  0.00  0.00    -0.002 A 
ATOM     12  C   UNL     1      -3.239  -2.219   0.257  0.00  0.00    +0.007 A 
ATOM     13  C   UNL     1      -4.104  -1.290  -0.313  0.00  0.00    +0.000 A 
ATOM     14  C   UNL     1      -4.298  -0.047   0.255  0.00  0.00    +0.002 A 
ATOM     15  C   UNL     1      -3.648   0.340   1.416  0.00  0.00    +0.023 A 
ATOM     16  C   UNL     1      -2.777  -0.583   1.998  0.00  0.00    +0.038 A 
ATOM     17  N   UNL     1      -2.009  -0.466   3.143  0.00  0.00    -0.284 N 
ATOM     18  C   UNL     1      -1.290  -1.582   3.386  0.00  0.00    +0.238 C 
ATOM     19  O   UNL     1      -0.533  -1.764   4.317  0.00  0.00    -0.274 OA
ATOM     20  H   UNL     1      -1.990   0.325   3.704  0.00  0.00    +0.155 HD
ENDROOT
BRANCH   8  21
ATOM     21  N   UNL     1      -2.382  -6.144   3.044  0.00  0.00    -0.328 N 
ATOM     22  H   UNL     1      -2.100  -7.037   2.794  0.00  0.00    +0.145 HD
ATOM     23  H   UNL     1      -3.089  -6.023   3.698  0.00  0.00    +0.145 HD
ENDBRANCH   8  21
BRANCH   9  24
ATOM     24  C   UNL     1      -3.249  -3.712   3.821  0.00  0.00    +0.102 C 
ATOM     25  N   UNL     1      -4.080  -3.627   4.591  0.00  0.00    -0.191 NA
ENDBRANCH   9  24
BRANCH   1  26
ATOM     26  C   UNL     1       0.673  -0.582   1.123  0.00  0.00    +0.217 C 
BRANCH  26  28
ATOM     27  C   UNL     1      -0.017   1.425   0.010  0.00  0.00    +0.194 C 
ATOM     28  O   UNL     1       0.002  -0.004   0.002  0.00  0.00    -0.377 OA
ENDBRANCH  26  28
ENDBRANCH   1  26
TORSDOF 4
