REMARK  Name = ZINC17028930
REMARK  6 active torsions:
REMARK  status: ('A' for Active; 'I' for Inactive)
REMARK    1  A    between atoms: C_1  and  C_2
REMARK    2  A    between atoms: C_5  and  O_32
REMARK    3  A    between atoms: C_18  and  C_31
REMARK    4  A    between atoms: C_19  and  O_30
REMARK    5  A    between atoms: C_22  and  C_24
REMARK    6  A    between atoms: O_32  and  N_33
REMARK                            x       y       z     vdW  Elec       q    Type
REMARK                         _______ _______ _______ _____ _____    ______ ____
ROOT
ATOM      1  C   UNL     1       3.919   1.486   3.339  0.00  0.00    +0.012 C 
ATOM      2  C   UNL     1       2.518   0.892   3.492  0.00  0.00    -0.026 C 
ATOM      3  C   UNL     1       1.908   1.355   4.817  0.00  0.00    +0.011 C 
ATOM      4  C   UNL     1       0.503   0.765   4.964  0.00  0.00    +0.048 C 
ATOM      5  C   UNL     1       0.587  -0.762   4.948  0.00  0.00    +0.209 C 
ATOM      6  C   UNL     1       1.200  -1.226   3.625  0.00  0.00    +0.051 C 
ATOM      7  C   UNL     1       2.604  -0.636   3.478  0.00  0.00    -0.001 C 
ATOM      8  C   UNL     1       3.215  -1.101   2.154  0.00  0.00    +0.004 C 
ATOM      9  C   UNL     1       2.341  -0.625   0.992  0.00  0.00    +0.007 C 
ATOM     10  C   UNL     1       2.247   0.902   1.018  0.00  0.00    +0.025 C 
ATOM     11  C   UNL     1       1.635   1.360   2.333  0.00  0.00    +0.001 C 
ATOM     12  C   UNL     1       1.470   2.875   2.383  0.00  0.00    +0.005 C 
ATOM     13  C   UNL     1       0.667   3.390   1.177  0.00  0.00    +0.010 C 
ATOM     14  C   UNL     1       1.399   2.946  -0.075  0.00  0.00    +0.004 C 
ATOM     15  C   UNL     1       1.359   1.394  -0.110  0.00  0.00    +0.075 C 
ATOM     16  C   UNL     1       1.841   1.105  -1.536  0.00  0.00    +0.036 C 
ATOM     17  C   UNL     1       1.103   2.182  -2.377  0.00  0.00    +0.011 C 
ATOM     18  C   UNL     1       0.773   3.343  -1.407  0.00  0.00    +0.027 C 
ATOM     19  C   UNL     1       2.851   3.425  -0.022  0.00  0.00    +0.014 C 
ENDROOT
BRANCH  18  20
ATOM     20  C   UNL     1       1.379   4.629  -1.907  0.00  0.00    -0.022 C 
ATOM     21  C   UNL     1       2.282   4.755  -2.876  0.00  0.00    +0.094 C 
ATOM     22  C   UNL     1       2.611   6.172  -3.057  0.00  0.00    +0.332 C 
ATOM     23  O   UNL     1       3.405   6.605  -3.869  0.00  0.00    -0.246 OA
ATOM     24  O   UNL     1       1.904   6.922  -2.191  0.00  0.00    -0.457 OA
ATOM     25  C   UNL     1       1.074   6.022  -1.406  0.00  0.00    +0.264 C 
ENDBRANCH  18  20
BRANCH  15  26
ATOM     26  O   UNL     1       0.022   0.924   0.069  0.00  0.00    -0.388 OA
ATOM     27  H   UNL     1      -0.062  -0.040   0.055  0.00  0.00    +0.210 HD
ENDBRANCH  15  26
BRANCH   5  28
ATOM     28  O   UNL     1       1.405  -1.206   6.032  0.00  0.00    -0.348 OA
BRANCH  28  29
ATOM     29  N   UNL     1       0.710  -1.343   7.259  0.00  0.00    +0.218 N 
ATOM     30  O   UNL     1      -0.479  -1.088   7.317  0.00  0.00    -0.090 OA
ATOM     31  O   UNL     1       1.303  -1.714   8.256  0.00  0.00    -0.090 OA
ENDBRANCH  28  29
ENDBRANCH   5  28
TORSDOF 4
