REMARK  Name = ZINC09067779
REMARK  5 active torsions:
REMARK  status: ('A' for Active; 'I' for Inactive)
REMARK    1  A    between atoms: C_4  and  N_7
REMARK    2  A    between atoms: C_9  and  C_14
REMARK    3  A    between atoms: C_14  and  N_15
REMARK    4  A    between atoms: C_16  and  C_18
REMARK    5  A    between atoms: C_23  and  N_24
REMARK                            x       y       z     vdW  Elec       q    Type
REMARK                         _______ _______ _______ _____ _____    ______ ____
ROOT
ATOM      1  C   UNL     1      -3.359  -2.818  -1.418  0.00  0.00    +0.150 C 
ENDROOT
BRANCH   1   4
ATOM      2  N   UNL     1      -1.432  -0.143  -0.374  0.00  0.00    -0.234 N 
ATOM      3  C   UNL     1      -1.457  -1.611  -0.281  0.00  0.00    +0.163 C 
ATOM      4  C   UNL     1      -2.959  -1.950  -0.223  0.00  0.00    +0.213 C 
ATOM      5  O   UNL     1      -3.616  -0.651  -0.289  0.00  0.00    -0.444 OA
ATOM      6  C   UNL     1      -2.692   0.313  -0.366  0.00  0.00    +0.408 C 
ATOM      7  O   UNL     1      -2.970   1.494  -0.427  0.00  0.00    -0.226 OA
BRANCH   2  11
ATOM      8  C   UNL     1       1.996   2.214  -0.605  0.00  0.00    +0.000 A 
ATOM      9  C   UNL     1       0.748   2.809  -0.613  0.00  0.00    +0.002 A 
ATOM     10  C   UNL     1      -0.391   2.030  -0.536  0.00  0.00    +0.023 A 
ATOM     11  C   UNL     1      -0.281   0.649  -0.452  0.00  0.00    +0.040 A 
ATOM     12  C   UNL     1       0.974   0.054  -0.445  0.00  0.00    +0.023 A 
ATOM     13  C   UNL     1       2.109   0.838  -0.522  0.00  0.00    +0.002 A 
ENDBRANCH   2  11
ENDBRANCH   1   4
BRANCH   1  14
ATOM     14  N   UNL     1      -4.789  -3.126  -1.340  0.00  0.00    -0.308 N 
ATOM     15  C   UNL     1      -5.368  -3.884  -2.292  0.00  0.00    +0.246 C 
ATOM     16  O   UNL     1      -4.704  -4.311  -3.216  0.00  0.00    -0.270 OA
ATOM     17  H   UNL     1      -5.319  -2.785  -0.603  0.00  0.00    +0.149 HD
BRANCH  15  18
ATOM     18  C   UNL     1      -6.811  -4.195  -2.214  0.00  0.00    +0.067 A 
ATOM     19  C   UNL     1      -7.548  -3.822  -1.088  0.00  0.00    +0.015 A 
ATOM     20  C   UNL     1      -8.894  -4.116  -1.021  0.00  0.00    +0.001 A 
ATOM     21  C   UNL     1      -9.514  -4.778  -2.066  0.00  0.00    +0.002 A 
ATOM     22  C   UNL     1      -8.790  -5.150  -3.184  0.00  0.00    +0.033 A 
ATOM     23  C   UNL     1      -7.444  -4.858  -3.267  0.00  0.00    +0.138 A 
BRANCH  23  24
ATOM     24  N   UNL     1      -6.671  -5.251  -4.466  0.00  0.00    +0.057 N 
ATOM     25  O   UNL     1      -5.975  -4.431  -5.038  0.00  0.00    -0.126 OA
ATOM     26  O   UNL     1      -6.731  -6.394  -4.882  0.00  0.00    -0.126 OA
ENDBRANCH  23  24
ENDBRANCH  15  18
ENDBRANCH   1  14
TORSDOF 5
