REMARK  Name = ZINC32978680
REMARK  7 active torsions:
REMARK  status: ('A' for Active; 'I' for Inactive)
REMARK    1  A    between atoms: C_1  and  C_2
REMARK    2  A    between atoms: C_2  and  C_3
REMARK    3  A    between atoms: C_6  and  C_9
REMARK    4  A    between atoms: C_9  and  C_11
REMARK    5  A    between atoms: C_9  and  N_12
REMARK    6  A    between atoms: C_13  and  C_15
REMARK    7  A    between atoms: C_24  and  C_27
REMARK                            x       y       z     vdW  Elec       q    Type
REMARK                         _______ _______ _______ _____ _____    ______ ____
ROOT
ATOM      1  N   UNL     1      -0.704   1.975   1.216  0.00  0.00    -0.305 N 
ATOM      2  C   UNL     1      -0.430   3.198   1.711  0.00  0.00    +0.245 C 
ATOM      3  O   UNL     1       0.386   3.910   1.158  0.00  0.00    -0.270 OA
ATOM      4  H   UNL     1      -1.442   1.332   1.716  0.00  0.00    +0.150 HD
ENDROOT
BRANCH   2   5
ATOM      5  C   UNL     1      -1.121   3.674   2.925  0.00  0.00    +0.039 A 
ATOM      6  C   UNL     1      -2.059   2.855   3.560  0.00  0.00    +0.014 A 
ATOM      7  C   UNL     1      -2.700   3.301   4.694  0.00  0.00    +0.017 A 
ATOM      8  C   UNL     1      -2.415   4.561   5.204  0.00  0.00    +0.030 A 
ATOM      9  C   UNL     1      -1.481   5.392   4.577  0.00  0.00    +0.048 A 
ATOM     10  C   UNL     1      -0.831   4.939   3.440  0.00  0.00    +0.037 A 
ATOM     11  N   UNL     1      -1.188   6.661   5.071  0.00  0.00    -0.284 N 
ATOM     12  C   UNL     1      -1.386   7.086   6.316  0.00  0.00    +0.230 C 
ATOM     13  O   UNL     1      -1.067   8.223   6.591  0.00  0.00    -0.274 OA
ATOM     14  C   UNL     1      -1.985   6.234   7.402  0.00  0.00    +0.134 C 
ATOM     15  S   UNL     1      -3.228   5.132   6.663  0.00  0.00    -0.111 S 
ATOM     16  C   UNL     1      -2.650   7.130   8.448  0.00  0.00    +0.029 C 
ATOM     17  H   UNL     1      -0.750   7.422   4.409  0.00  0.00    +0.155 HD
ENDBRANCH   2   5
BRANCH   1  18
ATOM     18  C   UNL     1      -0.018   1.503   0.010  0.00  0.00    +0.100 C 
ATOM     19  C   UNL     1      -0.758   2.010  -1.229  0.00  0.00    +0.033 C 
BRANCH  18  23
ATOM     20  C   UNL     1       0.040  -2.768  -0.012  0.00  0.00    -0.048 A 
ATOM     21  C   UNL     1       1.151  -2.060  -0.429  0.00  0.00    +0.004 A 
ATOM     22  C   UNL     1       1.132  -0.678  -0.422  0.00  0.00    +0.006 A 
ATOM     23  C   UNL     1       0.002  -0.004   0.002  0.00  0.00    -0.027 A 
ATOM     24  C   UNL     1      -1.107  -0.713   0.424  0.00  0.00    +0.006 A 
ATOM     25  C   UNL     1      -1.091  -2.095   0.411  0.00  0.00    +0.004 A 
BRANCH  20  27
ATOM     26  C   UNL     1       0.574  -4.785   1.328  0.00  0.00    +0.009 C 
ATOM     27  C   UNL     1       0.060  -4.275  -0.020  0.00  0.00    +0.032 C 
ENDBRANCH  20  27
ENDBRANCH  18  23
ENDBRANCH   1  18
TORSDOF 4
