REMARK  Name = ZINC41789919
REMARK  5 active torsions:
REMARK  status: ('A' for Active; 'I' for Inactive)
REMARK    1  A    between atoms: N_13  and  C_14
REMARK    2  A    between atoms: C_14  and  C_15
REMARK    3  A    between atoms: C_15  and  C_16
REMARK    4  A    between atoms: N_18  and  C_19
REMARK    5  A    between atoms: C_19  and  C_20
REMARK                            x       y       z     vdW  Elec       q    Type
REMARK                         _______ _______ _______ _____ _____    ______ ____
ROOT
ATOM      1  C   UNL     1       5.345   0.352   1.396  0.00  0.00    +0.117 C 
ENDROOT
BRANCH   1   2
ATOM      2  C   UNL     1       6.646   1.113   1.387  0.00  0.00    +0.215 C 
ATOM      3  O   UNL     1       7.159   1.425   0.334  0.00  0.00    -0.276 OA
ATOM      4  N   UNL     1       7.238   1.448   2.551  0.00  0.00    -0.310 N 
ATOM      5  H   UNL     1       6.827   1.199   3.394  0.00  0.00    +0.149 HD
BRANCH   4   6
ATOM      6  C   UNL     1       8.503   2.188   2.543  0.00  0.00    +0.161 C 
BRANCH   6   7
ATOM      7  C   UNL     1       8.950   2.434   3.961  0.00  0.00    +0.077 A 
ATOM      8  C   UNL     1       9.817   1.668   4.658  0.00  0.00    +0.117 A 
ATOM      9  N   UNL     1       9.951   2.235   5.896  0.00  0.00    -0.305 N 
ATOM     10  C   UNL     1      10.687   1.892   6.994  0.00  0.00    +0.112 A 
ATOM     11  C   UNL     1      10.637   2.641   8.117  0.00  0.00    +0.058 A 
ATOM     12  C   UNL     1       9.824   3.786   8.169  0.00  0.00    +0.025 A 
ATOM     13  C   UNL     1       9.087   4.138   7.082  0.00  0.00    +0.048 A 
ATOM     14  C   UNL     1       9.150   3.346   5.918  0.00  0.00    +0.138 A 
ATOM     15  N   UNL     1       8.559   3.449   4.735  0.00  0.00    -0.231 NA
ATOM     16 CL   UNL     1      11.580   2.186   9.502  0.00  0.00    -0.082 Cl
ENDBRANCH   6   7
ENDBRANCH   4   6
ENDBRANCH   1   2
BRANCH   1  17
ATOM     17  C   UNL     1       4.891   0.102  -0.044  0.00  0.00    +0.136 C 
BRANCH  17  30
ATOM     18  C   UNL     1      -0.017   1.375   0.010  0.00  0.00    +0.001 A 
ATOM     19  C   UNL     1       1.169   2.093   0.002  0.00  0.00    +0.002 A 
ATOM     20  C   UNL     1       2.386   1.442  -0.013  0.00  0.00    +0.027 A 
ATOM     21  C   UNL     1       2.425   0.056  -0.021  0.00  0.00    +0.059 A 
ATOM     22  C   UNL     1       1.223  -0.673  -0.013  0.00  0.00    +0.063 A 
ATOM     23  C   UNL     1       0.002  -0.004   0.002  0.00  0.00    +0.015 A 
ATOM     24  C   UNL     1       1.301  -2.145  -0.021  0.00  0.00    +0.262 A 
ATOM     25  O   UNL     1       0.291  -2.823  -0.016  0.00  0.00    -0.267 OA
ATOM     26  N   UNL     1       2.522  -2.722  -0.036  0.00  0.00    -0.274 N 
ATOM     27  H   UNL     1       2.591  -3.689  -0.042  0.00  0.00    +0.173 HD
ATOM     28  C   UNL     1       3.642  -1.982  -0.043  0.00  0.00    +0.330 A 
ATOM     29  O   UNL     1       4.716  -2.551  -0.056  0.00  0.00    -0.246 OA
ATOM     30  N   UNL     1       3.627  -0.638  -0.036  0.00  0.00    -0.293 N 
ENDBRANCH  17  30
ENDBRANCH   1  17
TORSDOF 5
