REMARK  Name = ZINC16282795
REMARK  6 active torsions:
REMARK  status: ('A' for Active; 'I' for Inactive)
REMARK    1  A    between atoms: C_1  and  C_2
REMARK    2  A    between atoms: C_7  and  O_8
REMARK    3  A    between atoms: O_8  and  C_9
REMARK    4  A    between atoms: C_9  and  C_11
REMARK    5  A    between atoms: C_9  and  C_12
REMARK    6  A    between atoms: N_14  and  N_15
REMARK                            x       y       z     vdW  Elec       q    Type
REMARK                         _______ _______ _______ _____ _____    ______ ____
ROOT
ATOM      1  C   UNL     1       0.548  -0.055   4.721  0.00  0.00    +0.273 C 
ATOM      2  O   UNL     1       0.931   1.084   4.557  0.00  0.00    -0.270 OA
ATOM      3  N   UNL     1       0.668  -0.639   5.929  0.00  0.00    -0.202 N 
ATOM      4  H   UNL     1       0.361  -1.550   6.059  0.00  0.00    +0.177 HD
ENDROOT
BRANCH   3   5
ATOM      5  N   UNL     1       1.236   0.068   6.996  0.00  0.00    -0.162 NA
ATOM      6  C   UNL     1       1.353  -0.501   8.172  0.00  0.00    +0.158 C 
ATOM      7  C   UNL     1       1.923   0.120   9.385  0.00  0.00    +0.029 A 
ATOM      8  C   UNL     1       2.468   1.360   9.682  0.00  0.00    +0.012 A 
ATOM      9  C   UNL     1       2.922   1.619  10.962  0.00  0.00    +0.001 A 
ATOM     10  C   UNL     1       2.838   0.649  11.949  0.00  0.00    +0.001 A 
ATOM     11  C   UNL     1       2.299  -0.591  11.670  0.00  0.00    +0.012 A 
ATOM     12  C   UNL     1       1.836  -0.870  10.388  0.00  0.00    +0.023 A 
ATOM     13  C   UNL     1       1.221  -2.041   9.747  0.00  0.00    +0.103 C 
ATOM     14  N   UNL     1       0.966  -1.765   8.491  0.00  0.00    -0.326 N 
ATOM     15  N   UNL     1       0.949  -3.242  10.372  0.00  0.00    -0.344 N 
ATOM     16  H   UNL     1       1.167  -3.361  11.310  0.00  0.00    +0.144 HD
ATOM     17  H   UNL     1       0.540  -3.967   9.874  0.00  0.00    +0.144 HD
ATOM     18  H   UNL     1       0.555  -2.385   7.868  0.00  0.00    +0.169 HD
ENDBRANCH   3   5
BRANCH   1  19
ATOM     19  C   UNL     1      -0.064  -0.816   3.572  0.00  0.00    +0.257 C 
ATOM     20  C   UNL     1      -1.533  -1.110   3.881  0.00  0.00    +0.062 C 
BRANCH  19  21
ATOM     21  O   UNL     1       0.025  -0.033   2.381  0.00  0.00    -0.480 OA
BRANCH  21  28
ATOM     22  C   UNL     1       0.428   1.474   0.026  0.00  0.00    +0.047 C 
ATOM     23  C   UNL     1       0.216  -0.018   0.009  0.00  0.00    -0.007 A 
ATOM     24  C   UNL     1       0.219  -0.704  -1.190  0.00  0.00    +0.027 A 
ATOM     25  C   UNL     1       0.025  -2.073  -1.206  0.00  0.00    +0.041 A 
ATOM     26  C   UNL     1      -0.173  -2.759  -0.020  0.00  0.00    +0.023 A 
ATOM     27  C   UNL     1      -0.177  -2.077   1.181  0.00  0.00    +0.047 A 
ATOM     28  C   UNL     1       0.023  -0.704   1.199  0.00  0.00    +0.125 A 
ATOM     29 CL   UNL     1       0.029  -2.932  -2.714  0.00  0.00    -0.084 Cl
ENDBRANCH  21  28
ENDBRANCH  19  21
ENDBRANCH   1  19
TORSDOF 4
