REMARK  Name = ZINC27664403
REMARK  10 active torsions:
REMARK  status: ('A' for Active; 'I' for Inactive)
REMARK    1  A    between atoms: C_1  and  O_2
REMARK    2  A    between atoms: O_2  and  C_3
REMARK    3  A    between atoms: C_6  and  C_9
REMARK    4  A    between atoms: C_9  and  C_11
REMARK    5  A    between atoms: C_13  and  C_25
REMARK    6  A    between atoms: C_19  and  C_20
REMARK    7  A    between atoms: C_19  and  O_24
REMARK    8  A    between atoms: C_28  and  O_33
REMARK    9  A    between atoms: C_29  and  O_31
REMARK   10  A    between atoms: O_31  and  C_32
REMARK                            x       y       z     vdW  Elec       q    Type
REMARK                         _______ _______ _______ _____ _____    ______ ____
ROOT
ATOM      1  C   UNL     1       2.976   4.076   1.435  0.00  0.00    +0.144 C 
ATOM      2  C   UNL     1       2.449   3.933   0.003  0.00  0.00    +0.120 C 
ATOM      3  N   UNL     1       3.433   3.205  -0.801  0.00  0.00    -0.292 N 
ATOM      4  C   UNL     1       4.744   3.267  -0.522  0.00  0.00    +0.302 C 
ATOM      5  O   UNL     1       5.520   2.652  -1.228  0.00  0.00    -0.253 OA
ATOM      6  N   UNL     1       5.232   3.979   0.504  0.00  0.00    -0.264 N 
ATOM      7  C   UNL     1       4.351   4.751   1.383  0.00  0.00    +0.243 C 
ATOM      8  H   UNL     1       3.103   2.593  -1.653  0.00  0.00    +0.151 HD
ATOM      9  H   UNL     1       6.318   3.976   0.679  0.00  0.00    +0.153 HD
ENDROOT
BRANCH   2  10
ATOM     10  C   UNL     1       1.149   3.170   0.019  0.00  0.00    -0.023 A 
ATOM     11  C   UNL     1       1.157   1.792  -0.094  0.00  0.00    +0.009 A 
ATOM     12  C   UNL     1      -0.032   1.087  -0.080  0.00  0.00    +0.049 A 
ATOM     13  C   UNL     1      -1.236   1.763   0.042  0.00  0.00    +0.158 A 
ATOM     14  C   UNL     1      -1.243   3.149   0.161  0.00  0.00    +0.162 A 
ATOM     15  C   UNL     1      -0.048   3.849   0.146  0.00  0.00    +0.055 A 
BRANCH  14  16
ATOM     16  O   UNL     1      -2.422   3.816   0.285  0.00  0.00    -0.491 OA
ATOM     17  C   UNL     1      -2.353   5.239   0.397  0.00  0.00    +0.277 C 
ENDBRANCH  14  16
BRANCH  13  18
ATOM     18  O   UNL     1      -2.407   1.072   0.050  0.00  0.00    -0.503 OA
ATOM     19  H   UNL     1      -3.362   1.609   0.147  0.00  0.00    +0.292 HD
ENDBRANCH  13  18
ENDBRANCH   2  10
BRANCH   7  20
ATOM     20  C   UNL     1       4.203   6.173   0.837  0.00  0.00    +0.436 C 
ATOM     21  F   UNL     1       3.355   6.907   1.673  0.00  0.00    -0.166 F 
ATOM     22  F   UNL     1       5.458   6.788   0.790  0.00  0.00    -0.166 F 
ATOM     23  F   UNL     1       3.659   6.124  -0.451  0.00  0.00    -0.166 F 
ENDBRANCH   7  20
BRANCH   1  24
ATOM     24  C   UNL     1       3.105   2.714   2.066  0.00  0.00    +0.173 C 
ATOM     25  O   UNL     1       3.440   1.762   1.392  0.00  0.00    -0.292 OA
BRANCH  24  29
ATOM     26  C   UNL     1       2.296   2.206   6.192  0.00  0.00    +0.120 A 
ATOM     27  C   UNL     1       2.679   1.114   5.421  0.00  0.00    +0.046 A 
ATOM     28  C   UNL     1       2.943   1.273   4.085  0.00  0.00    +0.015 A 
ATOM     29  C   UNL     1       2.824   2.538   3.496  0.00  0.00    +0.018 A 
ATOM     30  C   UNL     1       2.442   3.635   4.278  0.00  0.00    +0.015 A 
ATOM     31  C   UNL     1       2.176   3.465   5.612  0.00  0.00    +0.046 A 
BRANCH  26  33
ATOM     32  C   UNL     1       1.647   3.207   8.246  0.00  0.00    +0.277 C 
ATOM     33  O   UNL     1       2.036   2.043   7.513  0.00  0.00    -0.495 OA
ENDBRANCH  26  33
ENDBRANCH  24  29
ENDBRANCH   1  24
BRANCH   7  34
ATOM     34  O   UNL     1       4.910   4.798   2.697  0.00  0.00    -0.364 OA
ATOM     35  H   UNL     1       5.899   5.250   2.858  0.00  0.00    +0.212 HD
ENDBRANCH   7  34
TORSDOF 8
