REMARK  Name = ZINC39359087
REMARK  6 active torsions:
REMARK  status: ('A' for Active; 'I' for Inactive)
REMARK    1  A    between atoms: C_1  and  O_2
REMARK    2  A    between atoms: O_2  and  C_3
REMARK    3  A    between atoms: C_7  and  C_10
REMARK    4  A    between atoms: C_8  and  O_9
REMARK    5  A    between atoms: C_13  and  O_32
REMARK    6  A    between atoms: C_24  and  C_27
REMARK                            x       y       z     vdW  Elec       q    Type
REMARK                         _______ _______ _______ _____ _____    ______ ____
ROOT
ATOM      1  C   UNL     1      -2.549  -4.175   0.017  0.00  0.00    +0.092 C 
ATOM      2  C   UNL     1      -3.309  -4.654  -1.184  0.00  0.00    +0.049 C 
ATOM      3  C   UNL     1      -3.627  -4.126  -2.345  0.00  0.00    +0.235 C 
ATOM      4  N   UNL     1      -4.456  -4.960  -3.030  0.00  0.00    -0.114 NA
ATOM      5  N   UNL     1      -4.694  -6.030  -2.455  0.00  0.00    -0.157 NA
ATOM      6  C   UNL     1      -3.929  -6.054  -1.207  0.00  0.00    +0.245 C 
ATOM      7  N   UNL     1      -4.782  -6.084  -0.017  0.00  0.00    -0.321 N 
ATOM      8  C   UNL     1      -4.313  -5.557   1.161  0.00  0.00    +0.014 C 
ATOM      9  C   UNL     1      -3.303  -4.663   1.245  0.00  0.00    +0.024 C 
ATOM     10  C   UNL     1      -2.894  -4.132   2.480  0.00  0.00    +0.162 C 
ATOM     11  O   UNL     1      -1.979  -3.333   2.508  0.00  0.00    -0.292 OA
ATOM     12  C   UNL     1      -3.562  -4.528   3.767  0.00  0.00    +0.088 C 
ATOM     13  C   UNL     1      -5.011  -4.928   3.469  0.00  0.00    +0.039 C 
ATOM     14  C   UNL     1      -4.999  -6.045   2.421  0.00  0.00    +0.060 C 
ATOM     15  H   UNL     1      -5.670  -6.472  -0.060  0.00  0.00    +0.148 HD
ENDROOT
BRANCH   1  20
ATOM     16  C   UNL     1      -1.201  -0.638   0.010  0.00  0.00    +0.162 A 
ATOM     17  C   UNL     1      -2.374   0.099   0.019  0.00  0.00    +0.049 A 
ATOM     18  C   UNL     1      -3.596  -0.546   0.027  0.00  0.00    +0.004 A 
ATOM     19  C   UNL     1      -3.652  -1.928   0.026  0.00  0.00    +0.008 A 
ATOM     20  C   UNL     1      -2.485  -2.669   0.017  0.00  0.00    +0.010 A 
ATOM     21  C   UNL     1      -1.257  -2.028   0.003  0.00  0.00    +0.163 A 
BRANCH  16  23
ATOM     22  C   UNL     1      -0.017   1.425   0.010  0.00  0.00    +0.277 C 
ATOM     23  O   UNL     1       0.002  -0.004   0.002  0.00  0.00    -0.491 OA
ENDBRANCH  16  23
BRANCH  21  24
ATOM     24  O   UNL     1      -0.108  -2.756  -0.012  0.00  0.00    -0.503 OA
ATOM     25  H   UNL     1       0.232  -2.972   0.867  0.00  0.00    +0.292 HD
ENDBRANCH  21  24
ENDBRANCH   1  20
BRANCH  13  26
ATOM     26  C   UNL     1      -5.672  -5.421   4.730  0.00  0.00    -0.006 A 
ATOM     27  C   UNL     1      -6.769  -4.938   5.363  0.00  0.00    +0.011 A 
ATOM     28  C   UNL     1      -7.202  -5.557   6.521  0.00  0.00    +0.008 A 
ATOM     29  C   UNL     1      -6.516  -6.628   6.989  0.00  0.00    +0.045 A 
ATOM     30  S   UNL     1      -5.218  -6.795   5.775  0.00  0.00    -0.101 S 
ENDBRANCH  13  26
BRANCH   3  31
ATOM     31  O   UNL     1      -3.190  -2.921  -2.797  0.00  0.00    -0.491 OA
ATOM     32  H   UNL     1      -3.522  -2.686  -3.674  0.00  0.00    +0.294 HD
ENDBRANCH   3  31
TORSDOF 5
