REMARK  Name = ZINC25035249
REMARK  3 active torsions:
REMARK  status: ('A' for Active; 'I' for Inactive)
REMARK    1  A    between atoms: C_9  and  C_11
REMARK    2  A    between atoms: N_14  and  C_17
REMARK    3  A    between atoms: C_17  and  C_18
REMARK                            x       y       z     vdW  Elec       q    Type
REMARK                         _______ _______ _______ _____ _____    ______ ____
ROOT
ATOM      1  C   UNL     1       6.171  -0.138  -0.058  0.00  0.00    +0.047 C 
ATOM      2  C   UNL     1       6.871   0.420   1.184  0.00  0.00    +0.025 C 
ATOM      3  C   UNL     1       8.357   0.057   1.132  0.00  0.00    +0.085 C 
ATOM      4  N   UNL     1       8.957   0.620  -0.085  0.00  0.00    -0.295 NA
ATOM      5  C   UNL     1       8.332   0.062  -1.292  0.00  0.00    +0.085 C 
ATOM      6  C   UNL     1       6.846   0.425  -1.312  0.00  0.00    +0.025 C 
ENDROOT
BRANCH   1  15
ATOM      7  C   UNL     1      -0.017   1.385   0.010  0.00  0.00    +0.021 A 
ATOM      8  C   UNL     1       1.177   2.082   0.002  0.00  0.00    +0.018 A 
ATOM      9  C   UNL     1       2.363   1.391  -0.013  0.00  0.00    +0.039 A 
ATOM     10  C   UNL     1       2.417  -0.021  -0.021  0.00  0.00    +0.080 A 
ATOM     11  C   UNL     1       1.183  -0.704  -0.013  0.00  0.00    +0.049 A 
ATOM     12  C   UNL     1       0.002  -0.004   0.002  0.00  0.00    +0.043 A 
ATOM     13 CL   UNL     1      -1.500  -0.874   0.012  0.00  0.00    -0.083 Cl
ATOM     14  N   UNL     1       3.675  -0.509  -0.036  0.00  0.00    -0.244 NA
ATOM     15  C   UNL     1       4.719   0.267  -0.042  0.00  0.00    +0.083 A 
ATOM     16  S   UNL     1       4.083   1.825  -0.028  0.00  0.00    -0.072 S 
ENDBRANCH   1  15
BRANCH   4  17
ATOM     17  C   UNL     1      10.411   0.410  -0.100  0.00  0.00    +0.160 C 
BRANCH  17  18
ATOM     18  C   UNL     1      11.021   1.204  -1.226  0.00  0.00    +0.150 A 
ATOM     19  N   UNL     1      11.147   0.661  -2.424  0.00  0.00    -0.198 NA
ATOM     20  C   UNL     1      11.685   1.359  -3.421  0.00  0.00    +0.217 A 
ATOM     21  N   UNL     1      12.096   2.605  -3.211  0.00  0.00    -0.181 NA
ATOM     22  C   UNL     1      11.968   3.148  -2.005  0.00  0.00    +0.217 A 
ATOM     23  N   UNL     1      11.424   2.445  -1.014  0.00  0.00    -0.198 NA
ATOM     24  N   UNL     1      12.393   4.442  -1.781  0.00  0.00    -0.327 N 
ATOM     25  N   UNL     1      11.816   0.790  -4.671  0.00  0.00    -0.327 N 
ATOM     26  H   UNL     1      12.786   4.955  -2.505  0.00  0.00    +0.145 HD
ATOM     27  H   UNL     1      12.300   4.838  -0.901  0.00  0.00    +0.145 HD
ATOM     28  H   UNL     1      11.516  -0.119  -4.824  0.00  0.00    +0.145 HD
ATOM     29  H   UNL     1      12.208   1.300  -5.397  0.00  0.00    +0.145 HD
ENDBRANCH  17  18
ENDBRANCH   4  17
TORSDOF 3
