REMARK  Name = ZINC60318230
REMARK  10 active torsions:
REMARK  status: ('A' for Active; 'I' for Inactive)
REMARK    1  A    between atoms: C_1  and  O_2
REMARK    2  A    between atoms: O_2  and  C_3
REMARK    3  A    between atoms: C_3  and  C_5
REMARK    4  A    between atoms: C_5  and  C_7
REMARK    5  A    between atoms: C_5  and  N_13
REMARK    6  A    between atoms: C_14  and  C_16
REMARK    7  A    between atoms: C_16  and  S_17
REMARK    8  A    between atoms: S_17  and  C_18
REMARK    9  A    between atoms: C_21  and  C_27
REMARK   10  A    between atoms: C_23  and  N_24
REMARK                            x       y       z     vdW  Elec       q    Type
REMARK                         _______ _______ _______ _____ _____    ______ ____
ROOT
ATOM      1  C   UNL     1       1.391  -3.010  -4.766  0.00  0.00    +0.170 C 
ENDROOT
BRANCH   1   3
ATOM      2  N   UNL     1       1.354  -2.503  -2.345  0.00  0.00    -0.298 N 
ATOM      3  C   UNL     1       0.675  -2.599  -3.505  0.00  0.00    +0.224 C 
ATOM      4  O   UNL     1      -0.513  -2.355  -3.535  0.00  0.00    -0.275 OA
ATOM      5  H   UNL     1       2.304  -2.698  -2.322  0.00  0.00    +0.150 HD
BRANCH   2   6
ATOM      6  C   UNL     1       0.657  -2.104  -1.120  0.00  0.00    +0.213 C 
BRANCH   6   7
ATOM      7  C   UNL     1       1.400  -2.639   0.077  0.00  0.00    -0.017 A 
ATOM      8  C   UNL     1       2.782  -2.615   0.101  0.00  0.00    +0.006 A 
ATOM      9  C   UNL     1       3.464  -3.106   1.199  0.00  0.00    +0.000 A 
ATOM     10  C   UNL     1       2.763  -3.621   2.273  0.00  0.00    +0.000 A 
ATOM     11  C   UNL     1       1.381  -3.644   2.250  0.00  0.00    +0.000 A 
ATOM     12  C   UNL     1       0.700  -3.149   1.154  0.00  0.00    +0.006 A 
ENDBRANCH   6   7
BRANCH   6  13
ATOM     13  C   UNL     1       0.598  -0.600  -1.043  0.00  0.00    +0.332 C 
ATOM     14  O   UNL     1       1.088   0.070  -1.921  0.00  0.00    -0.248 OA
BRANCH  13  16
ATOM     15  C   UNL     1      -0.017   1.425   0.010  0.00  0.00    +0.280 C 
ATOM     16  O   UNL     1       0.002  -0.004   0.002  0.00  0.00    -0.466 OA
ENDBRANCH  13  16
ENDBRANCH   6  13
ENDBRANCH   2   6
ENDBRANCH   1   3
BRANCH   1  17
ATOM     17  S   UNL     1       0.214  -3.047  -6.146  0.00  0.00    -0.114 S 
BRANCH  17  18
ATOM     18  C   UNL     1       1.191  -3.537  -7.527  0.00  0.00    +0.039 A 
ATOM     19  C   UNL     1       2.550  -3.795  -7.361  0.00  0.00    +0.018 A 
ATOM     20  C   UNL     1       3.313  -4.175  -8.428  0.00  0.00    +0.014 A 
ATOM     21  C   UNL     1       2.731  -4.307  -9.693  0.00  0.00    +0.039 A 
ATOM     22  C   UNL     1       1.368  -4.050  -9.863  0.00  0.00    +0.047 A 
ATOM     23  C   UNL     1       0.603  -3.672  -8.782  0.00  0.00    +0.140 A 
BRANCH  21  24
ATOM     24  C   UNL     1       3.555  -4.717 -10.845  0.00  0.00    +0.242 C 
ATOM     25  O   UNL     1       3.048  -4.832 -11.945  0.00  0.00    -0.270 OA
ATOM     26  N   UNL     1       4.870  -4.965 -10.680  0.00  0.00    -0.325 N 
ATOM     27  H   UNL     1       5.274  -4.874  -9.803  0.00  0.00    +0.145 HD
ATOM     28  H   UNL     1       5.411  -5.235 -11.438  0.00  0.00    +0.145 HD
ENDBRANCH  21  24
BRANCH  23  29
ATOM     29  N   UNL     1      -0.843  -3.404  -8.956  0.00  0.00    +0.058 N 
ATOM     30  O   UNL     1      -1.353  -3.521 -10.045  0.00  0.00    -0.126 OA
ATOM     31  O   UNL     1      -1.513  -3.067  -8.007  0.00  0.00    -0.126 OA
ENDBRANCH  23  29
ENDBRANCH  17  18
ENDBRANCH   1  17
TORSDOF 9
