REMARK  Name = ZINC09483121
REMARK  5 active torsions:
REMARK  status: ('A' for Active; 'I' for Inactive)
REMARK    1  A    between atoms: C_3  and  C_13
REMARK    2  A    between atoms: C_4  and  N_10
REMARK    3  A    between atoms: C_6  and  C_7
REMARK    4  A    between atoms: C_13  and  S_14
REMARK    5  A    between atoms: S_14  and  C_15
REMARK                            x       y       z     vdW  Elec       q    Type
REMARK                         _______ _______ _______ _____ _____    ______ ____
ROOT
ATOM      1  C   UNL     1       0.001   1.419  -0.060  0.00  0.00    +0.013 A 
ATOM      2  C   UNL     1       1.206   2.090  -0.117  0.00  0.00    +0.007 A 
ATOM      3  C   UNL     1       2.395   1.386  -0.064  0.00  0.00    -0.007 A 
ATOM      4  C   UNL     1       2.386   0.007   0.047  0.00  0.00    +0.131 A 
ATOM      5  C   UNL     1       1.189  -0.675   0.105  0.00  0.00    +0.046 A 
ATOM      6  C   UNL     1      -0.015   0.029   0.052  0.00  0.00    +0.039 A 
ENDROOT
BRANCH   6   7
ATOM      7  C   UNL     1      -1.303  -0.696   0.114  0.00  0.00    +0.242 C 
ATOM      8  O   UNL     1      -1.314  -1.908   0.211  0.00  0.00    -0.270 OA
ATOM      9  N   UNL     1      -2.464  -0.014   0.062  0.00  0.00    -0.325 N 
ATOM     10  H   UNL     1      -2.455   0.953  -0.015  0.00  0.00    +0.145 HD
ATOM     11  H   UNL     1      -3.308  -0.489   0.103  0.00  0.00    +0.145 HD
ENDBRANCH   6   7
BRANCH   4  12
ATOM     12  N   UNL     1       3.664  -0.738   0.103  0.00  0.00    +0.057 N 
ATOM     13  O   UNL     1       3.764  -1.809  -0.449  0.00  0.00    -0.126 OA
ATOM     14  O   UNL     1       4.608  -0.275   0.699  0.00  0.00    -0.126 OA
ENDBRANCH   4  12
BRANCH   3  15
ATOM     15  C   UNL     1       3.707   2.125  -0.127  0.00  0.00    +0.113 C 
BRANCH  15  16
ATOM     16  S   UNL     1       4.216   2.600   1.548  0.00  0.00    -0.092 S 
BRANCH  16  17
ATOM     17  C   UNL     1       5.744   3.442   1.307  0.00  0.00    +0.160 A 
ATOM     18  N   UNL     1       6.393   3.693   0.186  0.00  0.00    -0.133 NA
ATOM     19  N   UNL     1       7.587   4.375   0.224  0.00  0.00    -0.125 NA
ATOM     20  C   UNL     1       8.078   4.775   1.381  0.00  0.00    +0.180 A 
ATOM     21  S   UNL     1       6.827   4.191   2.514  0.00  0.00    -0.025 S 
ATOM     22  N   UNL     1       9.252   5.469   1.646  0.00  0.00    -0.336 N 
ATOM     23  H   UNL     1       9.839   5.727   0.918  0.00  0.00    +0.144 HD
ATOM     24  H   UNL     1       9.485   5.697   2.560  0.00  0.00    +0.144 HD
ENDBRANCH  16  17
ENDBRANCH  15  16
ENDBRANCH   3  15
TORSDOF 5
