REMARK  Name = ZINC13799170
REMARK  8 active torsions:
REMARK  status: ('A' for Active; 'I' for Inactive)
REMARK    1  A    between atoms: C_1  and  C_2
REMARK    2  A    between atoms: C_2  and  N_3
REMARK    3  A    between atoms: N_3  and  C_4
REMARK    4  A    between atoms: C_7  and  C_21
REMARK    5  A    between atoms: C_15  and  S_17
REMARK    6  A    between atoms: S_17  and  N_20
REMARK    7  A    between atoms: C_22  and  C_24
REMARK    8  A    between atoms: CA_28  and  C_30
REMARK                            x       y       z     vdW  Elec       q    Type
REMARK                         _______ _______ _______ _____ _____    ______ ____
ROOT
ATOM      1  C   UNL     1      -1.811   3.763   0.570  0.00  0.00    +0.111 C 
ATOM      2  C   UNL     1      -1.169   4.617  -0.510  0.00  0.00    +0.053 C 
ATOM      3  C   UNL     1      -2.236   5.323  -1.361  0.00  0.00    +0.136 C 
ATOM      4  S   UNL     1      -2.970   6.626  -0.312  0.00  0.00    +0.006 S 
ATOM      5  O   UNL     1      -2.034   7.671  -0.086  0.00  0.00    -0.169 OA
ATOM      6  O   UNL     1      -4.300   6.909  -0.726  0.00  0.00    -0.169 OA
ATOM      7  C   UNL     1      -3.128   5.807   1.232  0.00  0.00    +0.132 A 
ATOM      8  C   UNL     1      -2.611   4.593   1.562  0.00  0.00    +0.007 A 
ATOM      9  C   UNL     1      -2.868   4.160   2.868  0.00  0.00    +0.043 A 
ATOM     10  C   UNL     1      -3.597   4.926   3.711  0.00  0.00    +0.144 A 
ATOM     11  S   UNL     1      -3.971   6.344   2.690  0.00  0.00    -0.050 S 
ATOM     12  C   UNL     1      -1.588   5.948  -2.599  0.00  0.00    +0.032 C 
ENDROOT
BRANCH   1  13
ATOM     13  N   UNL     1      -0.760   3.042   1.293  0.00  0.00    -0.289 N 
ATOM     14  C   UNL     1       0.204   3.727   1.939  0.00  0.00    +0.265 C 
ATOM     15  O   UNL     1       0.148   4.939   2.006  0.00  0.00    -0.268 OA
BRANCH  14  16
ATOM     16  C   UNL     1       1.334   3.002   2.568  0.00  0.00    +0.126 A 
ATOM     17  C   UNL     1       2.260   3.704   3.342  0.00  0.00    +0.033 A 
ATOM     18  C   UNL     1       3.313   3.018   3.925  0.00  0.00    +0.005 A 
ATOM     19  C   UNL     1       3.409   1.651   3.718  0.00  0.00    +0.035 A 
ATOM     20  CA  UNL     1       2.448   1.011   2.933  0.00  0.00    +0.153 A 
ATOM     21  N   UNL     1       1.451   1.696   2.394  0.00  0.00    -0.235 NA
BRANCH  20  22
ATOM     22  C   UNL     1       2.542  -0.450   2.706  0.00  0.00    +0.404 C 
ATOM     23  O   UNL     1       3.450  -1.084   3.201  0.00  0.00    -0.239 OA
ATOM     24  OXT UNL     1       1.619  -1.074   1.949  0.00  0.00    -0.239 OA
ENDBRANCH  20  22
ENDBRANCH  14  16
BRANCH  13  26
ATOM     25  C   UNL     1       0.125   1.053   0.179  0.00  0.00    +0.024 C 
ATOM     26  C   UNL     1      -0.757   1.577   1.314  0.00  0.00    +0.105 C 
ENDBRANCH  13  26
ENDBRANCH   1  13
BRANCH  10  27
ATOM     27  S   UNL     1      -4.057   4.608   5.382  0.00  0.00    +0.062 S 
ATOM     28  O   UNL     1      -5.224   5.378   5.635  0.00  0.00    -0.153 OA
ATOM     29  O   UNL     1      -4.024   3.197   5.551  0.00  0.00    -0.153 OA
BRANCH  27  30
ATOM     30  N   UNL     1      -2.862   5.229   6.346  0.00  0.00    -0.203 NA
ATOM     31  H   UNL     1      -3.076   5.556   7.233  0.00  0.00    +0.144 HD
ATOM     32  H   UNL     1      -1.948   5.265   6.022  0.00  0.00    +0.144 HD
ENDBRANCH  27  30
ENDBRANCH  10  27
TORSDOF 6
