REMARK  Name = ZINC39526452
REMARK  7 active torsions:
REMARK  status: ('A' for Active; 'I' for Inactive)
REMARK    1  A    between atoms: C_1  and  C_2
REMARK    2  A    between atoms: C_2  and  O_3
REMARK    3  A    between atoms: O_3  and  N_4
REMARK    4  A    between atoms: C_5  and  S_24
REMARK    5  A    between atoms: C_14  and  C_17
REMARK    6  A    between atoms: C_22  and  O_23
REMARK    7  A    between atoms: S_24  and  C_25
REMARK                            x       y       z     vdW  Elec       q    Type
REMARK                         _______ _______ _______ _____ _____    ______ ____
ROOT
ATOM      1  N   UNL     1       0.748  -1.922  -1.282  0.00  0.00    -0.169 NA
ATOM      2  C   UNL     1       2.144  -2.372  -1.350  0.00  0.00    +0.142 C 
ATOM      3  C   UNL     1       2.191  -3.901  -1.316  0.00  0.00    +0.032 C 
ATOM      4  C   UNL     1       1.397  -4.457  -2.502  0.00  0.00    +0.004 C 
ATOM      5  C   UNL     1      -0.040  -3.935  -2.434  0.00  0.00    +0.025 C 
ATOM      6  C   UNL     1      -0.023  -2.405  -2.435  0.00  0.00    +0.049 C 
ATOM      7  C   UNL     1      -1.458  -1.881  -2.346  0.00  0.00    +0.025 C 
ATOM      8  C   UNL     1      -1.444  -0.351  -2.350  0.00  0.00    +0.002 C 
ATOM      9  C   UNL     1      -0.798   0.149  -3.644  0.00  0.00    +0.008 C 
ATOM     10  C   UNL     1       0.636  -0.374  -3.733  0.00  0.00    +0.024 C 
ATOM     11  C   UNL     1       0.623  -1.904  -3.728  0.00  0.00    +0.033 C 
ENDROOT
BRANCH  10  12
ATOM     12  C   UNL     1       1.273   0.118  -5.007  0.00  0.00    -0.003 A 
ATOM     13  C   UNL     1       0.718  -0.209  -6.229  0.00  0.00    +0.007 A 
ATOM     14  C   UNL     1       1.302   0.242  -7.398  0.00  0.00    +0.001 A 
ATOM     15  C   UNL     1       2.442   1.022  -7.348  0.00  0.00    +0.004 A 
ATOM     16  C   UNL     1       3.001   1.353  -6.129  0.00  0.00    +0.046 A 
ATOM     17  C   UNL     1       2.414   0.906  -4.954  0.00  0.00    +0.120 A 
BRANCH  17  18
ATOM     18  O   UNL     1       2.958   1.235  -3.753  0.00  0.00    -0.506 OA
ATOM     19  H   UNL     1       3.619   0.604  -3.434  0.00  0.00    +0.292 HD
ENDBRANCH  17  18
ENDBRANCH  10  12
BRANCH   2  20
ATOM     20  S   UNL     1       3.062  -1.708   0.066  0.00  0.00    -0.143 S 
ATOM     21  C   UNL     1       4.798  -1.810  -0.450  0.00  0.00    +0.086 C 
ENDBRANCH   2  20
BRANCH   1  22
ATOM     22  O   UNL     1       0.671  -0.465  -1.174  0.00  0.00    -0.296 OA
BRANCH  22  24
ATOM     23  C   UNL     1       0.297   1.533   0.133  0.00  0.00    +0.036 C 
ATOM     24  C   UNL     1       0.350   0.004   0.138  0.00  0.00    +0.182 C 
ENDBRANCH  22  24
ENDBRANCH   1  22
TORSDOF 5
