REMARK  Name = ZINC04798354
REMARK  5 active torsions:
REMARK  status: ('A' for Active; 'I' for Inactive)
REMARK    1  A    between atoms: C_1  and  C_2
REMARK    2  A    between atoms: C_2  and  O_3
REMARK    3  A    between atoms: O_3  and  C_4
REMARK    4  A    between atoms: C_4  and  C_6
REMARK    5  A    between atoms: C_19  and  C_22
REMARK                            x       y       z     vdW  Elec       q    Type
REMARK                         _______ _______ _______ _____ _____    ______ ____
ROOT
ATOM      1  C   UNL     1       1.187   1.795   0.000  0.00  0.00    +0.059 A 
ATOM      2  C   UNL     1      -0.013   1.076   0.008  0.00  0.00    +0.017 A 
ATOM      3  C   UNL     1      -1.202   1.746   0.017  0.00  0.00    +0.024 A 
ATOM      4  C   UNL     1      -1.226   3.138   0.032  0.00  0.00    +0.031 A 
ATOM      5  C   UNL     1      -0.043   3.868   0.026  0.00  0.00    -0.019 A 
ATOM      6  C   UNL     1       1.163   3.191   0.009  0.00  0.00    +0.021 A 
ATOM      7  C   UNL     1      -0.024   5.364   0.036  0.00  0.00    +0.049 C 
ATOM      8  C   UNL     1       0.356   5.899   1.397  0.00  0.00    -0.023 C 
ATOM      9  C   UNL     1      -0.318   6.992   1.658  0.00  0.00    -0.030 C 
ATOM     10  C   UNL     1      -1.236   7.340   0.503  0.00  0.00    +0.033 C 
ATOM     11  C   UNL     1      -1.408   5.983  -0.241  0.00  0.00    +0.029 C 
ATOM     12  C   UNL     1      -2.491   5.192   0.499  0.00  0.00    +0.105 C 
ATOM     13  N   UNL     1      -2.453   3.797   0.049  0.00  0.00    -0.336 N 
ATOM     14  H   UNL     1      -3.264   3.344  -0.231  0.00  0.00    +0.147 HD
ENDROOT
BRANCH  12  15
ATOM     15  C   UNL     1      -2.232   5.250   1.983  0.00  0.00    -0.027 A 
ATOM     16  C   UNL     1      -1.290   4.415   2.553  0.00  0.00    +0.007 A 
ATOM     17  C   UNL     1      -1.048   4.471   3.913  0.00  0.00    +0.020 A 
ATOM     18  C   UNL     1      -1.758   5.356   4.705  0.00  0.00    +0.041 A 
ATOM     19  C   UNL     1      -2.705   6.188   4.134  0.00  0.00    +0.020 A 
ATOM     20  C   UNL     1      -2.942   6.134   2.774  0.00  0.00    +0.007 A 
ATOM     21 CL   UNL     1      -1.460   5.423   6.414  0.00  0.00    -0.084 Cl
ENDBRANCH  12  15
BRANCH   1  22
ATOM     22  C   UNL     1       2.475   1.079  -0.017  0.00  0.00    +0.339 C 
ATOM     23  O   UNL     1       3.517   1.704  -0.023  0.00  0.00    -0.245 OA
BRANCH  22  24
ATOM     24  O   UNL     1       2.498  -0.268  -0.025  0.00  0.00    -0.461 OA
BRANCH  24  26
ATOM     25  C   UNL     1       3.627  -2.426  -0.048  0.00  0.00    +0.048 C 
ATOM     26  C   UNL     1       3.802  -0.906  -0.041  0.00  0.00    +0.229 C 
ENDBRANCH  24  26
ENDBRANCH  22  24
ENDBRANCH   1  22
TORSDOF 4
