REMARK  Name = ZINC66775997
REMARK  5 active torsions:
REMARK  status: ('A' for Active; 'I' for Inactive)
REMARK    1  A    between atoms: C_1  and  C_2
REMARK    2  A    between atoms: C_2  and  N_3
REMARK    3  A    between atoms: C_9  and  C_15
REMARK    4  A    between atoms: N_17  and  N_18
REMARK    5  A    between atoms: N_18  and  C_19
REMARK                            x       y       z     vdW  Elec       q    Type
REMARK                         _______ _______ _______ _____ _____    ______ ____
ROOT
ATOM      1  N   UNL     1      -1.372  -0.511   0.012  0.00  0.00    -0.288 N 
ATOM      2  C   UNL     1      -1.984  -0.742   1.194  0.00  0.00    +0.262 A 
ATOM      3  O   UNL     1      -1.410  -0.533   2.245  0.00  0.00    -0.267 OA
ATOM      4  C   UNL     1      -3.370  -1.252   1.177  0.00  0.00    +0.063 A 
ATOM      5  C   UNL     1      -4.066  -1.513   2.355  0.00  0.00    +0.016 A 
ATOM      6  C   UNL     1      -5.357  -1.989   2.294  0.00  0.00    +0.014 A 
ATOM      7  C   UNL     1      -5.969  -2.211   1.057  0.00  0.00    +0.040 A 
ATOM      8  C   UNL     1      -5.279  -1.952  -0.125  0.00  0.00    +0.039 A 
ATOM      9  C   UNL     1      -3.980  -1.473  -0.070  0.00  0.00    +0.054 A 
ATOM     10  N   UNL     1      -3.258  -1.202  -1.224  0.00  0.00    -0.335 N 
ATOM     11  C   UNL     1      -2.001  -0.733  -1.153  0.00  0.00    +0.161 A 
ATOM     12  S   UNL     1      -1.163  -0.410  -2.610  0.00  0.00    -0.013 S 
ATOM     13  H   UNL     1      -3.667  -1.349  -2.091  0.00  0.00    +0.168 HD
ENDROOT
BRANCH   7  14
ATOM     14  C   UNL     1      -7.357  -2.723   1.003  0.00  0.00    +0.260 C 
ATOM     15  O   UNL     1      -7.892  -2.916  -0.070  0.00  0.00    -0.269 OA
ATOM     16  N   UNL     1      -8.028  -2.974   2.145  0.00  0.00    -0.232 N 
ATOM     17  H   UNL     1      -7.601  -2.819   3.002  0.00  0.00    +0.173 HD
BRANCH  16  18
ATOM     18  N   UNL     1      -9.341  -3.458   2.094  0.00  0.00    -0.261 N 
ATOM     19  H   UNL     1      -9.768  -3.613   1.237  0.00  0.00    +0.170 HD
BRANCH  18  20
ATOM     20  C   UNL     1     -10.037  -3.719   3.280  0.00  0.00    +0.080 A 
ATOM     21  C   UNL     1      -9.430  -3.493   4.508  0.00  0.00    +0.030 A 
ATOM     22  C   UNL     1     -10.118  -3.751   5.677  0.00  0.00    +0.040 A 
ATOM     23  C   UNL     1     -11.414  -4.236   5.627  0.00  0.00    +0.126 A 
ATOM     24  C   UNL     1     -12.024  -4.463   4.405  0.00  0.00    +0.078 A 
ATOM     25  C   UNL     1     -11.341  -4.200   3.231  0.00  0.00    +0.148 A 
ATOM     26  F   UNL     1     -11.938  -4.416   2.039  0.00  0.00    -0.203 F 
ATOM     27  F   UNL     1     -12.085  -4.488   6.772  0.00  0.00    -0.205 F 
ENDBRANCH  18  20
ENDBRANCH  16  18
ENDBRANCH   7  14
BRANCH   1  29
ATOM     28  C   UNL     1      -0.019   1.526   0.010  0.00  0.00    +0.027 C 
ATOM     29  C   UNL     1       0.002  -0.004   0.002  0.00  0.00    +0.124 C 
ENDBRANCH   1  29
TORSDOF 4
