REMARK  Name = ZINC67534848
REMARK  9 active torsions:
REMARK  status: ('A' for Active; 'I' for Inactive)
REMARK    1  A    between atoms: C_1  and  C_2
REMARK    2  A    between atoms: C_3  and  C_9
REMARK    3  A    between atoms: C_4  and  C_8
REMARK    4  A    between atoms: N_5  and  C_7
REMARK    5  A    between atoms: C_9  and  C_11
REMARK    6  A    between atoms: C_9  and  N_12
REMARK    7  A    between atoms: C_19  and  C_22
REMARK    8  A    between atoms: N_24  and  C_25
REMARK    9  A    between atoms: C_25  and  C_26
REMARK                            x       y       z     vdW  Elec       q    Type
REMARK                         _______ _______ _______ _____ _____    ______ ____
ROOT
ATOM      1  N   UNL     1      -0.618   0.843  -2.744  0.00  0.00    -0.293 N 
ATOM      2  C   UNL     1      -1.168   1.100  -3.947  0.00  0.00    +0.303 C 
ATOM      3  O   UNL     1      -0.900   0.395  -4.901  0.00  0.00    -0.253 OA
ATOM      4  N   UNL     1      -2.015   2.138  -4.093  0.00  0.00    -0.285 N 
ATOM      5  C   UNL     1      -2.257   3.069  -2.982  0.00  0.00    +0.109 C 
ATOM      6  C   UNL     1      -1.999   4.498  -3.471  0.00  0.00    +0.020 C 
ATOM      7  C   UNL     1      -2.850   4.768  -4.714  0.00  0.00    +0.016 C 
ATOM      8  C   UNL     1      -2.452   3.797  -5.828  0.00  0.00    +0.092 C 
ATOM      9  C   UNL     1      -2.710   2.364  -5.367  0.00  0.00    +0.122 C 
ATOM     10  H   UNL     1      -0.774   1.446  -2.000  0.00  0.00    +0.151 HD
ENDROOT
BRANCH   8  11
ATOM     11  C   UNL     1      -3.267   4.086  -7.062  0.00  0.00    +0.218 C 
ATOM     12  O   UNL     1      -4.086   4.981  -7.052  0.00  0.00    -0.275 OA
ATOM     13  N   UNL     1      -3.086   3.351  -8.177  0.00  0.00    -0.315 N 
ATOM     14  H   UNL     1      -2.431   2.635  -8.185  0.00  0.00    +0.149 HD
BRANCH  13  15
ATOM     15  C   UNL     1      -3.879   3.632  -9.376  0.00  0.00    +0.107 C 
BRANCH  15  16
ATOM     16  C   UNL     1      -3.480   2.661 -10.490  0.00  0.00    +0.006 C 
ATOM     17  C   UNL     1      -2.848   3.253 -11.751  0.00  0.00    +0.005 C 
ATOM     18  C   UNL     1      -4.279   2.715 -11.793  0.00  0.00    +0.005 C 
ENDBRANCH  15  16
ENDBRANCH  13  15
ENDBRANCH   8  11
BRANCH   1  19
ATOM     19  C   UNL     1       0.215  -0.348  -2.559  0.00  0.00    +0.105 C 
ATOM     20  C   UNL     1       1.671  -0.007  -2.885  0.00  0.00    +0.033 C 
BRANCH  19  23
ATOM     21  C   UNL     1      -0.235  -3.333  -1.597  0.00  0.00    +0.068 C 
ATOM     22  C   UNL     1      -0.081  -2.130  -0.703  0.00  0.00    +0.065 A 
ATOM     23  C   UNL     1       0.117  -0.812  -1.129  0.00  0.00    +0.016 A 
ATOM     24  C   UNL     1       0.206  -0.029  -0.029  0.00  0.00    +0.041 A 
ATOM     25  N   UNL     1       0.069  -0.822   1.054  0.00  0.00    -0.271 N 
ATOM     26  N   UNL     1      -0.115  -2.136   0.605  0.00  0.00    -0.176 NA
ATOM     27  C   UNL     1       0.101  -0.386   2.452  0.00  0.00    +0.172 C 
ATOM     28  C   UNL     1       0.420   1.463  -0.016  0.00  0.00    +0.065 C 
ENDBRANCH  19  23
ENDBRANCH   1  19
TORSDOF 5
