REMARK  Name = ZINC02657973
REMARK  10 active torsions:
REMARK  status: ('A' for Active; 'I' for Inactive)
REMARK    1  A    between atoms: C_1  and  C_2
REMARK    2  A    between atoms: C_2  and  C_21
REMARK    3  A    between atoms: N_5  and  C_9
REMARK    4  A    between atoms: C_9  and  C_10
REMARK    5  A    between atoms: N_12  and  C_13
REMARK    6  A    between atoms: C_16  and  C_19
REMARK    7  A    between atoms: C_24  and  C_27
REMARK    8  A    between atoms: C_27  and  C_28
REMARK    9  A    between atoms: C_27  and  C_29
REMARK   10  A    between atoms: C_27  and  C_30
REMARK                            x       y       z     vdW  Elec       q    Type
REMARK                         _______ _______ _______ _____ _____    ______ ____
ROOT
ATOM      1  C   UNL     1      -0.065   2.401   1.162  0.00  0.00    +0.047 C 
ATOM      2  C   UNL     1       0.602   1.792  -0.072  0.00  0.00    +0.135 C 
ATOM      3  C   UNL     1       0.413   0.289  -0.094  0.00  0.00    +0.251 C 
ATOM      4  O   UNL     1      -0.636  -0.317  -0.146  0.00  0.00    -0.272 OA
ATOM      5  N   UNL     1       1.654  -0.235  -0.043  0.00  0.00    -0.215 N 
ATOM      6  C   UNL     1       2.591   0.719   0.008  0.00  0.00    +0.310 C 
ATOM      7  O   UNL     1       3.784   0.492   0.060  0.00  0.00    -0.252 OA
ATOM      8  N   UNL     1       2.065   1.957  -0.005  0.00  0.00    -0.281 N 
ATOM      9  H   UNL     1       2.553   2.794   0.024  0.00  0.00    +0.152 HD
ENDROOT
BRANCH   2  10
ATOM     10  C   UNL     1       0.057   2.413  -1.333  0.00  0.00    -0.015 A 
ATOM     11  C   UNL     1      -1.003   1.820  -1.992  0.00  0.00    +0.006 A 
ATOM     12  C   UNL     1      -1.507   2.393  -3.146  0.00  0.00    +0.004 A 
ATOM     13  C   UNL     1      -0.944   3.552  -3.645  0.00  0.00    -0.042 A 
ATOM     14  C   UNL     1       0.119   4.143  -2.988  0.00  0.00    +0.004 A 
ATOM     15  C   UNL     1       0.620   3.573  -1.832  0.00  0.00    +0.006 A 
BRANCH  13  16
ATOM     16  C   UNL     1      -1.489   4.173  -4.905  0.00  0.00    -0.013 C 
ATOM     17  C   UNL     1      -0.386   4.230  -5.964  0.00  0.00    +0.015 C 
ATOM     18  C   UNL     1      -2.654   3.329  -5.427  0.00  0.00    +0.015 C 
ATOM     19  C   UNL     1      -1.981   5.590  -4.604  0.00  0.00    +0.015 C 
ENDBRANCH  13  16
ENDBRANCH   2  10
BRANCH   5  20
ATOM     20  C   UNL     1       1.941  -1.672  -0.043  0.00  0.00    +0.214 C 
BRANCH  20  21
ATOM     21  C   UNL     1       2.104  -2.151  -1.462  0.00  0.00    +0.235 C 
ATOM     22  O   UNL     1       1.991  -1.370  -2.383  0.00  0.00    -0.274 OA
ATOM     23  N   UNL     1       2.375  -3.449  -1.708  0.00  0.00    -0.284 N 
ATOM     24  H   UNL     1       2.541  -4.058  -0.972  0.00  0.00    +0.155 HD
BRANCH  23  25
ATOM     25  C   UNL     1       2.417  -3.915  -3.022  0.00  0.00    +0.034 A 
ATOM     26  C   UNL     1       1.570  -3.368  -3.980  0.00  0.00    +0.024 A 
ATOM     27  C   UNL     1       1.613  -3.822  -5.280  0.00  0.00    +0.020 A 
ATOM     28  C   UNL     1       2.501  -4.842  -5.633  0.00  0.00    +0.052 A 
ATOM     29  C   UNL     1       3.347  -5.393  -4.666  0.00  0.00    +0.020 A 
ATOM     30  C   UNL     1       3.302  -4.931  -3.370  0.00  0.00    +0.024 A 
BRANCH  28  31
ATOM     31  C   UNL     1       2.544  -5.321  -6.982  0.00  0.00    +0.099 C 
ATOM     32  N   UNL     1       2.578  -5.701  -8.052  0.00  0.00    -0.191 NA
ENDBRANCH  28  31
ENDBRANCH  23  25
ENDBRANCH  20  21
ENDBRANCH   5  20
TORSDOF 6
