REMARK  Name = ZINC67410397
REMARK  9 active torsions:
REMARK  status: ('A' for Active; 'I' for Inactive)
REMARK    1  A    between atoms: C_1  and  C_2
REMARK    2  A    between atoms: C_2  and  C_4
REMARK    3  A    between atoms: C_2  and  N_12
REMARK    4  A    between atoms: C_4  and  C_5
REMARK    5  A    between atoms: C_8  and  O_11
REMARK    6  A    between atoms: N_15  and  N_16
REMARK    7  A    between atoms: C_17  and  C_19
REMARK    8  A    between atoms: C_19  and  C_20
REMARK    9  A    between atoms: C_20  and  C_21
REMARK                            x       y       z     vdW  Elec       q    Type
REMARK                         _______ _______ _______ _____ _____    ______ ____
ROOT
ATOM      1  N   UNL     1       0.711  -0.489   1.189  0.00  0.00    -0.295 N 
ATOM      2  C   UNL     1       2.054  -0.600   1.174  0.00  0.00    +0.316 C 
ATOM      3  O   UNL     1       2.677  -0.297   0.175  0.00  0.00    -0.251 OA
ATOM      4  N   UNL     1       2.706  -1.046   2.266  0.00  0.00    -0.218 N 
ATOM      5  H   UNL     1       0.213  -0.731   1.986  0.00  0.00    +0.151 HD
ATOM      6  H   UNL     1       3.672  -1.126   2.255  0.00  0.00    +0.174 HD
ENDROOT
BRANCH   4   7
ATOM      7  N   UNL     1       1.987  -1.396   3.416  0.00  0.00    -0.233 N 
ATOM      8  C   UNL     1       2.639  -1.842   4.508  0.00  0.00    +0.229 C 
ATOM      9  O   UNL     1       3.848  -1.941   4.495  0.00  0.00    -0.274 OA
ATOM     10  H   UNL     1       1.020  -1.316   3.427  0.00  0.00    +0.173 HD
BRANCH   8  11
ATOM     11  C   UNL     1       1.866  -2.218   5.746  0.00  0.00    +0.097 C 
BRANCH  11  12
ATOM     12  C   UNL     1       2.837  -2.689   6.830  0.00  0.00    +0.013 C 
BRANCH  12  13
ATOM     13  C   UNL     1       2.052  -3.071   8.087  0.00  0.00    -0.011 C 
ATOM     14  C   UNL     1       1.376  -1.825   8.664  0.00  0.00    +0.003 C 
ATOM     15  C   UNL     1       0.591  -2.207   9.920  0.00  0.00    +0.000 C 
ATOM     16  C   UNL     1       1.547  -2.795  10.960  0.00  0.00    +0.000 C 
ATOM     17  C   UNL     1       2.224  -4.040  10.383  0.00  0.00    +0.000 C 
ATOM     18  C   UNL     1       3.009  -3.659   9.127  0.00  0.00    +0.003 C 
ENDBRANCH  12  13
ENDBRANCH  11  12
ENDBRANCH   8  11
ENDBRANCH   4   7
BRANCH   1  20
ATOM     19  C   UNL     1      -0.019   1.526   0.010  0.00  0.00    +0.028 C 
ATOM     20  C   UNL     1       0.002  -0.004   0.002  0.00  0.00    +0.076 C 
BRANCH  20  21
ATOM     21  C   UNL     1      -1.433  -0.534   0.013  0.00  0.00    +0.057 C 
BRANCH  21  22
ATOM     22  C   UNL     1      -1.416  -2.035  -0.119  0.00  0.00    -0.045 A 
ATOM     23  C   UNL     1      -1.450  -2.618  -1.373  0.00  0.00    +0.007 A 
ATOM     24  C   UNL     1      -1.434  -3.994  -1.496  0.00  0.00    +0.045 A 
ATOM     25  C   UNL     1      -1.385  -4.790  -0.362  0.00  0.00    +0.117 A 
ATOM     26  C   UNL     1      -1.350  -4.203   0.895  0.00  0.00    +0.045 A 
ATOM     27  C   UNL     1      -1.360  -2.827   1.013  0.00  0.00    +0.007 A 
BRANCH  25  28
ATOM     28  O   UNL     1      -1.370  -6.144  -0.481  0.00  0.00    -0.507 OA
ATOM     29  H   UNL     1      -0.483  -6.524  -0.545  0.00  0.00    +0.292 HD
ENDBRANCH  25  28
ENDBRANCH  21  22
ENDBRANCH  20  21
ENDBRANCH   1  20
TORSDOF 8
