REMARK  Name = ZINC63740978
REMARK  11 active torsions:
REMARK  status: ('A' for Active; 'I' for Inactive)
REMARK    1  A    between atoms: C_1  and  C_2
REMARK    2  A    between atoms: C_2  and  C_3
REMARK    3  A    between atoms: C_2  and  O_4
REMARK    4  A    between atoms: O_4  and  C_5
REMARK    5  A    between atoms: C_8  and  C_22
REMARK    6  A    between atoms: C_10  and  N_11
REMARK    7  A    between atoms: N_11  and  C_12
REMARK    8  A    between atoms: C_12  and  C_13
REMARK    9  A    between atoms: N_18  and  C_19
REMARK   10  A    between atoms: C_22  and  O_24
REMARK   11  A    between atoms: O_24  and  C_25
REMARK                            x       y       z     vdW  Elec       q    Type
REMARK                         _______ _______ _______ _____ _____    ______ ____
ROOT
ATOM      1  C   UNL     1      -1.580  -1.638  -0.686  0.00  0.00    +0.142 A 
ATOM      2  C   UNL     1      -0.528  -2.326  -1.275  0.00  0.00    +0.048 A 
ATOM      3  C   UNL     1      -0.767  -3.482  -1.984  0.00  0.00    +0.018 A 
ATOM      4  C   UNL     1      -2.072  -3.967  -2.113  0.00  0.00    +0.061 A 
ATOM      5  C   UNL     1      -3.132  -3.276  -1.520  0.00  0.00    +0.041 A 
ATOM      6  C   UNL     1      -2.885  -2.119  -0.805  0.00  0.00    +0.071 A 
ENDROOT
BRANCH   6   7
ATOM      7  N   UNL     1      -3.944  -1.427  -0.204  0.00  0.00    -0.333 N 
ATOM      8  H   UNL     1      -3.770  -0.613   0.294  0.00  0.00    +0.147 HD
BRANCH   7   9
ATOM      9  C   UNL     1      -5.313  -1.931  -0.330  0.00  0.00    +0.198 C 
BRANCH   9  10
ATOM     10  C   UNL     1      -6.256  -1.011   0.401  0.00  0.00    +0.237 C 
ATOM     11  O   UNL     1      -5.827  -0.030   0.970  0.00  0.00    -0.274 OA
ATOM     12  N   UNL     1      -7.577  -1.278   0.422  0.00  0.00    -0.239 N 
ATOM     13  C   UNL     1      -8.421  -0.454   1.075  0.00  0.00    +0.306 C 
ATOM     14  O   UNL     1      -7.990   0.529   1.645  0.00  0.00    -0.252 OA
ATOM     15  N   UNL     1      -9.742  -0.721   1.096  0.00  0.00    -0.296 N 
ATOM     16  H   UNL     1      -7.921  -2.062  -0.033  0.00  0.00    +0.159 HD
ATOM     17  H   UNL     1     -10.085  -1.506   0.641  0.00  0.00    +0.151 HD
BRANCH  15  18
ATOM     18  C   UNL     1     -10.659   0.174   1.806  0.00  0.00    +0.075 C 
ATOM     19  C   UNL     1     -11.744  -0.469   2.673  0.00  0.00    +0.024 C 
ATOM     20  C   UNL     1     -12.118   0.199   1.348  0.00  0.00    +0.024 C 
ENDBRANCH  15  18
ENDBRANCH   9  10
ENDBRANCH   7   9
ENDBRANCH   6   7
BRANCH   4  21
ATOM     21  C   UNL     1      -2.329  -5.205  -2.873  0.00  0.00    +0.339 C 
ATOM     22  O   UNL     1      -3.464  -5.625  -2.984  0.00  0.00    -0.245 OA
BRANCH  21  23
ATOM     23  O   UNL     1      -1.306  -5.869  -3.444  0.00  0.00    -0.464 OA
ATOM     24  C   UNL     1      -1.627  -7.060  -4.165  0.00  0.00    +0.280 C 
ENDBRANCH  21  23
ENDBRANCH   4  21
BRANCH   1  25
ATOM     25  O   UNL     1      -1.339  -0.499   0.012  0.00  0.00    -0.488 OA
BRANCH  25  27
ATOM     26  C   UNL     1      -0.011   1.505   0.265  0.00  0.00    +0.051 C 
ATOM     27  C   UNL     1       0.001  -0.002  -0.000  0.00  0.00    +0.167 C 
ATOM     28  C   UNL     1       0.816  -0.705   1.088  0.00  0.00    +0.051 C 
ENDBRANCH  25  27
ENDBRANCH   1  25
TORSDOF 8
