REMARK  Name = ZINC16033235
REMARK  8 active torsions:
REMARK  status: ('A' for Active; 'I' for Inactive)
REMARK    1  A    between atoms: C_1  and  C_2
REMARK    2  A    between atoms: C_12  and  C_18
REMARK    3  A    between atoms: C_15  and  C_17
REMARK    4  A    between atoms: N_20  and  C_21
REMARK    5  A    between atoms: C_23  and  O_29
REMARK    6  A    between atoms: C_26  and  O_27
REMARK    7  A    between atoms: O_27  and  C_28
REMARK    8  A    between atoms: O_29  and  C_30
REMARK                            x       y       z     vdW  Elec       q    Type
REMARK                         _______ _______ _______ _____ _____    ______ ____
ROOT
ATOM      1  C   UNL     1      -2.267   1.002   0.637  0.00  0.00    +0.046 C 
ATOM      2  C   UNL     1      -1.008   1.819   0.501  0.00  0.00    -0.028 A 
ATOM      3  C   UNL     1       0.221   1.192   0.499  0.00  0.00    +0.025 A 
ATOM      4  C   UNL     1       1.383   1.932   0.369  0.00  0.00    +0.042 A 
ATOM      5  C   UNL     1       1.311   3.310   0.246  0.00  0.00    +0.024 A 
ATOM      6  C   UNL     1       0.086   3.939   0.253  0.00  0.00    -0.026 A 
ATOM      7  C   UNL     1      -1.088   3.204   0.383  0.00  0.00    +0.039 A 
ATOM      8  N   UNL     1      -2.195   4.055   0.363  0.00  0.00    -0.286 N 
ATOM      9  C   UNL     1      -1.841   5.346   0.225  0.00  0.00    +0.211 C 
ATOM     10  O   UNL     1      -2.588   6.300   0.176  0.00  0.00    -0.277 OA
ATOM     11  C   UNL     1      -0.336   5.379   0.144  0.00  0.00    +0.049 C 
ATOM     12  C   UNL     1       0.123   5.984  -1.192  0.00  0.00    +0.076 C 
ATOM     13  C   UNL     1       0.482   7.444  -0.804  0.00  0.00    -0.004 C 
ATOM     14  C   UNL     1       1.059   7.259   0.622  0.00  0.00    -0.072 C 
ATOM     15  C   UNL     1       0.922   8.554   1.425  0.00  0.00    -0.014 C 
ATOM     16 CL   UNL     1       2.926   1.137   0.359  0.00  0.00    -0.084 Cl
ATOM     17  H   UNL     1      -3.113   3.752   0.439  0.00  0.00    +0.155 HD
ATOM     18  N   UNL     1       0.238   6.189   1.219  0.00  0.00    +0.393 N 
ATOM     19  H   UNL     1       0.824   5.598   1.820  0.00  0.00    -0.083 HD
ATOM     20  H   UNL     1      -0.516   6.604   1.778  0.00  0.00    -0.083 HD
ENDROOT
BRANCH  12  21
ATOM     21  C   UNL     1       1.335   5.259  -1.718  0.00  0.00    +0.220 C 
ATOM     22  O   UNL     1       2.444   5.587  -1.354  0.00  0.00    -0.275 OA
ATOM     23  N   UNL     1       1.185   4.244  -2.593  0.00  0.00    -0.282 N 
ATOM     24  H   UNL     1       0.304   4.022  -2.932  0.00  0.00    +0.155 HD
BRANCH  23  25
ATOM     25  C   UNL     1       2.303   3.511  -3.013  0.00  0.00    +0.079 A 
ATOM     26  C   UNL     1       3.558   4.104  -3.026  0.00  0.00    +0.072 A 
ATOM     27  C   UNL     1       4.663   3.374  -3.436  0.00  0.00    +0.122 A 
ATOM     28  C   UNL     1       4.513   2.056  -3.844  0.00  0.00    +0.049 A 
ATOM     29  C   UNL     1       3.263   1.466  -3.837  0.00  0.00    +0.051 A 
ATOM     30  C   UNL     1       2.156   2.188  -3.423  0.00  0.00    +0.141 A 
BRANCH  30  31
ATOM     31  O   UNL     1       0.926   1.607  -3.417  0.00  0.00    -0.493 OA
ATOM     32  C   UNL     1       0.850   0.247  -3.850  0.00  0.00    +0.277 C 
ENDBRANCH  30  31
BRANCH  27  33
ATOM     33  O   UNL     1       5.894   3.952  -3.444  0.00  0.00    -0.495 OA
ATOM     34  C   UNL     1       6.987   3.143  -3.884  0.00  0.00    +0.277 C 
ENDBRANCH  27  33
ENDBRANCH  23  25
ENDBRANCH  12  21
TORSDOF 4
