REMARK  Name = ZINC44321456
REMARK  10 active torsions:
REMARK  status: ('A' for Active; 'I' for Inactive)
REMARK    1  A    between atoms: C_1  and  O_2
REMARK    2  A    between atoms: O_2  and  C_3
REMARK    3  A    between atoms: C_5  and  C_11
REMARK    4  A    between atoms: C_8  and  O_9
REMARK    5  A    between atoms: C_11  and  CA_12
REMARK    6  A    between atoms: CA_12  and  C_14
REMARK    7  A    between atoms: CA_12  and  N_17
REMARK    8  A    between atoms: C_18  and  O_20
REMARK    9  A    between atoms: O_20  and  C_21
REMARK   10  A    between atoms: C_21  and  C_22
REMARK                            x       y       z     vdW  Elec       q    Type
REMARK                         _______ _______ _______ _____ _____    ______ ____
ROOT
ATOM      1  N   UNL     1       3.928   1.502  -2.683  0.00  0.00    -0.267 N 
ATOM      2  C   UNL     1       5.030   1.478  -1.906  0.00  0.00    +0.401 C 
ATOM      3  O   UNL     1       5.969   0.769  -2.206  0.00  0.00    -0.226 OA
ATOM      4  H   UNL     1       3.178   2.069  -2.443  0.00  0.00    +0.153 HD
ENDROOT
BRANCH   1   5
ATOM      5  CA  UNL     1       3.864   0.673  -3.888  0.00  0.00    +0.193 C 
BRANCH   5   6
ATOM      6  C   UNL     1       4.513   1.403  -5.036  0.00  0.00    +0.376 C 
ATOM      7  O   UNL     1       4.821   2.577  -4.915  0.00  0.00    -0.244 OA
ATOM      8  OXT UNL     1       4.730   0.821  -6.084  0.00  0.00    -0.244 OA
ENDBRANCH   5   6
BRANCH   5   9
ATOM      9  C   UNL     1       2.402   0.382  -4.230  0.00  0.00    +0.069 C 
BRANCH   9  12
ATOM     10  C   UNL     1       0.606  -0.608  -1.056  0.00  0.00    +0.164 A 
ATOM     11  C   UNL     1       1.173   0.160  -2.062  0.00  0.00    +0.053 A 
ATOM     12  C   UNL     1       1.787  -0.454  -3.138  0.00  0.00    -0.039 A 
ATOM     13  C   UNL     1       1.838  -1.834  -3.214  0.00  0.00    +0.046 A 
ATOM     14  C   UNL     1       1.274  -2.606  -2.214  0.00  0.00    +0.169 A 
ATOM     15  C   UNL     1       0.661  -1.995  -1.129  0.00  0.00    +0.194 A 
ATOM     16  F   UNL     1       1.324  -3.954  -2.291  0.00  0.00    -0.202 F 
BRANCH  10  18
ATOM     17  C   UNL     1      -0.017   1.425   0.010  0.00  0.00    +0.277 C 
ATOM     18  O   UNL     1       0.002  -0.004   0.002  0.00  0.00    -0.491 OA
ENDBRANCH  10  18
BRANCH  15  19
ATOM     19  O   UNL     1       0.112  -2.752  -0.141  0.00  0.00    -0.501 OA
ATOM     20  H   UNL     1      -0.817  -2.979  -0.290  0.00  0.00    +0.292 HD
ENDBRANCH  15  19
ENDBRANCH   9  12
ENDBRANCH   5   9
ENDBRANCH   1   5
BRANCH   2  21
ATOM     21  O   UNL     1       5.088   2.241  -0.798  0.00  0.00    -0.449 OA
BRANCH  21  22
ATOM     22  C   UNL     1       6.286   2.166  -0.022  0.00  0.00    +0.246 C 
BRANCH  22  23
ATOM     23  C   UNL     1       6.168   3.094   1.189  0.00  0.00    +0.088 C 
ATOM     24  C   UNL     1       6.168   4.535   0.740  0.00  0.00    -0.029 A 
ATOM     25  C   UNL     1       5.320   5.250  -0.078  0.00  0.00    +0.005 A 
ATOM     26  C   UNL     1       5.562   6.590  -0.326  0.00  0.00    +0.000 A 
ATOM     27  C   UNL     1       6.654   7.215   0.247  0.00  0.00    +0.001 A 
ATOM     28  C   UNL     1       7.509   6.507   1.068  0.00  0.00    +0.009 A 
ATOM     29  C   UNL     1       7.271   5.155   1.322  0.00  0.00    -0.014 A 
ATOM     30  C   UNL     1       8.012   4.171   2.149  0.00  0.00    -0.014 A 
ATOM     31  C   UNL     1       7.373   2.936   2.084  0.00  0.00    -0.029 A 
ATOM     32  C   UNL     1       7.877   1.855   2.775  0.00  0.00    +0.005 A 
ATOM     33  C   UNL     1       9.024   1.993   3.537  0.00  0.00    +0.000 A 
ATOM     34  C   UNL     1       9.666   3.216   3.608  0.00  0.00    +0.001 A 
ATOM     35  C   UNL     1       9.168   4.303   2.920  0.00  0.00    +0.009 A 
ENDBRANCH  22  23
ENDBRANCH  21  22
ENDBRANCH   2  21
TORSDOF 9
