REMARK  Name = ZINC65087223
REMARK  8 active torsions:
REMARK  status: ('A' for Active; 'I' for Inactive)
REMARK    1  A    between atoms: C_1  and  C_2
REMARK    2  A    between atoms: C_4  and  C_25
REMARK    3  A    between atoms: C_9  and  C_10
REMARK    4  A    between atoms: C_10  and  N_11
REMARK    5  A    between atoms: C_12  and  C_14
REMARK    6  A    between atoms: C_14  and  N_15
REMARK    7  A    between atoms: N_18  and  C_19
REMARK    8  A    between atoms: C_19  and  C_20
REMARK                            x       y       z     vdW  Elec       q    Type
REMARK                         _______ _______ _______ _____ _____    ______ ____
ROOT
ATOM      1  N   UNL     1      -1.348   0.142   2.992  0.00  0.00    -0.310 N 
ATOM      2  C   UNL     1      -1.592   0.762   4.163  0.00  0.00    +0.231 C 
ATOM      3  O   UNL     1      -0.674   1.227   4.806  0.00  0.00    -0.274 OA
ATOM      4  H   UNL     1      -2.083  -0.230   2.478  0.00  0.00    +0.149 HD
ENDROOT
BRANCH   1   5
ATOM      5  C   UNL     1       0.025   0.030   2.493  0.00  0.00    +0.145 C 
BRANCH   5  14
ATOM      6  C   UNL     1      -0.018   1.503   0.010  0.00  0.00    +0.044 C 
ATOM      7  C   UNL     1       0.002  -0.004   0.002  0.00  0.00    -0.039 A 
ATOM      8  C   UNL     1       0.006  -0.706  -1.212  0.00  0.00    +0.024 A 
ATOM      9  C   UNL     1       0.025  -2.059  -1.209  0.00  0.00    +0.016 A 
ATOM     10  N   UNL     1       0.040  -2.750  -0.040  0.00  0.00    -0.326 N 
ATOM     11  H   UNL     1       0.054  -3.720  -0.057  0.00  0.00    +0.169 HD
ATOM     12  C   UNL     1       0.037  -2.105   1.141  0.00  0.00    +0.254 A 
ATOM     13  O   UNL     1       0.051  -2.740   2.183  0.00  0.00    -0.268 OA
ATOM     14  C   UNL     1       0.023  -0.700   1.175  0.00  0.00    +0.037 A 
ATOM     15  C   UNL     1       0.029  -2.807  -2.517  0.00  0.00    +0.063 C 
ENDBRANCH   5  14
ENDBRANCH   1   5
BRANCH   2  16
ATOM     16  C   UNL     1      -3.004   0.877   4.676  0.00  0.00    +0.201 C 
BRANCH  16  17
ATOM     17  N   UNL     1      -3.002   1.587   5.958  0.00  0.00    -0.291 N 
ATOM     18  C   UNL     1      -4.162   1.808   6.607  0.00  0.00    +0.300 C 
ATOM     19  O   UNL     1      -5.210   1.419   6.130  0.00  0.00    -0.253 OA
ATOM     20  N   UNL     1      -4.160   2.461   7.786  0.00  0.00    -0.299 N 
ATOM     21  H   UNL     1      -2.166   1.897   6.339  0.00  0.00    +0.151 HD
ATOM     22  H   UNL     1      -3.324   2.772   8.168  0.00  0.00    +0.150 HD
BRANCH  20  23
ATOM     23  C   UNL     1      -5.421   2.701   8.492  0.00  0.00    +0.109 C 
BRANCH  23  24
ATOM     24  C   UNL     1      -5.141   3.455   9.794  0.00  0.00    +0.006 C 
ATOM     25  C   UNL     1      -4.370   2.548  10.775  0.00  0.00    +0.005 C 
ATOM     26  C   UNL     1      -4.950   2.912  12.165  0.00  0.00    +0.000 C 
ATOM     27  C   UNL     1      -6.454   3.128  11.861  0.00  0.00    +0.000 C 
ATOM     28  C   UNL     1      -6.466   3.824  10.485  0.00  0.00    +0.005 C 
ENDBRANCH  23  24
ENDBRANCH  20  23
ENDBRANCH  16  17
ENDBRANCH   2  16
TORSDOF 6
