REMARK  Name = ZINC37084771
REMARK  7 active torsions:
REMARK  status: ('A' for Active; 'I' for Inactive)
REMARK    1  A    between atoms: C_1  and  C_2
REMARK    2  A    between atoms: C_5  and  N_12
REMARK    3  A    between atoms: N_9  and  C_11
REMARK    4  A    between atoms: N_12  and  C_13
REMARK    5  A    between atoms: C_16  and  C_23
REMARK    6  A    between atoms: C_19  and  C_21
REMARK    7  A    between atoms: C_19  and  C_22
REMARK                            x       y       z     vdW  Elec       q    Type
REMARK                         _______ _______ _______ _____ _____    ______ ____
ROOT
ATOM      1  C   UNL     1      -0.018   1.503   0.010  0.00  0.00    +0.068 C 
ATOM      2  C   UNL     1       0.002  -0.004   0.002  0.00  0.00    +0.069 A 
ATOM      3  C   UNL     1       0.008  -0.858  -1.180  0.00  0.00    +0.043 A 
ATOM      4  C   UNL     1      -0.002  -0.615  -2.559  0.00  0.00    +0.038 A 
ATOM      5  C   UNL     1       0.009  -1.707  -3.413  0.00  0.00    +0.046 A 
ATOM      6  C   UNL     1       0.028  -2.994  -2.876  0.00  0.00    +0.136 A 
ATOM      7  N   UNL     1       0.037  -3.195  -1.577  0.00  0.00    -0.234 NA
ATOM      8  C   UNL     1       0.029  -2.187  -0.714  0.00  0.00    +0.158 A 
ATOM      9  N   UNL     1       0.034  -2.120   0.655  0.00  0.00    -0.249 N 
ATOM     10  N   UNL     1       0.023  -0.778   1.049  0.00  0.00    -0.174 NA
ATOM     11  C   UNL     1       0.053  -3.270   1.562  0.00  0.00    +0.174 C 
ENDROOT
BRANCH   5  12
ATOM     12  N   UNL     1      -0.002  -1.520  -4.800  0.00  0.00    -0.340 N 
ATOM     13  H   UNL     1      -0.016  -0.623  -5.168  0.00  0.00    +0.146 HD
BRANCH  12  14
ATOM     14  C   UNL     1       0.009  -2.679  -5.696  0.00  0.00    +0.071 C 
ATOM     15  C   UNL     1      -1.422  -3.179  -5.900  0.00  0.00    +0.025 C 
ATOM     16  C   UNL     1      -1.410  -4.390  -6.835  0.00  0.00    -0.012 C 
ATOM     17  C   UNL     1      -0.813  -3.986  -8.185  0.00  0.00    +0.009 C 
ATOM     18  C   UNL     1       0.618  -3.486  -7.980  0.00  0.00    -0.033 C 
ATOM     19  C   UNL     1       0.607  -2.276  -7.045  0.00  0.00    +0.028 C 
ATOM     20  C   UNL     1       1.215  -3.083  -9.330  0.00  0.00    +0.011 C 
ATOM     21  C   UNL     1       1.464  -4.601  -7.361  0.00  0.00    +0.011 C 
ATOM     22  C   UNL     1      -2.842  -4.890  -7.040  0.00  0.00    +0.007 C 
ENDBRANCH  12  14
ENDBRANCH   5  12
TORSDOF 2
