REMARK  Name = ZINC09112527
REMARK  12 active torsions:
REMARK  status: ('A' for Active; 'I' for Inactive)
REMARK    1  A    between atoms: C_1  and  C_2
REMARK    2  A    between atoms: C_5  and  N_32
REMARK    3  A    between atoms: C_7  and  S_8
REMARK    4  A    between atoms: S_8  and  N_11
REMARK    5  A    between atoms: N_11  and  C_12
REMARK    6  A    between atoms: C_17  and  C_18
REMARK    7  A    between atoms: C_18  and  O_20
REMARK    8  A    between atoms: O_20  and  C_21
REMARK    9  A    between atoms: C_21  and  C_23
REMARK   10  A    between atoms: C_21  and  C_26
REMARK   11  A    between atoms: C_23  and  C_24
REMARK   12  A    between atoms: C_23  and  C_25
REMARK                            x       y       z     vdW  Elec       q    Type
REMARK                         _______ _______ _______ _____ _____    ______ ____
ROOT
ATOM      1  C   UNL     1      -1.888   1.916   1.482  0.00  0.00    +0.062 A 
ATOM      2  C   UNL     1      -1.782   0.627   0.974  0.00  0.00    +0.025 A 
ATOM      3  C   UNL     1      -2.731  -0.322   1.293  0.00  0.00    +0.002 A 
ATOM      4  C   UNL     1      -3.795   0.000   2.120  0.00  0.00    +0.001 A 
ATOM      5  C   UNL     1      -3.917   1.272   2.634  0.00  0.00    +0.017 A 
ATOM      6  C   UNL     1      -2.961   2.244   2.325  0.00  0.00    +0.081 A 
ENDROOT
BRANCH   1   7
ATOM      7  N   UNL     1      -0.934   2.873   1.163  0.00  0.00    -0.215 N 
ATOM      8  H   UNL     1      -0.671   3.535   1.821  0.00  0.00    +0.174 HD
BRANCH   7   9
ATOM      9  S   UNL     1      -0.245   2.885  -0.343  0.00  0.00    +0.073 S 
ATOM     10  O   UNL     1       0.284   1.584  -0.558  0.00  0.00    -0.150 OA
ATOM     11  O   UNL     1       0.558   4.055  -0.413  0.00  0.00    -0.150 OA
BRANCH   9  18
ATOM     12  C   UNL     1      -1.919   5.393  -0.582  0.00  0.00    +0.046 C 
ATOM     13  C   UNL     1      -2.258   4.283  -1.544  0.00  0.00    -0.024 A 
ATOM     14  C   UNL     1      -3.280   4.451  -2.460  0.00  0.00    +0.007 A 
ATOM     15  C   UNL     1      -3.591   3.433  -3.342  0.00  0.00    +0.033 A 
ATOM     16  C   UNL     1      -2.880   2.248  -3.309  0.00  0.00    +0.128 A 
ATOM     17  C   UNL     1      -1.855   2.082  -2.397  0.00  0.00    +0.061 A 
ATOM     18  C   UNL     1      -1.548   3.098  -1.510  0.00  0.00    +0.114 A 
BRANCH  16  19
ATOM     19  N   UNL     1      -3.213   1.158  -4.254  0.00  0.00    +0.056 N 
ATOM     20  O   UNL     1      -4.113   1.306  -5.061  0.00  0.00    -0.126 OA
ATOM     21  O   UNL     1      -2.586   0.114  -4.224  0.00  0.00    -0.126 OA
ENDBRANCH  16  19
ENDBRANCH   9  18
ENDBRANCH   7   9
ENDBRANCH   1   7
BRANCH   6  22
ATOM     22  C   UNL     1      -3.082   3.604   2.877  0.00  0.00    +0.342 C 
ATOM     23  O   UNL     1      -2.251   4.447   2.602  0.00  0.00    -0.245 OA
BRANCH  22  24
ATOM     24  O   UNL     1      -4.115   3.914   3.686  0.00  0.00    -0.448 OA
BRANCH  24  25
ATOM     25  C   UNL     1      -4.170   5.274   4.192  0.00  0.00    +0.265 C 
BRANCH  25  26
ATOM     26  C   UNL     1      -5.607   5.670   4.413  0.00  0.00    +0.261 C 
ATOM     27  O   UNL     1      -6.487   4.843   4.303  0.00  0.00    -0.271 OA
ATOM     28  N   UNL     1      -5.915   6.942   4.733  0.00  0.00    -0.237 N 
ATOM     29  C   UNL     1      -7.186   7.274   5.030  0.00  0.00    +0.303 C 
ATOM     30  O   UNL     1      -8.056   6.426   5.011  0.00  0.00    -0.253 OA
ATOM     31  N   UNL     1      -7.494   8.547   5.350  0.00  0.00    -0.313 N 
ATOM     32  H   UNL     1      -5.220   7.620   4.748  0.00  0.00    +0.159 HD
ATOM     33  H   UNL     1      -6.799   9.224   5.366  0.00  0.00    +0.146 HD
ATOM     34  H   UNL     1      -8.409   8.786   5.565  0.00  0.00    +0.146 HD
ENDBRANCH  25  26
BRANCH  25  35
ATOM     35  C   UNL     1      -3.409   5.356   5.517  0.00  0.00    +0.033 C 
ATOM     36  C   UNL     1      -4.067   4.428   6.541  0.00  0.00    +0.011 C 
ATOM     37  C   UNL     1      -1.957   4.927   5.299  0.00  0.00    +0.011 C 
ENDBRANCH  25  35
ENDBRANCH  24  25
ENDBRANCH  22  24
ENDBRANCH   6  22
TORSDOF 9
