REMARK  Name = ZINC57931510
REMARK  5 active torsions:
REMARK  status: ('A' for Active; 'I' for Inactive)
REMARK    1  A    between atoms: C_1  and  C_2
REMARK    2  A    between atoms: C_7  and  C_8
REMARK    3  A    between atoms: N_9  and  C_14
REMARK    4  A    between atoms: C_14  and  C_15
REMARK    5  A    between atoms: N_17  and  C_18
REMARK                            x       y       z     vdW  Elec       q    Type
REMARK                         _______ _______ _______ _____ _____    ______ ____
ROOT
ATOM      1  C   UNL     1      -0.018   1.503   0.010  0.00  0.00    +0.044 C 
ATOM      2  C   UNL     1       0.002  -0.004   0.002  0.00  0.00    -0.046 A 
ATOM      3  C   UNL     1       0.006  -0.688  -1.202  0.00  0.00    +0.028 A 
ATOM      4  C   UNL     1       0.023  -2.070  -1.205  0.00  0.00    +0.050 A 
ATOM      5  C   UNL     1       0.035  -2.776   0.001  0.00  0.00    +0.058 A 
ATOM      6  C   UNL     1       0.034  -2.083   1.200  0.00  0.00    +0.029 A 
ATOM      7  C   UNL     1       0.023  -0.700   1.196  0.00  0.00    -0.046 A 
ATOM      8  C   UNL     1       0.028   0.053   2.502  0.00  0.00    +0.044 C 
ATOM      9  N   UNL     1       0.041  -4.176  -0.018  0.00  0.00    -0.260 N 
ATOM     10  C   UNL     1       0.323  -4.846  -1.152  0.00  0.00    +0.237 C 
ATOM     11  O   UNL     1       0.280  -6.058  -1.157  0.00  0.00    -0.274 OA
ATOM     12  C   UNL     1       0.690  -4.108  -2.414  0.00  0.00    +0.198 C 
ATOM     13  N   UNL     1       0.034  -2.792  -2.407  0.00  0.00    -0.334 N 
ATOM     14  H   UNL     1      -0.378  -2.433  -3.209  0.00  0.00    +0.147 HD
ENDROOT
BRANCH   9  15
ATOM     15  C   UNL     1      -0.261  -4.918   1.208  0.00  0.00    +0.209 C 
BRANCH  15  16
ATOM     16  C   UNL     1      -1.744  -5.175   1.287  0.00  0.00    +0.231 C 
ATOM     17  O   UNL     1      -2.476  -4.776   0.406  0.00  0.00    -0.274 OA
ATOM     18  N   UNL     1      -2.256  -5.847   2.337  0.00  0.00    -0.311 N 
ATOM     19  H   UNL     1      -1.671  -6.166   3.041  0.00  0.00    +0.149 HD
BRANCH  18  20
ATOM     20  C   UNL     1      -3.698  -6.096   2.414  0.00  0.00    +0.073 C 
ATOM     21  C   UNL     1      -4.392  -4.884   3.039  0.00  0.00    +0.022 C 
ATOM     22  C   UNL     1      -5.898  -5.144   3.119  0.00  0.00    +0.002 C 
ATOM     23  C   UNL     1      -6.156  -6.381   3.982  0.00  0.00    +0.000 C 
ATOM     24  C   UNL     1      -5.462  -7.593   3.358  0.00  0.00    +0.002 C 
ATOM     25  C   UNL     1      -3.956  -7.333   3.277  0.00  0.00    +0.022 C 
ENDBRANCH  18  20
ENDBRANCH  15  16
ENDBRANCH   9  15
TORSDOF 3
