REMARK  Name = ZINC02152079
REMARK  5 active torsions:
REMARK  status: ('A' for Active; 'I' for Inactive)
REMARK    1  A    between atoms: C_1  and  C_2
REMARK    2  A    between atoms: C_5  and  S_8
REMARK    3  A    between atoms: S_8  and  O_11
REMARK    4  A    between atoms: O_11  and  C_12
REMARK    5  A    between atoms: C_15  and  C_18
REMARK                            x       y       z     vdW  Elec       q    Type
REMARK                         _______ _______ _______ _____ _____    ______ ____
ROOT
ATOM      1  C   UNL     1      -0.050   1.314   0.185  0.00  0.00    +0.157 A 
ATOM      2  C   UNL     1       1.126   2.053   0.133  0.00  0.00    +0.049 A 
ATOM      3  C   UNL     1       2.342   1.412   0.061  0.00  0.00    +0.011 A 
ATOM      4  C   UNL     1       2.394   0.013   0.040  0.00  0.00    -0.023 A 
ATOM      5  C   UNL     1       1.206  -0.727   0.093  0.00  0.00    +0.011 A 
ATOM      6  C   UNL     1      -0.005  -0.076   0.166  0.00  0.00    +0.049 A 
ENDROOT
BRANCH   4   7
ATOM      7  C   UNL     1       3.688  -0.676  -0.036  0.00  0.00    +0.036 C 
ATOM      8  C   UNL     1       3.758  -1.934  -0.540  0.00  0.00    +0.098 C 
ATOM      9  C   UNL     1       4.926  -2.829  -0.550  0.00  0.00    +0.266 C 
ATOM     10  O   UNL     1       6.033  -2.590  -0.105  0.00  0.00    -0.268 OA
ATOM     11  N   UNL     1       4.521  -3.967  -1.148  0.00  0.00    -0.235 N 
ATOM     12  C   UNL     1       3.235  -3.859  -1.512  0.00  0.00    +0.311 C 
ATOM     13  O   UNL     1       2.603  -4.731  -2.077  0.00  0.00    -0.252 OA
ATOM     14  N   UNL     1       2.736  -2.658  -1.168  0.00  0.00    -0.265 N 
ATOM     15  H   UNL     1       5.079  -4.747  -1.297  0.00  0.00    +0.159 HD
ATOM     16  H   UNL     1       1.830  -2.348  -1.327  0.00  0.00    +0.157 HD
ENDBRANCH   4   7
BRANCH   1  17
ATOM     17  O   UNL     1      -1.247   1.951   0.251  0.00  0.00    -0.342 OA
BRANCH  17  18
ATOM     18  S   UNL     1      -1.726   2.224   1.669  0.00  0.00    +0.151 S 
ATOM     19  O   UNL     1      -3.062   2.695   1.563  0.00  0.00    -0.131 OA
ATOM     20  O   UNL     1      -1.380   1.082   2.442  0.00  0.00    -0.131 OA
BRANCH  18  25
ATOM     21  C   UNL     1       1.556   6.812   3.810  0.00  0.00    +0.044 C 
ATOM     22  C   UNL     1       0.736   5.666   3.276  0.00  0.00    -0.050 A 
ATOM     23  C   UNL     1      -0.448   5.915   2.608  0.00  0.00    +0.005 A 
ATOM     24  C   UNL     1      -1.200   4.864   2.118  0.00  0.00    +0.031 A 
ATOM     25  C   UNL     1      -0.768   3.563   2.295  0.00  0.00    +0.128 A 
ATOM     26  C   UNL     1       0.414   3.313   2.967  0.00  0.00    +0.031 A 
ATOM     27  C   UNL     1       1.168   4.365   3.454  0.00  0.00    +0.005 A 
ENDBRANCH  18  25
ENDBRANCH  17  18
ENDBRANCH   1  17
TORSDOF 4
