REMARK  Name = ZINC65356161
REMARK  8 active torsions:
REMARK  status: ('A' for Active; 'I' for Inactive)
REMARK    1  A    between atoms: C_1  and  C_2
REMARK    2  A    between atoms: C_2  and  C_3
REMARK    3  A    between atoms: C_2  and  C_4
REMARK    4  A    between atoms: C_2  and  O_5
REMARK    5  A    between atoms: O_5  and  C_6
REMARK    6  A    between atoms: N_8  and  C_9
REMARK    7  A    between atoms: C_12  and  C_15
REMARK    8  A    between atoms: CA_20  and  C_21
REMARK                            x       y       z     vdW  Elec       q    Type
REMARK                         _______ _______ _______ _____ _____    ______ ____
ROOT
ATOM      1  C   UNL     1       4.180  -0.820  -3.278  0.00  0.00    +0.036 A 
ATOM      2  C   UNL     1       4.725  -0.159  -2.183  0.00  0.00    +0.024 A 
ATOM      3  C   UNL     1       5.950   0.464  -2.292  0.00  0.00    +0.010 A 
ATOM      4  C   UNL     1       6.643   0.430  -3.503  0.00  0.00    -0.016 A 
ATOM      5  C   UNL     1       6.094  -0.235  -4.600  0.00  0.00    +0.010 A 
ATOM      6  C   UNL     1       4.871  -0.860  -4.484  0.00  0.00    +0.024 A 
ENDROOT
BRANCH   4   7
ATOM      7  C   UNL     1       7.959   1.098  -3.623  0.00  0.00    +0.013 A 
ATOM      8  C   UNL     1       9.011   0.757  -2.762  0.00  0.00    +0.014 A 
ATOM      9  C   UNL     1      10.210   1.400  -2.909  0.00  0.00    +0.042 A 
ATOM     10  C   UNL     1      10.357   2.370  -3.903  0.00  0.00    +0.094 A 
ATOM     11  N   UNL     1       9.356   2.679  -4.705  0.00  0.00    -0.338 N 
ATOM     12  CA  UNL     1       8.173   2.078  -4.604  0.00  0.00    +0.138 A 
ATOM     13  N   UNL     1      11.576   3.021  -4.049  0.00  0.00    -0.345 N 
ATOM     14  H   UNL     1      12.317   2.800  -3.464  0.00  0.00    +0.144 HD
ATOM     15  H   UNL     1      11.685   3.696  -4.737  0.00  0.00    +0.144 HD
ATOM     16  H   UNL     1       9.486   3.357  -5.386  0.00  0.00    +0.167 HD
BRANCH  12  17
ATOM     17  C   UNL     1       7.081   2.447  -5.525  0.00  0.00    +0.403 C 
ATOM     18  O   UNL     1       7.298   3.208  -6.457  0.00  0.00    -0.239 OA
ATOM     19  OXT UNL     1       5.958   1.992  -5.356  0.00  0.00    -0.239 OA
ENDBRANCH  12  17
ENDBRANCH   4   7
BRANCH   1  22
ATOM     20  C   UNL     1       1.968  -0.898  -2.409  0.00  0.00    +0.405 C 
ATOM     21  O   UNL     1       2.190   0.121  -1.787  0.00  0.00    -0.226 OA
ATOM     22  N   UNL     1       2.938  -1.451  -3.164  0.00  0.00    -0.251 N 
ATOM     23  H   UNL     1       2.774  -2.286  -3.629  0.00  0.00    +0.158 HD
BRANCH  20  24
ATOM     24  O   UNL     1       0.754  -1.476  -2.345  0.00  0.00    -0.444 OA
BRANCH  24  26
ATOM     25  C   UNL     1      -0.473   0.583  -2.039  0.00  0.00    +0.055 C 
ATOM     26  C   UNL     1      -0.226  -0.836  -1.525  0.00  0.00    +0.107 C 
ATOM     27  C   UNL     1       0.277  -0.775  -0.082  0.00  0.00    +0.055 C 
ATOM     28  C   UNL     1      -1.532  -1.632  -1.577  0.00  0.00    +0.055 C 
ENDBRANCH  24  26
ENDBRANCH  20  24
ENDBRANCH   1  22
TORSDOF 5
