REMARK  Name = ZINC65117975
REMARK  6 active torsions:
REMARK  status: ('A' for Active; 'I' for Inactive)
REMARK    1  A    between atoms: C_1  and  C_2
REMARK    2  A    between atoms: C_2  and  C_3
REMARK    3  A    between atoms: C_2  and  C_4
REMARK    4  A    between atoms: C_8  and  C_11
REMARK    5  A    between atoms: C_16  and  N_17
REMARK    6  A    between atoms: C_23  and  C_25
REMARK                            x       y       z     vdW  Elec       q    Type
REMARK                         _______ _______ _______ _____ _____    ______ ____
ROOT
ATOM      1  N   UNL     1       1.161  -5.047  -2.431  0.00  0.00    -0.313 N 
ATOM      2  C   UNL     1       0.577  -3.968  -3.240  0.00  0.00    +0.125 C 
ATOM      3  C   UNL     1       0.774  -4.306  -4.723  0.00  0.00    +0.127 C 
ATOM      4  N   UNL     1       0.327  -5.687  -4.954  0.00  0.00    -0.295 N 
ATOM      5  C   UNL     1       0.911  -6.766  -4.144  0.00  0.00    +0.127 C 
ATOM      6  C   UNL     1       0.717  -6.428  -2.665  0.00  0.00    +0.125 C 
ATOM      7  C   UNL     1      -0.603  -5.960  -5.891  0.00  0.00    +0.247 C 
ATOM      8  O   UNL     1      -1.027  -7.092  -6.015  0.00  0.00    -0.270 OA
ENDROOT
BRANCH   7   9
ATOM      9  C   UNL     1      -1.107  -4.883  -6.765  0.00  0.00    +0.037 C 
ATOM     10  C   UNL     1      -0.343  -4.441  -7.839  0.00  0.00    +0.019 C 
ATOM     11  C   UNL     1      -0.950  -3.452  -8.633  0.00  0.00    -0.017 C 
ATOM     12  C   UNL     1      -0.452  -2.443  -9.367  0.00  0.00    +0.025 C 
ATOM     13  C   UNL     1      -1.550  -1.557  -9.749  0.00  0.00    +0.106 C 
ATOM     14  N   UNL     1      -2.698  -2.045  -9.379  0.00  0.00    -0.279 NA
ATOM     15  C   UNL     1      -2.458  -3.340  -8.765  0.00  0.00    +0.158 C 
ATOM     16  C   UNL     1      -3.060  -3.528  -7.406  0.00  0.00    +0.005 C 
ATOM     17  C   UNL     1      -2.421  -4.278  -6.508  0.00  0.00    +0.011 C 
ENDBRANCH   7   9
BRANCH   1  23
ATOM     18  C   UNL     1       1.728  -4.542  -0.149  0.00  0.00    +0.041 A 
ATOM     19  C   UNL     1       2.693  -4.269   0.803  0.00  0.00    +0.013 A 
ATOM     20  C   UNL     1       4.023  -4.224   0.405  0.00  0.00    +0.018 A 
ATOM     21  C   UNL     1       4.340  -4.450  -0.919  0.00  0.00    +0.084 A 
ATOM     22  N   UNL     1       3.398  -4.708  -1.806  0.00  0.00    -0.349 N 
ATOM     23  C   UNL     1       2.120  -4.766  -1.465  0.00  0.00    +0.106 A 
ATOM     24  H   UNL     1       3.648  -4.863  -2.730  0.00  0.00    +0.167 HD
BRANCH  18  28
ATOM     25  C   UNL     1      -1.086  -5.884   1.483  0.00  0.00    +0.260 C 
ATOM     26  N   UNL     1      -0.681  -4.693   2.240  0.00  0.00    -0.182 NA
ATOM     27  N   UNL     1       0.067  -3.986   1.553  0.00  0.00    -0.279 N 
ATOM     28  C   UNL     1       0.272  -4.601   0.235  0.00  0.00    +0.266 C 
ATOM     29  O   UNL     1      -0.154  -5.973   0.386  0.00  0.00    -0.325 OA
ATOM     30  H   UNL     1       0.460  -3.148   1.842  0.00  0.00    +0.185 HD
BRANCH  25  32
ATOM     31  C   UNL     1      -1.961  -7.003   3.538  0.00  0.00    +0.012 C 
ATOM     32  C   UNL     1      -0.990  -7.131   2.364  0.00  0.00    +0.036 C 
ATOM     33  C   UNL     1      -1.349  -8.368   1.538  0.00  0.00    +0.012 C 
ENDBRANCH  25  32
ENDBRANCH  18  28
ENDBRANCH   1  23
TORSDOF 4
