REMARK  Name = ZINC59239287
REMARK  7 active torsions:
REMARK  status: ('A' for Active; 'I' for Inactive)
REMARK    1  A    between atoms: C_1  and  C_2
REMARK    2  A    between atoms: C_5  and  N_8
REMARK    3  A    between atoms: C_10  and  C_15
REMARK    4  A    between atoms: N_17  and  C_18
REMARK    5  A    between atoms: C_21  and  N_26
REMARK    6  A    between atoms: C_23  and  O_24
REMARK    7  A    between atoms: O_24  and  C_25
REMARK                            x       y       z     vdW  Elec       q    Type
REMARK                         _______ _______ _______ _____ _____    ______ ____
ROOT
ATOM      1  C   UNL     1       0.518  -7.479   1.457  0.00  0.00    +0.222 C 
ATOM      2  O   UNL     1       1.389  -7.161   2.238  0.00  0.00    -0.275 OA
ATOM      3  N   UNL     1       0.287  -8.781   1.197  0.00  0.00    -0.282 N 
ATOM      4  H   UNL     1      -0.352  -9.033   0.512  0.00  0.00    +0.155 HD
ENDROOT
BRANCH   1   7
ATOM      5  N   UNL     1       0.006  -4.159   0.031  0.00  0.00    -0.271 N 
ATOM      6  C   UNL     1       0.131  -5.005   1.224  0.00  0.00    +0.127 C 
ATOM      7  C   UNL     1      -0.308  -6.417   0.777  0.00  0.00    +0.102 C 
ATOM      8  C   UNL     1      -0.012  -6.373  -0.741  0.00  0.00    +0.110 C 
ATOM      9  C   UNL     1      -0.077  -4.901  -1.087  0.00  0.00    +0.221 C 
ATOM     10  O   UNL     1      -0.185  -4.456  -2.210  0.00  0.00    -0.275 OA
BRANCH   5  15
ATOM     11  C   UNL     1      -0.139   1.511   0.126  0.00  0.00    +0.044 C 
ATOM     12  C   UNL     1      -0.101   0.005   0.101  0.00  0.00    -0.050 A 
ATOM     13  C   UNL     1      -0.075  -0.664  -1.109  0.00  0.00    +0.005 A 
ATOM     14  C   UNL     1      -0.040  -2.045  -1.136  0.00  0.00    +0.024 A 
ATOM     15  C   UNL     1      -0.030  -2.761   0.054  0.00  0.00    +0.036 A 
ATOM     16  C   UNL     1      -0.055  -2.086   1.268  0.00  0.00    +0.024 A 
ATOM     17  C   UNL     1      -0.085  -0.705   1.287  0.00  0.00    +0.005 A 
ENDBRANCH   5  15
ENDBRANCH   1   7
BRANCH   3  18
ATOM     18  C   UNL     1       0.970  -9.770   1.916  0.00  0.00    +0.076 A 
ATOM     19  C   UNL     1       1.298  -9.561   3.248  0.00  0.00    +0.029 A 
ATOM     20  C   UNL     1       1.972 -10.539   3.955  0.00  0.00    +0.035 A 
ATOM     21  C   UNL     1       2.320 -11.727   3.339  0.00  0.00    +0.130 A 
ATOM     22  C   UNL     1       1.998 -11.942   2.012  0.00  0.00    +0.080 A 
ATOM     23  C   UNL     1       1.317 -10.969   1.297  0.00  0.00    +0.143 A 
BRANCH  21  24
ATOM     24  N   UNL     1       3.042 -12.770   4.102  0.00  0.00    +0.057 N 
ATOM     25  O   UNL     1       3.325 -12.583   5.262  0.00  0.00    -0.126 OA
ATOM     26  O   UNL     1       3.348 -13.809   3.564  0.00  0.00    -0.126 OA
ENDBRANCH  21  24
BRANCH  23  27
ATOM     27  O   UNL     1       0.994 -11.182  -0.006  0.00  0.00    -0.493 OA
ATOM     28  C   UNL     1       1.382 -12.434  -0.575  0.00  0.00    +0.277 C 
ENDBRANCH  23  27
ENDBRANCH   3  18
TORSDOF 5
