REMARK  Name = ZINC66886079
REMARK  7 active torsions:
REMARK  status: ('A' for Active; 'I' for Inactive)
REMARK    1  A    between atoms: C_1  and  C_2
REMARK    2  A    between atoms: C_2  and  C_3
REMARK    3  A    between atoms: C_3  and  C_5
REMARK    4  A    between atoms: C_3  and  N_8
REMARK    5  A    between atoms: C_11  and  N_14
REMARK    6  A    between atoms: C_15  and  C_17
REMARK    7  A    between atoms: C_17  and  C_18
REMARK                            x       y       z     vdW  Elec       q    Type
REMARK                         _______ _______ _______ _____ _____    ______ ____
ROOT
ATOM      1  N   UNL     1      -1.860   0.156   1.335  0.00  0.00    +0.387 N 
ATOM      2  C   UNL     1      -3.303   0.063   1.585  0.00  0.00    -0.076 C 
ATOM      3  C   UNL     1      -3.636   0.723   2.925  0.00  0.00    +0.004 C 
ATOM      4  C   UNL     1      -3.218   2.196   2.881  0.00  0.00    +0.069 C 
ATOM      5  C   UNL     1      -1.726   2.283   2.545  0.00  0.00    +0.004 C 
ATOM      6  C   UNL     1      -1.464   1.565   1.220  0.00  0.00    -0.076 C 
ATOM      7  H   UNL     1      -1.359  -0.271   2.100  0.00  0.00    -0.081 HD
ENDROOT
BRANCH   4   8
ATOM      8  N   UNL     1      -3.463   2.814   4.185  0.00  0.00    -0.313 N 
ATOM      9  C   UNL     1      -3.662   4.145   4.274  0.00  0.00    +0.213 C 
ATOM     10  O   UNL     1      -3.637   4.829   3.273  0.00  0.00    -0.276 OA
ATOM     11  H   UNL     1      -3.483   2.267   4.986  0.00  0.00    +0.149 HD
BRANCH   9  12
ATOM     12  C   UNL     1      -3.915   4.781   5.616  0.00  0.00    +0.099 C 
BRANCH  12  13
ATOM     13  C   UNL     1      -4.106   6.289   5.437  0.00  0.00    -0.002 C 
ATOM     14  C   UNL     1      -2.803   6.912   4.933  0.00  0.00    +0.004 C 
ATOM     15  C   UNL     1      -2.994   8.419   4.754  0.00  0.00    +0.000 C 
ATOM     16  C   UNL     1      -3.374   9.048   6.097  0.00  0.00    +0.000 C 
ATOM     17  C   UNL     1      -4.677   8.425   6.601  0.00  0.00    +0.000 C 
ATOM     18  C   UNL     1      -4.486   6.917   6.780  0.00  0.00    +0.004 C 
ENDBRANCH  12  13
ENDBRANCH   9  12
ENDBRANCH   4   8
BRANCH   1  19
ATOM     19  C   UNL     1      -1.534  -0.546   0.087  0.00  0.00    +0.019 C 
BRANCH  19  20
ATOM     20  C   UNL     1      -2.170   0.173  -1.075  0.00  0.00    +0.197 C 
ATOM     21  O   UNL     1      -3.053   0.981  -0.878  0.00  0.00    -0.278 OA
ATOM     22  N   UNL     1      -1.758  -0.082  -2.333  0.00  0.00    -0.331 N 
ATOM     23  H   UNL     1      -1.052  -0.728  -2.490  0.00  0.00    +0.145 HD
ATOM     24  H   UNL     1      -2.167   0.381  -3.080  0.00  0.00    +0.145 HD
ENDBRANCH  19  20
BRANCH  19  26
ATOM     25  C   UNL     1      -1.378  -2.728   1.296  0.00  0.00    +0.002 C 
ATOM     26  C   UNL     1      -2.068  -1.979   0.153  0.00  0.00    -0.010 C 
ENDBRANCH  19  26
ENDBRANCH   1  19
TORSDOF 6
