REMARK  Name = ZINC15570571
REMARK  5 active torsions:
REMARK  status: ('A' for Active; 'I' for Inactive)
REMARK    1  A    between atoms: C_1  and  C_2
REMARK    2  A    between atoms: C_6  and  O_8
REMARK    3  A    between atoms: O_8  and  C_9
REMARK    4  A    between atoms: C_12  and  N_15
REMARK    5  A    between atoms: C_18  and  C_23
REMARK                            x       y       z     vdW  Elec       q    Type
REMARK                         _______ _______ _______ _____ _____    ______ ____
ROOT
ATOM      1  C   UNL     1      -0.035  -4.131   2.304  0.00  0.00    +0.129 A 
ATOM      2  C   UNL     1      -0.039  -4.777   1.076  0.00  0.00    +0.048 A 
ATOM      3  C   UNL     1      -0.128  -6.154   1.021  0.00  0.00    +0.027 A 
ATOM      4  C   UNL     1      -0.212  -6.892   2.194  0.00  0.00    +0.043 A 
ATOM      5  C   UNL     1      -0.208  -6.245   3.422  0.00  0.00    +0.027 A 
ATOM      6  C   UNL     1      -0.114  -4.869   3.477  0.00  0.00    +0.048 A 
ENDROOT
BRANCH   4   7
ATOM      7  N   UNL     1      -0.302  -8.291   2.138  0.00  0.00    -0.220 N 
ATOM      8  C   UNL     1      -1.382  -8.996   2.529  0.00  0.00    +0.245 C 
ATOM      9  O   UNL     1      -2.419  -8.558   2.979  0.00  0.00    -0.273 OA
ATOM     10  C   UNL     1      -1.030 -10.451   2.289  0.00  0.00    +0.156 C 
ATOM     11  N   UNL     1       0.335 -10.391   1.739  0.00  0.00    -0.315 N 
ATOM     12  C   UNL     1       0.670  -9.089   1.684  0.00  0.00    +0.144 C 
ATOM     13  S   UNL     1       2.176  -8.518   1.102  0.00  0.00    -0.018 S 
ATOM     14  C   UNL     1      -1.994 -11.079   1.280  0.00  0.00    +0.038 C 
ATOM     15  H   UNL     1       0.883 -11.143   1.466  0.00  0.00    +0.148 HD
ENDBRANCH   4   7
BRANCH   1  16
ATOM     16  O   UNL     1       0.052  -2.776   2.358  0.00  0.00    -0.456 OA
BRANCH  16  22
ATOM     17  C   UNL     1      -2.501  -1.333  -1.544  0.00  0.00    +0.044 C 
ATOM     18  C   UNL     1      -1.226  -1.360  -0.740  0.00  0.00    -0.047 A 
ATOM     19  C   UNL     1      -0.109  -0.682  -1.193  0.00  0.00    +0.003 A 
ATOM     20  C   UNL     1       1.061  -0.705  -0.457  0.00  0.00    +0.004 A 
ATOM     21  C   UNL     1       1.118  -1.405   0.732  0.00  0.00    +0.046 A 
ATOM     22  C   UNL     1      -0.002  -2.086   1.189  0.00  0.00    +0.129 A 
ATOM     23  C   UNL     1      -1.177  -2.057   0.451  0.00  0.00    +0.049 A 
ENDBRANCH  16  22
ENDBRANCH   1  16
TORSDOF 3
