REMARK  Name = ZINC59829795
REMARK  6 active torsions:
REMARK  status: ('A' for Active; 'I' for Inactive)
REMARK    1  A    between atoms: C_1  and  C_2
REMARK    2  A    between atoms: C_3  and  C_11
REMARK    3  A    between atoms: C_4  and  C_10
REMARK    4  A    between atoms: N_5  and  C_7
REMARK    5  A    between atoms: C_7  and  C_8
REMARK    6  A    between atoms: N_12  and  N_13
REMARK                            x       y       z     vdW  Elec       q    Type
REMARK                         _______ _______ _______ _____ _____    ______ ____
ROOT
ATOM      1  C   UNL     1      -0.005  -0.370  -2.549  0.00  0.00    +0.141 C 
ATOM      2  N   UNL     1      -0.023   0.899  -2.818  0.00  0.00    -0.188 NA
ENDROOT
BRANCH   2   3
ATOM      3  N   UNL     1      -0.036   1.333  -4.151  0.00  0.00    -0.215 N 
ATOM      4  C   UNL     1      -0.055   2.682  -4.437  0.00  0.00    +0.179 A 
ATOM      5  N   UNL     1      -0.059   3.701  -3.607  0.00  0.00    -0.224 NA
ATOM      6  C   UNL     1      -0.079   4.982  -4.032  0.00  0.00    +0.080 A 
ATOM      7  C   UNL     1      -0.086   6.161  -3.251  0.00  0.00    +0.029 A 
ATOM      8  C   UNL     1      -0.107   7.395  -3.846  0.00  0.00    +0.002 A 
ATOM      9  C   UNL     1      -0.123   7.534  -5.227  0.00  0.00    +0.001 A 
ATOM     10  C   UNL     1      -0.117   6.402  -6.021  0.00  0.00    +0.017 A 
ATOM     11  C   UNL     1      -0.095   5.162  -5.434  0.00  0.00    +0.041 A 
ATOM     12  S   UNL     1      -0.074   3.489  -6.031  0.00  0.00    -0.051 S 
ATOM     13  H   UNL     1      -0.030   0.684  -4.872  0.00  0.00    +0.176 HD
ENDBRANCH   2   3
BRANCH   1  16
ATOM     14  C   UNL     1      -0.018   1.503   0.010  0.00  0.00    +0.068 C 
ATOM     15  C   UNL     1       0.002  -0.004   0.002  0.00  0.00    +0.069 A 
ATOM     16  C   UNL     1       0.008  -0.826  -1.145  0.00  0.00    +0.038 A 
ATOM     17  C   UNL     1       0.028  -2.134  -0.712  0.00  0.00    +0.045 A 
ATOM     18  N   UNL     1       0.034  -2.111   0.636  0.00  0.00    -0.264 N 
ATOM     19  N   UNL     1       0.023  -0.776   1.055  0.00  0.00    -0.175 NA
ATOM     20  C   UNL     1       0.040  -3.363  -1.584  0.00  0.00    +0.066 C 
BRANCH  18  21
ATOM     21  C   UNL     1       0.053  -3.285   1.513  0.00  0.00    +0.170 C 
BRANCH  21  22
ATOM     22  C   UNL     1       1.481  -3.668   1.808  0.00  0.00    -0.012 C 
ATOM     23  C   UNL     1       1.889  -3.772   3.048  0.00  0.00    +0.006 C 
ENDBRANCH  21  22
ENDBRANCH  18  21
ENDBRANCH   1  16
TORSDOF 4
