REMARK  Name = ZINC47905390
REMARK  4 active torsions:
REMARK  status: ('A' for Active; 'I' for Inactive)
REMARK    1  A    between atoms: C_1  and  C_2
REMARK    2  A    between atoms: C_5  and  C_8
REMARK    3  A    between atoms: C_10  and  C_13
REMARK    4  A    between atoms: N_15  and  C_16
REMARK                            x       y       z     vdW  Elec       q    Type
REMARK                         _______ _______ _______ _____ _____    ______ ____
ROOT
ATOM      1  C   UNL     1       0.100  -7.583   1.546  0.00  0.00    +0.286 C 
ATOM      2  O   UNL     1       0.104  -7.466   2.756  0.00  0.00    -0.266 OA
ATOM      3  N   UNL     1       0.116  -8.810   0.987  0.00  0.00    -0.278 N 
ATOM      4  H   UNL     1       0.044  -8.905   0.024  0.00  0.00    +0.155 HD
ENDROOT
BRANCH   3   5
ATOM      5  C   UNL     1       0.236  -9.945   1.796  0.00  0.00    +0.052 A 
ATOM      6  C   UNL     1      -0.358  -9.981   3.056  0.00  0.00    +0.028 A 
ATOM      7  C   UNL     1      -0.214 -11.124   3.820  0.00  0.00    +0.050 A 
ATOM      8  C   UNL     1       0.514 -12.192   3.310  0.00  0.00    +0.156 A 
ATOM      9  N   UNL     1       1.066 -12.124   2.110  0.00  0.00    -0.234 NA
ATOM     10  C   UNL     1       0.944 -11.053   1.351  0.00  0.00    +0.136 A 
ATOM     11  N   UNL     1       0.666 -13.354   4.076  0.00  0.00    -0.202 N 
ATOM     12  C   UNL     1       1.342 -14.467   3.730  0.00  0.00    +0.226 A 
ATOM     13  N   UNL     1       1.247 -15.321   4.717  0.00  0.00    -0.222 NA
ATOM     14  C   UNL     1       0.524 -14.794   5.704  0.00  0.00    +0.245 A 
ATOM     15  N   UNL     1       0.150 -13.589   5.361  0.00  0.00    -0.152 NA
ENDBRANCH   3   5
BRANCH   1  18
ATOM     16  C   UNL     1       0.041  -4.257  -0.021  0.00  0.00    +0.114 A 
ATOM     17  C   UNL     1       0.059  -5.094   1.119  0.00  0.00    +0.086 A 
ATOM     18  C   UNL     1       0.077  -6.383   0.689  0.00  0.00    +0.222 A 
ATOM     19  O   UNL     1       0.070  -6.371  -0.659  0.00  0.00    -0.349 OA
ATOM     20  N   UNL     1       0.042  -5.021  -1.085  0.00  0.00    -0.077 NA
BRANCH  16  25
ATOM     21  C   UNL     1      -0.052   1.502   0.011  0.00  0.00    +0.044 C 
ATOM     22  C   UNL     1      -0.027  -0.004   0.003  0.00  0.00    -0.050 A 
ATOM     23  C   UNL     1      -0.027  -0.687  -1.200  0.00  0.00    +0.004 A 
ATOM     24  C   UNL     1      -0.005  -2.067  -1.214  0.00  0.00    +0.010 A 
ATOM     25  C   UNL     1       0.018  -2.772  -0.013  0.00  0.00    +0.004 A 
ATOM     26  C   UNL     1       0.018  -2.080   1.196  0.00  0.00    +0.010 A 
ATOM     27  C   UNL     1       0.001  -0.700   1.198  0.00  0.00    +0.004 A 
ENDBRANCH  16  25
ENDBRANCH   1  18
TORSDOF 3
