REMARK  Name = ZINC42459541
REMARK  8 active torsions:
REMARK  status: ('A' for Active; 'I' for Inactive)
REMARK    1  A    between atoms: C_1  and  C_2
REMARK    2  A    between atoms: C_2  and  C_4
REMARK    3  A    between atoms: C_2  and  C_19
REMARK    4  A    between atoms: C_4  and  N_5
REMARK    5  A    between atoms: N_5  and  C_6
REMARK    6  A    between atoms: N_5  and  S_7
REMARK    7  A    between atoms: S_7  and  C_10
REMARK    8  A    between atoms: N_20  and  O_21
REMARK                            x       y       z     vdW  Elec       q    Type
REMARK                         _______ _______ _______ _____ _____    ______ ____
ROOT
ATOM      1  N   UNL     1      -1.946  -0.083  -1.164  0.00  0.00    -0.179 NA
ATOM      2  C   UNL     1      -1.940  -0.910  -2.373  0.00  0.00    +0.131 C 
ENDROOT
BRANCH   1   3
ATOM      3  S   UNL     1      -2.639   1.421  -1.193  0.00  0.00    +0.061 S 
ATOM      4  O   UNL     1      -3.505   1.447  -2.319  0.00  0.00    -0.153 OA
ATOM      5  O   UNL     1      -3.096   1.682   0.127  0.00  0.00    -0.153 OA
BRANCH   3   6
ATOM      6  C   UNL     1      -1.353   2.580  -1.520  0.00  0.00    +0.106 A 
ATOM      7  C   UNL     1      -0.581   3.068  -0.481  0.00  0.00    +0.029 A 
ATOM      8  C   UNL     1       0.426   3.977  -0.739  0.00  0.00    +0.006 A 
ATOM      9  C   UNL     1       0.666   4.402  -2.035  0.00  0.00    -0.044 A 
ATOM     10  C   UNL     1      -0.105   3.914  -3.073  0.00  0.00    -0.042 A 
ATOM     11  C   UNL     1      -1.111   2.999  -2.813  0.00  0.00    +0.032 A 
ATOM     12  C   UNL     1       0.349   4.527  -4.381  0.00  0.00    +0.036 C 
ATOM     13  C   UNL     1       1.184   5.762  -3.980  0.00  0.00    +0.009 C 
ATOM     14  C   UNL     1       1.692   5.375  -2.574  0.00  0.00    +0.036 C 
ENDBRANCH   3   6
ENDBRANCH   1   3
BRANCH   1  15
ATOM     15  C   UNL     1      -1.339  -0.587   0.070  0.00  0.00    +0.120 C 
BRANCH  15  17
ATOM     16  C   UNL     1      -2.715  -2.671   0.039  0.00  0.00    +0.017 C 
ATOM     17  C   UNL     1      -2.366  -1.417   0.842  0.00  0.00    +0.068 C 
BRANCH  17  18
ATOM     18  C   UNL     1      -1.789  -1.818   2.175  0.00  0.00    +0.136 C 
ATOM     19  N   UNL     1      -1.216  -2.968   2.311  0.00  0.00    -0.076 NA
ATOM     20  N   UNL     1      -1.873  -0.960   3.248  0.00  0.00    -0.344 N 
ATOM     21  H   UNL     1      -2.303  -0.096   3.147  0.00  0.00    +0.144 HD
ATOM     22  H   UNL     1      -1.501  -1.218   4.106  0.00  0.00    +0.144 HD
BRANCH  19  23
ATOM     23  O   UNL     1      -0.673  -3.345   3.563  0.00  0.00    -0.408 OA
ATOM     24  H   UNL     1      -0.265  -4.222   3.567  0.00  0.00    +0.328 HD
ENDBRANCH  19  23
ENDBRANCH  17  18
ENDBRANCH  15  17
ENDBRANCH   1  15
TORSDOF 6
