REMARK  Name = ZINC49987539
REMARK  8 active torsions:
REMARK  status: ('A' for Active; 'I' for Inactive)
REMARK    1  A    between atoms: C_1  and  C_2
REMARK    2  A    between atoms: C_2  and  C_3
REMARK    3  A    between atoms: C_6  and  N_9
REMARK    4  A    between atoms: N_9  and  C_10
REMARK    5  A    between atoms: N_9  and  C_11
REMARK    6  A    between atoms: C_14  and  C_20
REMARK    7  A    between atoms: C_16  and  N_17
REMARK    8  A    between atoms: C_20  and  O_21
REMARK                            x       y       z     vdW  Elec       q    Type
REMARK                         _______ _______ _______ _____ _____    ______ ____
ROOT
ATOM      1  C   UNL     1       2.040  -2.138   5.776  0.00  0.00    +0.064 A 
ATOM      2  C   UNL     1       1.510  -3.400   6.011  0.00  0.00    +0.026 A 
ATOM      3  C   UNL     1       0.814  -3.648   7.178  0.00  0.00    +0.008 A 
ATOM      4  C   UNL     1       0.644  -2.641   8.111  0.00  0.00    -0.020 A 
ATOM      5  C   UNL     1       1.171  -1.384   7.880  0.00  0.00    +0.040 A 
ATOM      6  C   UNL     1       1.872  -1.130   6.717  0.00  0.00    +0.148 A 
ENDROOT
BRANCH   6   7
ATOM      7  N   UNL     1       2.440   0.214   6.473  0.00  0.00    +0.058 N 
ATOM      8  O   UNL     1       2.294   1.091   7.293  0.00  0.00    -0.126 OA
ATOM      9  O   UNL     1       3.050   0.437   5.453  0.00  0.00    -0.126 OA
ENDBRANCH   6   7
BRANCH   1  10
ATOM     10  N   UNL     1       2.745  -1.883   4.596  0.00  0.00    -0.301 N 
ATOM     11  C   UNL     1       4.193  -2.102   4.547  0.00  0.00    +0.135 C 
BRANCH  10  15
ATOM     12  C   UNL     1       0.731  -0.503   1.223  0.00  0.00    -0.048 A 
ATOM     13  C   UNL     1       2.098  -0.709   1.174  0.00  0.00    +0.005 A 
ATOM     14  C   UNL     1       2.769  -1.167   2.291  0.00  0.00    +0.024 A 
ATOM     15  C   UNL     1       2.069  -1.420   3.465  0.00  0.00    +0.034 A 
ATOM     16  C   UNL     1       0.696  -1.212   3.510  0.00  0.00    +0.024 A 
ATOM     17  C   UNL     1       0.033  -0.749   2.391  0.00  0.00    +0.005 A 
BRANCH  12  19
ATOM     18  C   UNL     1      -0.019   1.526   0.010  0.00  0.00    +0.009 C 
ATOM     19  C   UNL     1       0.002  -0.004   0.002  0.00  0.00    +0.032 C 
ENDBRANCH  12  19
ENDBRANCH  10  15
ENDBRANCH   1  10
BRANCH   4  20
ATOM     20  C   UNL     1      -0.117  -2.916   9.383  0.00  0.00    +0.191 C 
BRANCH  20  21
ATOM     21  O   UNL     1       0.788  -3.371  10.390  0.00  0.00    -0.390 OA
ATOM     22  H   UNL     1       0.367  -3.567  11.238  0.00  0.00    +0.210 HD
ENDBRANCH  20  21
ENDBRANCH   4  20
TORSDOF 6
