REMARK  Name = ZINC57833456
REMARK  8 active torsions:
REMARK  status: ('A' for Active; 'I' for Inactive)
REMARK    1  A    between atoms: C_1  and  C_2
REMARK    2  A    between atoms: C_5  and  C_9
REMARK    3  A    between atoms: C_7  and  C_8
REMARK    4  A    between atoms: C_12  and  C_22
REMARK    5  A    between atoms: N_15  and  C_16
REMARK    6  A    between atoms: C_16  and  C_17
REMARK    7  A    between atoms: C_16  and  C_18
REMARK    8  A    between atoms: C_16  and  C_19
REMARK                            x       y       z     vdW  Elec       q    Type
REMARK                         _______ _______ _______ _____ _____    ______ ____
ROOT
ATOM      1  C   UNL     1       1.004  -2.353  -1.301  0.00  0.00    +0.053 A 
ATOM      2  C   UNL     1       2.014  -1.873  -0.489  0.00  0.00    +0.028 A 
ATOM      3  C   UNL     1       2.959  -2.749   0.032  0.00  0.00    +0.026 A 
ATOM      4  C   UNL     1       2.870  -4.107  -0.276  0.00  0.00    +0.116 A 
ATOM      5  C   UNL     1       1.818  -4.559  -1.113  0.00  0.00    +0.270 A 
ATOM      6  O   UNL     1       1.727  -5.742  -1.392  0.00  0.00    -0.266 OA
ATOM      7  N   UNL     1       0.917  -3.683  -1.597  0.00  0.00    -0.291 N 
ENDROOT
BRANCH   1  12
ATOM      8  C   UNL     1      -2.896   1.295  -3.442  0.00  0.00    +0.044 C 
ATOM      9  C   UNL     1      -1.874   0.340  -2.881  0.00  0.00    -0.047 A 
ATOM     10  C   UNL     1      -1.401  -0.700  -3.663  0.00  0.00    +0.004 A 
ATOM     11  C   UNL     1      -0.466  -1.578  -3.156  0.00  0.00    +0.010 A 
ATOM     12  C   UNL     1       0.004  -1.416  -1.851  0.00  0.00    -0.001 A 
ATOM     13  C   UNL     1      -0.477  -0.365  -1.067  0.00  0.00    +0.013 A 
ATOM     14  C   UNL     1      -1.408   0.509  -1.589  0.00  0.00    -0.047 A 
ATOM     15  C   UNL     1      -1.925   1.648  -0.748  0.00  0.00    +0.044 C 
ENDBRANCH   1  12
BRANCH   7  16
ATOM     16  C   UNL     1      -0.169  -4.162  -2.455  0.00  0.00    +0.144 C 
ATOM     17  C   UNL     1      -0.597  -5.560  -2.003  0.00  0.00    +0.046 C 
ATOM     18  C   UNL     1      -1.359  -3.206  -2.355  0.00  0.00    +0.046 C 
BRANCH  16  19
ATOM     19  C   UNL     1       0.309  -4.221  -3.884  0.00  0.00    +0.381 C 
ATOM     20  O   UNL     1       1.451  -3.892  -4.158  0.00  0.00    -0.244 OA
ATOM     21  O   UNL     1      -0.446  -4.597  -4.764  0.00  0.00    -0.244 OA
ENDBRANCH  16  19
ENDBRANCH   7  16
BRANCH   4  22
ATOM     22  C   UNL     1       3.829  -5.033   0.246  0.00  0.00    +0.105 C 
ATOM     23  N   UNL     1       4.590  -5.768   0.660  0.00  0.00    -0.191 NA
ENDBRANCH   4  22
TORSDOF 4
