REMARK  Name = ZINC19974234
REMARK  13 active torsions:
REMARK  status: ('A' for Active; 'I' for Inactive)
REMARK    1  A    between atoms: C_1  and  C_2
REMARK    2  A    between atoms: C_3  and  C_9
REMARK    3  A    between atoms: C_4  and  O_8
REMARK    4  A    between atoms: C_9  and  C_10
REMARK    5  A    between atoms: C_9  and  C_22
REMARK    6  A    between atoms: C_13  and  O_18
REMARK    7  A    between atoms: C_14  and  O_16
REMARK    8  A    between atoms: O_16  and  C_17
REMARK    9  A    between atoms: O_18  and  C_19
REMARK   10  A    between atoms: C_19  and  C_20
REMARK   11  A    between atoms: C_19  and  C_21
REMARK   12  A    between atoms: C_23  and  C_29
REMARK   13  A    between atoms: C_27  and  O_28
REMARK                            x       y       z     vdW  Elec       q    Type
REMARK                         _______ _______ _______ _____ _____    ______ ____
ROOT
ATOM      1  C   UNL     1      -0.767  -0.319  -1.804  0.00  0.00    +0.093 C 
ENDROOT
BRANCH   1   4
ATOM      2  C   UNL     1      -1.230   2.197   0.065  0.00  0.00    +0.068 C 
ATOM      3  C   UNL     1      -1.462   0.758   0.447  0.00  0.00    +0.068 A 
ATOM      4  C   UNL     1      -1.257  -0.352  -0.380  0.00  0.00    +0.048 A 
ATOM      5  C   UNL     1      -1.579  -1.465   0.331  0.00  0.00    +0.213 A 
ATOM      6  N   UNL     1      -1.972  -1.066   1.561  0.00  0.00    -0.247 N 
ATOM      7  H   UNL     1      -2.260  -1.645   2.284  0.00  0.00    +0.192 HD
ATOM      8  N   UNL     1      -1.884   0.331   1.609  0.00  0.00    -0.176 NA
BRANCH   5   9
ATOM      9  O   UNL     1      -1.517  -2.746  -0.114  0.00  0.00    -0.492 OA
ATOM     10  H   UNL     1      -0.695  -3.202   0.112  0.00  0.00    +0.294 HD
ENDBRANCH   5   9
ENDBRANCH   1   4
BRANCH   1  11
ATOM     11  C   UNL     1       0.425  -1.230  -1.947  0.00  0.00    +0.048 A 
ATOM     12  C   UNL     1       1.390  -1.430  -1.020  0.00  0.00    +0.041 A 
ATOM     13  N   UNL     1       2.274  -2.314  -1.528  0.00  0.00    -0.278 N 
ATOM     14  N   UNL     1       1.841  -2.672  -2.811  0.00  0.00    -0.136 NA
ATOM     15  H   UNL     1       3.070  -2.644  -1.083  0.00  0.00    +0.189 HD
ATOM     16  C   UNL     1       0.728  -2.026  -3.062  0.00  0.00    +0.236 A 
ATOM     17  C   UNL     1       1.464  -0.781   0.338  0.00  0.00    +0.065 C 
BRANCH  16  18
ATOM     18  O   UNL     1      -0.004  -2.110  -4.205  0.00  0.00    -0.491 OA
ATOM     19  H   UNL     1       0.300  -1.524  -4.911  0.00  0.00    +0.294 HD
ENDBRANCH  16  18
ENDBRANCH   1  11
BRANCH   1  20
ATOM     20  C   UNL     1      -1.867  -0.783  -2.724  0.00  0.00    -0.031 A 
ATOM     21  C   UNL     1      -2.261  -2.108  -2.715  0.00  0.00    +0.008 A 
ATOM     22  C   UNL     1      -3.270  -2.538  -3.557  0.00  0.00    +0.050 A 
ATOM     23  C   UNL     1      -3.887  -1.641  -4.413  0.00  0.00    +0.162 A 
ATOM     24  C   UNL     1      -3.490  -0.307  -4.423  0.00  0.00    +0.162 A 
ATOM     25  C   UNL     1      -2.482   0.119  -3.572  0.00  0.00    +0.054 A 
BRANCH  24  26
ATOM     26  O   UNL     1      -4.094   0.578  -5.261  0.00  0.00    -0.491 OA
ATOM     27  C   UNL     1      -3.635   1.930  -5.217  0.00  0.00    +0.277 C 
ENDBRANCH  24  26
BRANCH  23  28
ATOM     28  O   UNL     1      -4.879  -2.063  -5.242  0.00  0.00    -0.486 OA
BRANCH  28  29
ATOM     29  C   UNL     1      -5.198  -3.455  -5.216  0.00  0.00    +0.167 C 
ATOM     30  C   UNL     1      -6.153  -3.738  -4.055  0.00  0.00    +0.051 C 
ATOM     31  C   UNL     1      -5.867  -3.850  -6.535  0.00  0.00    +0.051 C 
ENDBRANCH  28  29
ENDBRANCH  23  28
ENDBRANCH   1  20
TORSDOF 8
