REMARK  Name = ZINC50637055
REMARK  6 active torsions:
REMARK  status: ('A' for Active; 'I' for Inactive)
REMARK    1  A    between atoms: C_1  and  C_2
REMARK    2  A    between atoms: C_2  and  C_3
REMARK    3  A    between atoms: C_2  and  N_4
REMARK    4  A    between atoms: N_4  and  S_5
REMARK    5  A    between atoms: S_5  and  C_8
REMARK    6  A    between atoms: C_9  and  N_16
REMARK                            x       y       z     vdW  Elec       q    Type
REMARK                         _______ _______ _______ _____ _____    ______ ____
ROOT
ATOM      1  C   UNL     1      -0.878  -3.218  -0.043  0.00  0.00    +0.220 A 
ATOM      2  C   UNL     1       0.363  -3.644  -0.357  0.00  0.00    +0.163 A 
ATOM      3  N   UNL     1       0.675  -4.668   0.456  0.00  0.00    -0.205 NA
ATOM      4  C   UNL     1      -0.326  -4.892   1.260  0.00  0.00    +0.181 A 
ATOM      5  N   UNL     1      -1.343  -4.011   1.010  0.00  0.00    -0.276 N 
ATOM      6  C   UNL     1      -2.472  -4.122   1.791  0.00  0.00    +0.102 A 
ATOM      7  C   UNL     1      -2.553  -5.049   2.745  0.00  0.00    +0.067 A 
ATOM      8  S   UNL     1      -0.975  -5.872   2.593  0.00  0.00    -0.058 S 
ENDROOT
BRANCH   1   9
ATOM      9  S   UNL     1      -1.750  -1.895  -0.814  0.00  0.00    +0.078 S 
ATOM     10  O   UNL     1      -3.133  -2.137  -0.591  0.00  0.00    -0.151 OA
ATOM     11  O   UNL     1      -1.202  -1.753  -2.117  0.00  0.00    -0.151 OA
BRANCH   9  12
ATOM     12  N   UNL     1      -1.372  -0.511   0.012  0.00  0.00    -0.186 NA
ATOM     13  H   UNL     1      -2.061  -0.036   0.503  0.00  0.00    +0.148 HD
BRANCH  12  15
ATOM     14  C   UNL     1      -0.019   1.526   0.010  0.00  0.00    +0.025 C 
ATOM     15  C   UNL     1       0.002  -0.004   0.002  0.00  0.00    +0.070 C 
ATOM     16  C   UNL     1       0.742  -0.511   1.242  0.00  0.00    +0.025 C 
ENDBRANCH  12  15
ENDBRANCH   9  12
ENDBRANCH   1   9
BRANCH   2  17
ATOM     17  N   UNL     1       1.187  -3.110  -1.359  0.00  0.00    -0.340 N 
ATOM     18  H   UNL     1       0.874  -2.366  -1.899  0.00  0.00    +0.144 HD
ATOM     19  H   UNL     1       2.068  -3.484  -1.514  0.00  0.00    +0.144 HD
ENDBRANCH   2  17
TORSDOF 4
