REMARK  Name = ZINC03443186
REMARK  11 active torsions:
REMARK  status: ('A' for Active; 'I' for Inactive)
REMARK    1  A    between atoms: C_1  and  O_2
REMARK    2  A    between atoms: O_2  and  C_3
REMARK    3  A    between atoms: C_3  and  C_4
REMARK    4  A    between atoms: C_4  and  N_5
REMARK    5  A    between atoms: N_5  and  C_6
REMARK    6  A    between atoms: C_7  and  N_22
REMARK    7  A    between atoms: N_8  and  C_15
REMARK    8  A    between atoms: C_15  and  C_16
REMARK    9  A    between atoms: C_23  and  C_25
REMARK   10  A    between atoms: C_25  and  N_26
REMARK   11  A    between atoms: N_26  and  C_27
REMARK                            x       y       z     vdW  Elec       q    Type
REMARK                         _______ _______ _______ _____ _____    ______ ____
ROOT
ATOM      1  C   UNL     1       1.247   3.007  -0.298  0.00  0.00    +0.140 A 
ATOM      2  C   UNL     1       0.564   2.358   0.710  0.00  0.00    +0.128 A 
ATOM      3  N   UNL     1      -0.757   2.026   0.521  0.00  0.00    -0.276 N 
ATOM      4  C   UNL     1      -1.378   2.335  -0.632  0.00  0.00    +0.331 A 
ATOM      5  O   UNL     1      -2.548   2.038  -0.778  0.00  0.00    -0.246 OA
ATOM      6  N   UNL     1      -0.728   2.963  -1.627  0.00  0.00    -0.273 N 
ATOM      7  H   UNL     1      -1.210   3.175  -2.477  0.00  0.00    +0.173 HD
ATOM      8  C   UNL     1       0.567   3.311  -1.492  0.00  0.00    +0.277 A 
ATOM      9  O   UNL     1       1.147   3.884  -2.400  0.00  0.00    -0.266 OA
ENDROOT
BRANCH   1  10
ATOM     10  N   UNL     1       2.603   3.361  -0.134  0.00  0.00    -0.261 N 
ATOM     11  C   UNL     1       2.960   4.662  -0.093  0.00  0.00    +0.237 C 
ATOM     12  O   UNL     1       2.109   5.526  -0.111  0.00  0.00    -0.274 OA
BRANCH  10  13
ATOM     13  C   UNL     1       3.623   2.317  -0.007  0.00  0.00    +0.142 C 
BRANCH  13  14
ATOM     14  C   UNL     1       4.039   1.839  -1.400  0.00  0.00    +0.178 C 
BRANCH  14  16
ATOM     15  C   UNL     1       5.109   2.567  -3.418  0.00  0.00    +0.194 C 
ATOM     16  O   UNL     1       4.678   2.909  -2.099  0.00  0.00    -0.381 OA
ENDBRANCH  14  16
ENDBRANCH  13  14
ENDBRANCH  10  13
BRANCH  11  17
ATOM     17  C   UNL     1       4.417   5.041  -0.027  0.00  0.00    +0.198 C 
BRANCH  17  18
ATOM     18  N   UNL     1       4.541   6.500   0.007  0.00  0.00    -0.335 N 
ATOM     19  H   UNL     1       3.746   7.055  -0.014  0.00  0.00    +0.147 HD
BRANCH  18  20
ATOM     20  C   UNL     1       5.806   7.093   0.070  0.00  0.00    +0.029 A 
ATOM     21  C   UNL     1       6.945   6.300   0.107  0.00  0.00    +0.026 A 
ATOM     22  C   UNL     1       8.194   6.887   0.164  0.00  0.00    +0.041 A 
ATOM     23  C   UNL     1       8.310   8.266   0.196  0.00  0.00    +0.142 A 
ATOM     24  C   UNL     1       7.176   9.060   0.166  0.00  0.00    +0.078 A 
ATOM     25  C   UNL     1       5.924   8.476   0.103  0.00  0.00    +0.045 A 
ATOM     26 CL   UNL     1       7.325  10.790   0.206  0.00  0.00    -0.081 Cl
ATOM     27  F   UNL     1       9.533   8.839   0.257  0.00  0.00    -0.204 F 
ENDBRANCH  18  20
ENDBRANCH  17  18
ENDBRANCH  11  17
ENDBRANCH   1  10
BRANCH   2  28
ATOM     28  N   UNL     1       1.197   2.046   1.890  0.00  0.00    -0.343 N 
ATOM     29  H   UNL     1       2.097   2.368   2.058  0.00  0.00    +0.144 HD
ATOM     30  H   UNL     1       0.745   1.503   2.554  0.00  0.00    +0.144 HD
ENDBRANCH   2  28
BRANCH   3  31
ATOM     31  C   UNL     1      -1.494   1.336   1.583  0.00  0.00    +0.163 C 
BRANCH  31  32
ATOM     32  C   UNL     1      -2.139   2.353   2.489  0.00  0.00    -0.028 A 
ATOM     33  C   UNL     1      -1.457   2.825   3.594  0.00  0.00    +0.005 A 
ATOM     34  C   UNL     1      -2.047   3.762   4.423  0.00  0.00    +0.000 A 
ATOM     35  C   UNL     1      -3.323   4.218   4.151  0.00  0.00    +0.000 A 
ATOM     36  C   UNL     1      -4.007   3.742   3.048  0.00  0.00    +0.000 A 
ATOM     37  C   UNL     1      -3.415   2.810   2.217  0.00  0.00    +0.005 A 
ENDBRANCH  31  32
ENDBRANCH   3  31
TORSDOF 10
