REMARK  Name = ZINC50396853
REMARK  1 active torsions:
REMARK  status: ('A' for Active; 'I' for Inactive)
REMARK    1  A    between atoms: N_11  and  C_12
REMARK                            x       y       z     vdW  Elec       q    Type
REMARK                         _______ _______ _______ _____ _____    ______ ____
ROOT
ATOM      1  C   UNL     1      -0.017   1.383   0.010  0.00  0.00    +0.016 A 
ATOM      2  C   UNL     1       1.180   2.077   0.002  0.00  0.00    +0.018 A 
ATOM      3  C   UNL     1       2.364   1.384  -0.013  0.00  0.00    +0.041 A 
ATOM      4  C   UNL     1       2.423  -0.028  -0.021  0.00  0.00    +0.081 A 
ATOM      5  C   UNL     1       1.182  -0.704  -0.013  0.00  0.00    +0.044 A 
ATOM      6  C   UNL     1       0.002  -0.004   0.002  0.00  0.00    +0.020 A 
ATOM      7 BR   UNL     1      -1.635  -0.951   0.013  0.00  0.00    -0.050 Br
ATOM      8  N   UNL     1       3.664  -0.562  -0.036  0.00  0.00    -0.225 NA
ATOM      9  C   UNL     1       4.750   0.176  -0.042  0.00  0.00    +0.160 A 
ATOM     10  S   UNL     1       4.083   1.835  -0.027  0.00  0.00    -0.052 S 
ATOM     11  N   UNL     1       6.070  -0.226  -0.057  0.00  0.00    -0.312 N 
ATOM     12  H   UNL     1       6.289  -1.170  -0.063  0.00  0.00    +0.149 HD
ENDROOT
BRANCH  11  13
ATOM     13  C   UNL     1       7.140   0.775  -0.061  0.00  0.00    +0.158 C 
ATOM     14  C   UNL     1       8.409   0.165   0.538  0.00  0.00    +0.033 C 
ATOM     15  C   UNL     1       9.579   1.121   0.274  0.00  0.00    +0.021 C 
ATOM     16  C   UNL     1       9.856   1.151  -1.230  0.00  0.00    +0.104 C 
ATOM     17  N   UNL     1       8.626   1.400  -1.971  0.00  0.00    -0.314 N 
ATOM     18  C   UNL     1       7.404   1.216  -1.472  0.00  0.00    +0.233 C 
ATOM     19  O   UNL     1       6.454   1.416  -2.199  0.00  0.00    -0.274 OA
ATOM     20  H   UNL     1       8.702   1.719  -2.884  0.00  0.00    +0.149 HD
ENDBRANCH  11  13
TORSDOF 1
