REMARK  Name = ZINC39856169
REMARK  8 active torsions:
REMARK  status: ('A' for Active; 'I' for Inactive)
REMARK    1  A    between atoms: C_1  and  C_2
REMARK    2  A    between atoms: C_6  and  C_7
REMARK    3  A    between atoms: N_9  and  C_10
REMARK    4  A    between atoms: C_19  and  C_27
REMARK    5  A    between atoms: C_19  and  C_28
REMARK    6  A    between atoms: N_22  and  N_23
REMARK    7  A    between atoms: N_23  and  C_24
REMARK    8  A    between atoms: C_24  and  N_26
REMARK                            x       y       z     vdW  Elec       q    Type
REMARK                         _______ _______ _______ _____ _____    ______ ____
ROOT
ATOM      1  C   UNL     1      -0.005   1.502   0.010  0.00  0.00    +0.048 C 
ATOM      2  C   UNL     1       0.021  -0.004   0.002  0.00  0.00    +0.009 A 
ATOM      3  C   UNL     1       0.039  -0.839  -1.123  0.00  0.00    +0.042 A 
ATOM      4  C   UNL     1       0.059  -2.138  -0.673  0.00  0.00    +0.116 A 
ATOM      5  O   UNL     1       0.057  -2.112   0.658  0.00  0.00    -0.454 OA
ATOM      6  C   UNL     1       0.039  -0.831   1.091  0.00  0.00    +0.193 A 
ATOM      7  C   UNL     1       0.076  -3.327  -1.599  0.00  0.00    +0.081 C 
ATOM      8  C   UNL     1      -0.440  -2.905  -2.978  0.00  0.00    -0.023 C 
ATOM      9  C   UNL     1       0.330  -1.685  -3.493  0.00  0.00    +0.064 C 
ATOM     10  C   UNL     1       0.040  -0.513  -2.567  0.00  0.00    +0.070 C 
ATOM     11  N   UNL     1      -0.188   0.685  -3.010  0.00  0.00    -0.185 NA
ATOM     12  C   UNL     1      -0.262  -4.065  -3.959  0.00  0.00    +0.011 C 
ATOM     13  C   UNL     1      -1.926  -2.557  -2.874  0.00  0.00    +0.011 C 
ENDROOT
BRANCH   6  14
ATOM     14  C   UNL     1       0.036  -0.400   2.493  0.00  0.00    +0.284 C 
ATOM     15  O   UNL     1       0.016   0.786   2.765  0.00  0.00    -0.266 OA
ATOM     16  N   UNL     1       0.055  -1.318   3.480  0.00  0.00    -0.278 N 
ATOM     17  H   UNL     1      -0.010  -2.261   3.266  0.00  0.00    +0.155 HD
BRANCH  16  18
ATOM     18  C   UNL     1       0.168  -0.909   4.813  0.00  0.00    +0.054 A 
ATOM     19  C   UNL     1       0.761   0.309   5.119  0.00  0.00    +0.025 A 
ATOM     20  C   UNL     1       0.872   0.711   6.436  0.00  0.00    +0.003 A 
ATOM     21  C   UNL     1       0.393  -0.098   7.450  0.00  0.00    +0.021 A 
ATOM     22  C   UNL     1      -0.199  -1.312   7.150  0.00  0.00    +0.061 A 
ATOM     23  C   UNL     1      -0.317  -1.718   5.833  0.00  0.00    +0.080 A 
ATOM     24 CL   UNL     1      -1.065  -3.238   5.455  0.00  0.00    -0.080 Cl
ATOM     25 CL   UNL     1      -0.798  -2.325   8.427  0.00  0.00    -0.082 Cl
ENDBRANCH  16  18
ENDBRANCH   6  14
BRANCH  11  26
ATOM     26  N   UNL     1      -0.175   0.936  -4.388  0.00  0.00    -0.218 N 
ATOM     27  H   UNL     1       0.006   0.215  -5.011  0.00  0.00    +0.176 HD
BRANCH  26  28
ATOM     28  C   UNL     1      -0.412   2.181  -4.848  0.00  0.00    +0.147 C 
ATOM     29  S   UNL     1      -0.396   2.488  -6.532  0.00  0.00    -0.017 S 
BRANCH  28  30
ATOM     30  N   UNL     1      -0.663   3.183  -3.983  0.00  0.00    -0.339 N 
ATOM     31  H   UNL     1      -0.673   3.009  -3.029  0.00  0.00    +0.144 HD
ATOM     32  H   UNL     1      -0.834   4.078  -4.314  0.00  0.00    +0.144 HD
ENDBRANCH  28  30
ENDBRANCH  26  28
ENDBRANCH  11  26
TORSDOF 5
