REMARK  Name = ZINC62369634
REMARK  6 active torsions:
REMARK  status: ('A' for Active; 'I' for Inactive)
REMARK    1  A    between atoms: C_1  and  S_2
REMARK    2  A    between atoms: S_2  and  N_5
REMARK    3  A    between atoms: C_12  and  N_14
REMARK    4  A    between atoms: N_14  and  S_15
REMARK    5  A    between atoms: S_15  and  N_18
REMARK    6  A    between atoms: N_18  and  C_19
REMARK                            x       y       z     vdW  Elec       q    Type
REMARK                         _______ _______ _______ _____ _____    ______ ____
ROOT
ATOM      1  N   UNL     1       0.795  -0.411  -1.394  0.00  0.00    -0.207 N 
ATOM      2  C   UNL     1       0.152  -0.623  -2.693  0.00  0.00    +0.136 C 
ATOM      3  C   UNL     1       1.297  -0.977  -3.657  0.00  0.00    +0.058 C 
ATOM      4  C   UNL     1       2.542  -0.936  -2.800  0.00  0.00    -0.021 A 
ATOM      5  C   UNL     1       2.177  -0.598  -1.506  0.00  0.00    +0.054 A 
ATOM      6  C   UNL     1       3.165  -0.491  -0.526  0.00  0.00    +0.027 A 
ATOM      7  C   UNL     1       4.488  -0.717  -0.842  0.00  0.00    +0.026 A 
ATOM      8  C   UNL     1       4.847  -1.052  -2.141  0.00  0.00    +0.049 A 
ATOM      9  C   UNL     1       3.867  -1.168  -3.117  0.00  0.00    +0.030 A 
ENDROOT
BRANCH   1  11
ATOM     10  C   UNL     1      -0.022   1.810   0.012  0.00  0.00    +0.218 C 
ATOM     11  S   UNL     1       0.002  -0.004   0.002  0.00  0.00    +0.043 S 
ATOM     12  O   UNL     1       0.835  -0.488   1.046  0.00  0.00    -0.155 OA
ATOM     13  O   UNL     1      -1.315  -0.510  -0.168  0.00  0.00    -0.155 OA
ENDBRANCH   1  11
BRANCH   8  14
ATOM     14  N   UNL     1       6.190  -1.281  -2.462  0.00  0.00    -0.207 N 
ATOM     15  H   UNL     1       6.569  -0.893  -3.267  0.00  0.00    +0.175 HD
BRANCH  14  16
ATOM     16  S   UNL     1       7.132  -2.212  -1.469  0.00  0.00    +0.109 S 
ATOM     17  O   UNL     1       8.417  -2.278  -2.072  0.00  0.00    -0.138 OA
ATOM     18  O   UNL     1       6.934  -1.727  -0.149  0.00  0.00    -0.138 OA
BRANCH  16  19
ATOM     19  N   UNL     1       6.513  -3.748  -1.506  0.00  0.00    -0.174 NA
ATOM     20  H   UNL     1       6.131  -4.136  -0.704  0.00  0.00    +0.150 HD
BRANCH  19  21
ATOM     21  C   UNL     1       6.543  -4.520  -2.751  0.00  0.00    +0.078 C 
ATOM     22  C   UNL     1       5.179  -4.422  -3.466  0.00  0.00    +0.020 C 
ATOM     23  C   UNL     1       4.968  -5.830  -4.075  0.00  0.00    +0.002 C 
ATOM     24  C   UNL     1       5.539  -6.766  -2.981  0.00  0.00    +0.002 C 
ATOM     25  C   UNL     1       6.772  -6.010  -2.443  0.00  0.00    +0.020 C 
ENDBRANCH  19  21
ENDBRANCH  16  19
ENDBRANCH  14  16
ENDBRANCH   8  14
TORSDOF 5
