REMARK  Name = ZINC67390126
REMARK  10 active torsions:
REMARK  status: ('A' for Active; 'I' for Inactive)
REMARK    1  A    between atoms: C_1  and  C_2
REMARK    2  A    between atoms: N_8  and  C_9
REMARK    3  A    between atoms: C_9  and  C_10
REMARK    4  A    between atoms: C_10  and  C_11
REMARK    5  A    between atoms: C_11  and  C_12
REMARK    6  A    between atoms: C_12  and  N_13
REMARK    7  A    between atoms: N_16  and  N_17
REMARK    8  A    between atoms: C_18  and  C_20
REMARK    9  A    between atoms: C_20  and  C_21
REMARK   10  A    between atoms: C_21  and  C_22
REMARK                            x       y       z     vdW  Elec       q    Type
REMARK                         _______ _______ _______ _____ _____    ______ ____
ROOT
ATOM      1  N   UNL     1       0.376   0.344   7.323  0.00  0.00    -0.298 N 
ATOM      2  C   UNL     1       0.917   0.114   8.536  0.00  0.00    +0.316 C 
ATOM      3  O   UNL     1       1.937  -0.539   8.632  0.00  0.00    -0.251 OA
ATOM      4  N   UNL     1       0.326   0.609   9.642  0.00  0.00    -0.218 N 
ATOM      5  H   UNL     1      -0.439   0.866   7.246  0.00  0.00    +0.150 HD
ATOM      6  H   UNL     1       0.716   0.444  10.515  0.00  0.00    +0.174 HD
ENDROOT
BRANCH   4   7
ATOM      7  N   UNL     1      -0.850   1.363   9.531  0.00  0.00    -0.233 N 
ATOM      8  C   UNL     1      -1.440   1.858  10.637  0.00  0.00    +0.229 C 
ATOM      9  O   UNL     1      -0.953   1.651  11.728  0.00  0.00    -0.274 OA
ATOM     10  H   UNL     1      -1.239   1.528   8.658  0.00  0.00    +0.173 HD
BRANCH   8  11
ATOM     11  C   UNL     1      -2.705   2.668  10.517  0.00  0.00    +0.097 C 
BRANCH  11  12
ATOM     12  C   UNL     1      -3.163   3.106  11.910  0.00  0.00    +0.013 C 
BRANCH  12  13
ATOM     13  C   UNL     1      -4.448   3.929  11.788  0.00  0.00    -0.011 C 
ATOM     14  C   UNL     1      -4.153   5.226  11.033  0.00  0.00    +0.003 C 
ATOM     15  C   UNL     1      -5.437   6.049  10.911  0.00  0.00    +0.000 C 
ATOM     16  C   UNL     1      -5.964   6.381  12.309  0.00  0.00    +0.000 C 
ATOM     17  C   UNL     1      -6.258   5.084  13.064  0.00  0.00    +0.000 C 
ATOM     18  C   UNL     1      -4.974   4.261  13.186  0.00  0.00    +0.003 C 
ENDBRANCH  12  13
ENDBRANCH  11  12
ENDBRANCH   8  11
ENDBRANCH   4   7
BRANCH   1  19
ATOM     19  C   UNL     1       1.017  -0.194   6.121  0.00  0.00    +0.106 C 
BRANCH  19  20
ATOM     20  C   UNL     1       0.207   0.209   4.887  0.00  0.00    +0.017 C 
BRANCH  20  21
ATOM     21  C   UNL     1       0.877  -0.353   3.631  0.00  0.00    -0.017 C 
BRANCH  21  22
ATOM     22  C   UNL     1       0.067   0.050   2.397  0.00  0.00    -0.078 C 
BRANCH  22  29
ATOM     23  C   UNL     1      -0.019   1.526   0.010  0.00  0.00    -0.013 C 
ATOM     24  C   UNL     1       0.002  -0.004   0.002  0.00  0.00    -0.072 C 
ATOM     25  C   UNL     1       0.717  -0.497  -1.258  0.00  0.00    -0.016 C 
ATOM     26  C   UNL     1       0.735  -2.028  -1.262  0.00  0.00    -0.003 C 
ATOM     27  C   UNL     1       1.410  -2.524   0.020  0.00  0.00    -0.019 C 
ATOM     28  C   UNL     1       0.669  -1.956   1.232  0.00  0.00    -0.078 C 
ATOM     29  N   UNL     1       0.711  -0.490   1.192  0.00  0.00    +0.381 N 
ATOM     30  H   UNL     1       1.671  -0.182   1.159  0.00  0.00    -0.081 HD
ENDBRANCH  22  29
ENDBRANCH  21  22
ENDBRANCH  20  21
ENDBRANCH  19  20
ENDBRANCH   1  19
TORSDOF 9
