REMARK  Name = ZINC10469675
REMARK  7 active torsions:
REMARK  status: ('A' for Active; 'I' for Inactive)
REMARK    1  A    between atoms: C_1  and  C_2
REMARK    2  A    between atoms: C_3  and  C_7
REMARK    3  A    between atoms: C_10  and  S_13
REMARK    4  A    between atoms: N_11  and  N_12
REMARK    5  A    between atoms: S_13  and  C_14
REMARK    6  A    between atoms: C_14  and  C_16
REMARK    7  A    between atoms: C_14  and  C_22
REMARK                            x       y       z     vdW  Elec       q    Type
REMARK                         _______ _______ _______ _____ _____    ______ ____
ROOT
ATOM      1  C   UNL     1      -2.708   2.830  -4.475  0.00  0.00    +0.185 A 
ATOM      2  N   UNL     1      -2.637   3.547  -3.378  0.00  0.00    -0.127 NA
ATOM      3  N   UNL     1      -2.606   2.776  -2.350  0.00  0.00    -0.121 NA
ATOM      4  C   UNL     1      -2.645   1.519  -2.728  0.00  0.00    +0.210 A 
ATOM      5  N   UNL     1      -2.715   1.509  -4.094  0.00  0.00    -0.224 N 
ENDROOT
BRANCH   1   8
ATOM      6  C   UNL     1      -2.703   5.844  -5.338  0.00  0.00    +0.087 C 
ATOM      7  C   UNL     1      -2.768   4.648  -6.252  0.00  0.00    +0.112 A 
ATOM      8  C   UNL     1      -2.769   3.345  -5.860  0.00  0.00    +0.061 A 
ATOM      9  C   UNL     1      -2.849   2.558  -7.097  0.00  0.00    +0.053 A 
ATOM     10  C   UNL     1      -2.883   3.448  -8.102  0.00  0.00    +0.196 A 
ATOM     11  O   UNL     1      -2.832   4.687  -7.591  0.00  0.00    -0.467 OA
ENDBRANCH   1   8
BRANCH   5  12
ATOM     12  N   UNL     1      -2.779   0.414  -4.909  0.00  0.00    -0.295 N 
ATOM     13  H   UNL     1      -3.736   0.144  -5.076  0.00  0.00    +0.163 HD
ATOM     14  H   UNL     1      -2.293   0.581  -5.777  0.00  0.00    +0.163 HD
ENDBRANCH   5  12
BRANCH   4  15
ATOM     15  S   UNL     1      -2.620   0.109  -1.672  0.00  0.00    -0.067 S 
BRANCH  15  16
ATOM     16  C   UNL     1      -2.521   0.926  -0.060  0.00  0.00    +0.170 C 
BRANCH  16  17
ATOM     17  C   UNL     1      -2.610  -0.108   1.033  0.00  0.00    -0.025 A 
ATOM     18  C   UNL     1      -1.638  -1.085   1.141  0.00  0.00    +0.005 A 
ATOM     19  C   UNL     1      -1.718  -2.031   2.147  0.00  0.00    +0.000 A 
ATOM     20  C   UNL     1      -2.774  -2.004   3.038  0.00  0.00    +0.000 A 
ATOM     21  C   UNL     1      -3.748  -1.030   2.927  0.00  0.00    +0.000 A 
ATOM     22  C   UNL     1      -3.666  -0.082   1.925  0.00  0.00    +0.005 A 
ENDBRANCH  16  17
BRANCH  16  23
ATOM     23  C   UNL     1      -1.211   1.662   0.051  0.00  0.00    +0.228 C 
ATOM     24  O   UNL     1      -1.140   2.678   0.710  0.00  0.00    -0.274 OA
ATOM     25  N   UNL     1      -0.118   1.192  -0.582  0.00  0.00    -0.328 N 
ATOM     26  H   UNL     1      -0.156   0.343  -1.049  0.00  0.00    +0.145 HD
ATOM     27  H   UNL     1       0.706   1.705  -0.574  0.00  0.00    +0.145 HD
ENDBRANCH  16  23
ENDBRANCH  15  16
ENDBRANCH   4  15
TORSDOF 6
