REMARK  Name = ZINC66938966
REMARK  11 active torsions:
REMARK  status: ('A' for Active; 'I' for Inactive)
REMARK    1  A    between atoms: C_1  and  C_2
REMARK    2  A    between atoms: C_2  and  C_3
REMARK    3  A    between atoms: C_2  and  C_4
REMARK    4  A    between atoms: C_2  and  C_5
REMARK    5  A    between atoms: C_8  and  O_11
REMARK    6  A    between atoms: O_11  and  C_12
REMARK    7  A    between atoms: C_12  and  C_13
REMARK    8  A    between atoms: N_15  and  N_16
REMARK    9  A    between atoms: N_16  and  C_17
REMARK   10  A    between atoms: C_17  and  C_19
REMARK   11  A    between atoms: C_17  and  C_26
REMARK                            x       y       z     vdW  Elec       q    Type
REMARK                         _______ _______ _______ _____ _____    ______ ____
ROOT
ATOM      1  C   UNL     1       4.936  -0.823  -5.726  0.00  0.00    +0.264 C 
ATOM      2  O   UNL     1       4.045  -1.602  -5.987  0.00  0.00    -0.271 OA
ATOM      3  N   UNL     1       6.100  -0.879  -6.402  0.00  0.00    -0.247 N 
ATOM      4  H   UNL     1       6.813  -0.255  -6.194  0.00  0.00    +0.169 HD
ENDROOT
BRANCH   3   5
ATOM      5  N   UNL     1       6.276  -1.814  -7.383  0.00  0.00    -0.224 NA
ATOM      6  H   UNL     1       5.613  -1.681  -8.132  0.00  0.00    +0.145 HD
BRANCH   5   7
ATOM      7  C   UNL     1       7.654  -1.793  -7.890  0.00  0.00    +0.188 C 
BRANCH   7   8
ATOM      8  C   UNL     1       8.589  -2.304  -6.824  0.00  0.00    -0.020 A 
ATOM      9  C   UNL     1       9.319  -3.458  -7.041  0.00  0.00    +0.008 A 
ATOM     10  C   UNL     1      10.177  -3.928  -6.065  0.00  0.00    +0.038 A 
ATOM     11  C   UNL     1      10.306  -3.242  -4.869  0.00  0.00    +0.123 A 
ATOM     12  C   UNL     1       9.575  -2.087  -4.653  0.00  0.00    +0.038 A 
ATOM     13  C   UNL     1       8.721  -1.616  -5.633  0.00  0.00    +0.008 A 
ATOM     14  F   UNL     1      11.144  -3.701  -3.914  0.00  0.00    -0.205 F 
ENDBRANCH   7   8
BRANCH   7  15
ATOM     15  C   UNL     1       8.034  -0.381  -8.255  0.00  0.00    +0.234 C 
ATOM     16  O   UNL     1       7.234   0.519  -8.108  0.00  0.00    -0.274 OA
ATOM     17  N   UNL     1       9.261  -0.118  -8.745  0.00  0.00    -0.328 N 
ATOM     18  H   UNL     1       9.900  -0.838  -8.863  0.00  0.00    +0.145 HD
ATOM     19  H   UNL     1       9.505   0.791  -8.981  0.00  0.00    +0.145 HD
ENDBRANCH   7  15
ENDBRANCH   5   7
ENDBRANCH   3   5
BRANCH   1  20
ATOM     20  C   UNL     1       4.742   0.209  -4.644  0.00  0.00    +0.325 C 
BRANCH  20  21
ATOM     21  O   UNL     1       3.438   0.067  -4.079  0.00  0.00    -0.483 OA
BRANCH  21  25
ATOM     22  C   UNL     1       2.413   2.678  -1.054  0.00  0.00    -0.042 A 
ATOM     23  C   UNL     1       1.508   1.722  -1.476  0.00  0.00    +0.008 A 
ATOM     24  C   UNL     1       1.849   0.847  -2.489  0.00  0.00    +0.046 A 
ATOM     25  C   UNL     1       3.100   0.928  -3.083  0.00  0.00    +0.121 A 
ATOM     26  C   UNL     1       4.006   1.888  -2.657  0.00  0.00    +0.046 A 
ATOM     27  C   UNL     1       3.659   2.765  -1.648  0.00  0.00    +0.008 A 
BRANCH  22  29
ATOM     28  C   UNL     1       2.102   5.068  -0.471  0.00  0.00    +0.015 C 
ATOM     29  C   UNL     1       2.039   3.632   0.052  0.00  0.00    -0.013 C 
ATOM     30  C   UNL     1       3.017   3.470   1.217  0.00  0.00    +0.015 C 
ATOM     31  C   UNL     1       0.619   3.325   0.531  0.00  0.00    +0.015 C 
ENDBRANCH  22  29
ENDBRANCH  21  25
ENDBRANCH  20  21
ENDBRANCH   1  20
TORSDOF 8
