REMARK  Name = ZINC67240711
REMARK  5 active torsions:
REMARK  status: ('A' for Active; 'I' for Inactive)
REMARK    1  A    between atoms: C_4  and  C_7
REMARK    2  A    between atoms: C_13  and  C_15
REMARK    3  A    between atoms: N_17  and  C_18
REMARK    4  A    between atoms: C_21  and  C_24
REMARK    5  A    between atoms: C_24  and  N_25
REMARK                            x       y       z     vdW  Elec       q    Type
REMARK                         _______ _______ _______ _____ _____    ______ ____
ROOT
ATOM      1  C   UNL     1       5.812  -2.436  -1.053  0.00  0.00    +0.239 C 
ATOM      2  O   UNL     1       5.398  -1.659  -1.888  0.00  0.00    -0.273 OA
ATOM      3  N   UNL     1       7.027  -2.999  -1.200  0.00  0.00    -0.284 N 
ATOM      4  H   UNL     1       7.331  -3.670  -0.569  0.00  0.00    +0.155 HD
ENDROOT
BRANCH   1  11
ATOM      5  C   UNL     1       3.697  -0.686  -0.030  0.00  0.00    +0.248 C 
ATOM      6  O   UNL     1       4.737  -0.067  -0.139  0.00  0.00    -0.270 OA
ATOM      7  N   UNL     1       3.719  -2.031   0.056  0.00  0.00    -0.276 N 
ATOM      8  C   UNL     1       2.475  -2.832   0.054  0.00  0.00    +0.178 C 
ATOM      9  S   UNL     1       3.107  -4.474  -0.508  0.00  0.00    -0.139 S 
ATOM     10  C   UNL     1       4.796  -4.308   0.222  0.00  0.00    +0.102 C 
ATOM     11  C   UNL     1       4.967  -2.771   0.149  0.00  0.00    +0.173 C 
BRANCH   5  15
ATOM     12  C   UNL     1      -0.009   1.387   0.081  0.00  0.00    +0.000 A 
ATOM     13  C   UNL     1       1.080   1.956  -0.556  0.00  0.00    +0.001 A 
ATOM     14  C   UNL     1       2.286   1.288  -0.595  0.00  0.00    +0.013 A 
ATOM     15  C   UNL     1       2.407   0.035   0.009  0.00  0.00    +0.037 A 
ATOM     16  C   UNL     1       1.305  -0.533   0.649  0.00  0.00    +0.013 A 
ATOM     17  C   UNL     1       0.104   0.146   0.681  0.00  0.00    +0.001 A 
ENDBRANCH   5  15
ENDBRANCH   1  11
BRANCH   3  18
ATOM     18  C   UNL     1       7.852  -2.615  -2.263  0.00  0.00    +0.033 A 
ATOM     19  C   UNL     1       9.229  -2.565  -2.093  0.00  0.00    +0.023 A 
ATOM     20  C   UNL     1      10.041  -2.186  -3.144  0.00  0.00    +0.007 A 
ATOM     21  C   UNL     1       9.483  -1.857  -4.366  0.00  0.00    -0.030 A 
ATOM     22  C   UNL     1       8.112  -1.906  -4.539  0.00  0.00    +0.007 A 
ATOM     23  C   UNL     1       7.296  -2.290  -3.493  0.00  0.00    +0.023 A 
BRANCH  21  24
ATOM     24  C   UNL     1      10.371  -1.444  -5.511  0.00  0.00    +0.141 C 
BRANCH  24  25
ATOM     25  N   UNL     1      10.757  -2.628  -6.282  0.00  0.00    -0.295 N 
ATOM     26  C   UNL     1      11.555  -2.500  -7.360  0.00  0.00    +0.297 C 
ATOM     27  O   UNL     1      11.955  -1.402  -7.693  0.00  0.00    -0.253 OA
ATOM     28  N   UNL     1      11.910  -3.590  -8.069  0.00  0.00    -0.313 N 
ATOM     29  H   UNL     1      10.437  -3.505  -6.016  0.00  0.00    +0.151 HD
ATOM     30  H   UNL     1      11.591  -4.467  -7.804  0.00  0.00    +0.146 HD
ATOM     31  H   UNL     1      12.485  -3.498  -8.845  0.00  0.00    +0.146 HD
ENDBRANCH  24  25
ENDBRANCH  21  24
ENDBRANCH   3  18
TORSDOF 5
