REMARK  Name = ZINC13346629
REMARK  8 active torsions:
REMARK  status: ('A' for Active; 'I' for Inactive)
REMARK    1  A    between atoms: C_4  and  O_23
REMARK    2  A    between atoms: C_5  and  C_7
REMARK    3  A    between atoms: N_9  and  N_10
REMARK    4  A    between atoms: N_10  and  S_11
REMARK    5  A    between atoms: S_11  and  C_14
REMARK    6  A    between atoms: C_18  and  C_20
REMARK    7  A    between atoms: O_23  and  C_24
REMARK    8  A    between atoms: C_24  and  C_25
REMARK                            x       y       z     vdW  Elec       q    Type
REMARK                         _______ _______ _______ _____ _____    ______ ____
ROOT
ATOM      1  C   UNL     1      -2.595   2.808   4.024  0.00  0.00    +0.262 C 
ATOM      2  O   UNL     1      -1.543   2.221   3.863  0.00  0.00    -0.269 OA
ATOM      3  N   UNL     1      -3.045   3.057   5.269  0.00  0.00    -0.228 N 
ATOM      4  H   UNL     1      -3.885   3.526   5.397  0.00  0.00    +0.171 HD
ENDROOT
BRANCH   1   9
ATOM      5  C   UNL     1      -5.315   4.336   1.938  0.00  0.00    +0.001 A 
ATOM      6  C   UNL     1      -4.853   4.081   0.657  0.00  0.00    +0.004 A 
ATOM      7  C   UNL     1      -3.657   3.419   0.465  0.00  0.00    +0.046 A 
ATOM      8  C   UNL     1      -2.914   2.994   1.557  0.00  0.00    +0.133 A 
ATOM      9  C   UNL     1      -3.379   3.250   2.854  0.00  0.00    +0.080 A 
ATOM     10  C   UNL     1      -4.588   3.926   3.034  0.00  0.00    +0.017 A 
BRANCH   8  11
ATOM     11  O   UNL     1      -1.741   2.339   1.370  0.00  0.00    -0.487 OA
BRANCH  11  12
ATOM     12  C   UNL     1      -1.332   2.114   0.020  0.00  0.00    +0.264 C 
BRANCH  12  13
ATOM     13  C   UNL     1      -0.017   1.378   0.010  0.00  0.00    -0.010 A 
ATOM     14  C   UNL     1       1.171   2.086   0.002  0.00  0.00    +0.008 A 
ATOM     15  C   UNL     1       2.377   1.412  -0.013  0.00  0.00    +0.020 A 
ATOM     16  C   UNL     1       2.397   0.029  -0.021  0.00  0.00    +0.041 A 
ATOM     17  C   UNL     1       1.208  -0.679  -0.013  0.00  0.00    +0.020 A 
ATOM     18  C   UNL     1       0.002  -0.004   0.002  0.00  0.00    +0.008 A 
ATOM     19 CL   UNL     1       3.912  -0.818  -0.039  0.00  0.00    -0.084 Cl
ENDBRANCH  12  13
ENDBRANCH  11  12
ENDBRANCH   8  11
ENDBRANCH   1   9
BRANCH   3  20
ATOM     20  N   UNL     1      -2.301   2.637   6.380  0.00  0.00    -0.108 NA
ATOM     21  H   UNL     1      -2.045   1.706   6.469  0.00  0.00    +0.172 HD
BRANCH  20  22
ATOM     22  S   UNL     1      -1.857   3.732   7.541  0.00  0.00    +0.074 S 
ATOM     23  O   UNL     1      -1.250   2.989   8.589  0.00  0.00    -0.152 OA
ATOM     24  O   UNL     1      -1.185   4.788   6.867  0.00  0.00    -0.152 OA
BRANCH  22  25
ATOM     25  C   UNL     1      -3.339   4.419   8.202  0.00  0.00    +0.108 A 
ATOM     26  C   UNL     1      -3.884   5.558   7.636  0.00  0.00    +0.030 A 
ATOM     27  C   UNL     1      -5.049   6.102   8.145  0.00  0.00    +0.023 A 
ATOM     28  C   UNL     1      -5.671   5.516   9.231  0.00  0.00    +0.055 A 
ATOM     29  C   UNL     1      -5.122   4.369   9.810  0.00  0.00    +0.083 A 
ATOM     30  C   UNL     1      -3.948   3.824   9.286  0.00  0.00    +0.045 A 
ATOM     31 CL   UNL     1      -7.130   6.203   9.873  0.00  0.00    -0.083 Cl
BRANCH  29  32
ATOM     32  C   UNL     1      -5.780   3.737  10.971  0.00  0.00    +0.388 C 
ATOM     33  O   UNL     1      -6.801   4.214  11.424  0.00  0.00    -0.241 OA
ATOM     34  O   UNL     1      -5.249   2.631  11.527  0.00  0.00    -0.241 OA
ENDBRANCH  29  32
ENDBRANCH  22  25
ENDBRANCH  20  22
ENDBRANCH   3  20
TORSDOF 8
