REMARK  Name = ZINC67581267
REMARK  10 active torsions:
REMARK  status: ('A' for Active; 'I' for Inactive)
REMARK    1  A    between atoms: C_1  and  C_2
REMARK    2  A    between atoms: C_2  and  C_4
REMARK    3  A    between atoms: C_2  and  N_11
REMARK    4  A    between atoms: C_8  and  O_10
REMARK    5  A    between atoms: N_11  and  C_12
REMARK    6  A    between atoms: N_15  and  C_16
REMARK    7  A    between atoms: C_16  and  C_17
REMARK    8  A    between atoms: C_17  and  C_18
REMARK    9  A    between atoms: C_18  and  C_19
REMARK   10  A    between atoms: C_18  and  C_20
REMARK                            x       y       z     vdW  Elec       q    Type
REMARK                         _______ _______ _______ _____ _____    ______ ____
ROOT
ATOM      1  N   UNL     1      -1.449  -0.477  -0.098  0.00  0.00    -0.282 N 
ATOM      2  C   UNL     1      -2.489   0.012   0.811  0.00  0.00    +0.134 C 
ATOM      3  C   UNL     1      -1.762  -1.361  -1.066  0.00  0.00    +0.302 C 
ATOM      4  O   UNL     1      -0.900  -1.767  -1.821  0.00  0.00    -0.253 OA
ATOM      5  N   UNL     1      -3.032  -1.794  -1.198  0.00  0.00    -0.299 N 
ATOM      6  H   UNL     1      -3.720  -1.470  -0.596  0.00  0.00    +0.150 HD
ENDROOT
BRANCH   1   8
ATOM      7  C   UNL     1      -0.045   1.523  -0.004  0.00  0.00    +0.033 C 
ATOM      8  C   UNL     1      -0.070  -0.006   0.045  0.00  0.00    +0.104 C 
BRANCH   8   9
ATOM      9  C   UNL     1       0.487  -0.475   1.365  0.00  0.00    -0.024 A 
ATOM     10  C   UNL     1       0.046  -1.664   1.917  0.00  0.00    +0.006 A 
ATOM     11  C   UNL     1       0.555  -2.097   3.127  0.00  0.00    +0.004 A 
ATOM     12  C   UNL     1       1.505  -1.343   3.789  0.00  0.00    +0.045 A 
ATOM     13  C   UNL     1       1.948  -0.150   3.237  0.00  0.00    +0.117 A 
ATOM     14  C   UNL     1       1.441   0.280   2.019  0.00  0.00    +0.050 A 
BRANCH  13  15
ATOM     15  O   UNL     1       2.882   0.594   3.886  0.00  0.00    -0.507 OA
ATOM     16  H   UNL     1       3.794   0.375   3.649  0.00  0.00    +0.292 HD
ENDBRANCH  13  15
ENDBRANCH   8   9
ENDBRANCH   1   8
BRANCH   5  17
ATOM     17  C   UNL     1      -3.372  -2.755  -2.251  0.00  0.00    +0.106 C 
BRANCH  17  18
ATOM     18  C   UNL     1      -4.866  -3.079  -2.182  0.00  0.00    +0.022 C 
BRANCH  18  19
ATOM     19  C   UNL     1      -5.221  -4.082  -3.281  0.00  0.00    -0.016 C 
ATOM     20  C   UNL     1      -4.507  -5.408  -3.012  0.00  0.00    +0.007 C 
ATOM     21  C   UNL     1      -6.734  -4.311  -3.293  0.00  0.00    +0.007 C 
ENDBRANCH  18  19
ENDBRANCH  17  18
ENDBRANCH   5  17
TORSDOF 6
