REMARK  Name = ZINC02591035
REMARK  6 active torsions:
REMARK  status: ('A' for Active; 'I' for Inactive)
REMARK    1  A    between atoms: C_4  and  O_7
REMARK    2  A    between atoms: O_7  and  C_8
REMARK    3  A    between atoms: C_8  and  C_9
REMARK    4  A    between atoms: C_9  and  N_10
REMARK    5  A    between atoms: C_14  and  C_15
REMARK    6  A    between atoms: N_16  and  N_17
REMARK                            x       y       z     vdW  Elec       q    Type
REMARK                         _______ _______ _______ _____ _____    ______ ____
ROOT
ATOM      1  N   UNL     1       7.216   0.065  -0.066  0.00  0.00    -0.343 N 
ATOM      2  C   UNL     1       7.921   0.434  -1.175  0.00  0.00    +0.086 A 
ATOM      3  C   UNL     1       8.979   1.181  -0.789  0.00  0.00    +0.020 A 
ATOM      4  C   UNL     1       8.945   1.288   0.609  0.00  0.00    +0.029 A 
ATOM      5  C   UNL     1       7.836   0.592   1.043  0.00  0.00    +0.062 A 
ENDROOT
BRANCH   5   6
ATOM      6  C   UNL     1       7.400   0.439   2.432  0.00  0.00    +0.160 C 
ATOM      7  N   UNL     1       8.086   0.995   3.398  0.00  0.00    -0.153 NA
BRANCH   7   8
ATOM      8  N   UNL     1       7.702   0.860   4.622  0.00  0.00    -0.124 NA
ATOM      9  C   UNL     1       8.394   1.421   5.597  0.00  0.00    +0.193 A 
ATOM     10  N   UNL     1       8.151   1.400   6.946  0.00  0.00    -0.332 N 
ATOM     11  H   UNL     1       7.380   0.923   7.292  0.00  0.00    +0.168 HD
ATOM     12  C   UNL     1       9.007   2.054   7.815  0.00  0.00    +0.055 A 
ATOM     13  C   UNL     1       8.910   2.128   9.215  0.00  0.00    +0.027 A 
ATOM     14  C   UNL     1       9.838   2.824   9.951  0.00  0.00    +0.002 A 
ATOM     15  C   UNL     1      10.897   3.474   9.341  0.00  0.00    +0.001 A 
ATOM     16  C   UNL     1      11.018   3.419   7.963  0.00  0.00    +0.017 A 
ATOM     17  C   UNL     1      10.090   2.722   7.227  0.00  0.00    +0.039 A 
ATOM     18  S   UNL     1       9.878   2.407   5.491  0.00  0.00    -0.048 S 
ENDBRANCH   7   8
ENDBRANCH   5   6
BRANCH   1  19
ATOM     19  C   UNL     1       5.999  -0.750  -0.059  0.00  0.00    +0.163 C 
BRANCH  19  20
ATOM     20  C   UNL     1       4.772   0.164  -0.042  0.00  0.00    +0.250 C 
BRANCH  20  21
ATOM     21  O   UNL     1       3.586  -0.632  -0.035  0.00  0.00    -0.490 OA
BRANCH  21  25
ATOM     22  C   UNL     1      -0.017   1.378   0.010  0.00  0.00    +0.000 A 
ATOM     23  C   UNL     1       1.170   2.088   0.002  0.00  0.00    +0.004 A 
ATOM     24  C   UNL     1       2.377   1.417  -0.013  0.00  0.00    +0.045 A 
ATOM     25  C   UNL     1       2.399   0.030  -0.021  0.00  0.00    +0.121 A 
ATOM     26  C   UNL     1       1.207  -0.680  -0.013  0.00  0.00    +0.045 A 
ATOM     27  C   UNL     1       0.002  -0.004   0.002  0.00  0.00    +0.004 A 
ENDBRANCH  21  25
ENDBRANCH  20  21
ENDBRANCH  19  20
ENDBRANCH   1  19
TORSDOF 6
