REMARK  Name = ZINC60331120
REMARK  10 active torsions:
REMARK  status: ('A' for Active; 'I' for Inactive)
REMARK    1  A    between atoms: C_1  and  C_2
REMARK    2  A    between atoms: C_5  and  C_8
REMARK    3  A    between atoms: C_14  and  C_17
REMARK    4  A    between atoms: C_24  and  C_26
REMARK    5  A    between atoms: C_26  and  N_27
REMARK    6  A    between atoms: C_28  and  O_30
REMARK    7  A    between atoms: O_30  and  C_31
REMARK    8  A    between atoms: C_31  and  C_32
REMARK    9  A    between atoms: C_31  and  C_33
REMARK   10  A    between atoms: C_31  and  C_34
REMARK                            x       y       z     vdW  Elec       q    Type
REMARK                         _______ _______ _______ _____ _____    ______ ____
ROOT
ATOM      1  C   UNL     1      -1.218  -8.690   2.089  0.00  0.00    +0.220 C 
ATOM      2  O   UNL     1      -1.074  -9.164   3.196  0.00  0.00    -0.275 OA
ATOM      3  N   UNL     1      -0.852  -9.397   1.001  0.00  0.00    -0.297 N 
ATOM      4  C   UNL     1      -1.123  -8.886  -0.350  0.00  0.00    +0.108 C 
ATOM      5  C   UNL     1      -1.883  -9.956  -1.139  0.00  0.00    +0.019 C 
ATOM      6  C   UNL     1      -1.090 -11.265  -1.110  0.00  0.00    +0.003 C 
ATOM      7  C   UNL     1      -0.945 -11.743   0.337  0.00  0.00    +0.024 C 
ATOM      8  C   UNL     1      -0.169 -10.690   1.143  0.00  0.00    +0.093 C 
ENDROOT
BRANCH   1  15
ATOM      9  C   UNL     1      -1.168  -4.213   0.362  0.00  0.00    +0.247 C 
ATOM     10  O   UNL     1      -0.710  -4.683  -0.662  0.00  0.00    -0.270 OA
ATOM     11  N   UNL     1      -1.267  -4.977   1.468  0.00  0.00    -0.297 N 
ATOM     12  C   UNL     1      -1.935  -4.466   2.672  0.00  0.00    +0.108 C 
ATOM     13  C   UNL     1      -3.018  -5.463   3.096  0.00  0.00    +0.020 C 
ATOM     14  C   UNL     1      -2.392  -6.849   3.265  0.00  0.00    +0.016 C 
ATOM     15  C   UNL     1      -1.805  -7.311   1.929  0.00  0.00    +0.092 C 
ATOM     16  C   UNL     1      -0.713  -6.338   1.491  0.00  0.00    +0.120 C 
BRANCH   9  21
ATOM     17  C   UNL     1      -2.908   1.270   0.482  0.00  0.00    +0.044 C 
ATOM     18  C   UNL     1      -2.453  -0.166   0.451  0.00  0.00    -0.050 A 
ATOM     19  C   UNL     1      -1.811  -0.709   1.550  0.00  0.00    +0.004 A 
ATOM     20  C   UNL     1      -1.392  -2.023   1.527  0.00  0.00    +0.013 A 
ATOM     21  C   UNL     1      -1.615  -2.805   0.393  0.00  0.00    +0.037 A 
ATOM     22  C   UNL     1      -2.263  -2.250  -0.713  0.00  0.00    +0.013 A 
ATOM     23  C   UNL     1      -2.682  -0.937  -0.675  0.00  0.00    +0.004 A 
ENDBRANCH   9  21
ENDBRANCH   1  15
BRANCH   8  24
ATOM     24  C   UNL     1      -0.136 -11.093   2.619  0.00  0.00    +0.130 C 
BRANCH  24  25
ATOM     25  N   UNL     1       0.729 -10.170   3.357  0.00  0.00    -0.279 N 
ATOM     26  C   UNL     1       1.010 -10.402   4.655  0.00  0.00    +0.401 C 
ATOM     27  O   UNL     1       0.546 -11.377   5.212  0.00  0.00    -0.226 OA
ATOM     28  H   UNL     1       1.099  -9.391   2.913  0.00  0.00    +0.152 HD
BRANCH  26  29
ATOM     29  O   UNL     1       1.804  -9.554   5.334  0.00  0.00    -0.445 OA
BRANCH  29  30
ATOM     30  C   UNL     1       2.060  -9.861   6.706  0.00  0.00    +0.107 C 
ATOM     31  C   UNL     1       2.740 -11.229   6.804  0.00  0.00    +0.055 C 
ATOM     32  C   UNL     1       2.975  -8.793   7.306  0.00  0.00    +0.055 C 
ATOM     33  C   UNL     1       0.738  -9.893   7.476  0.00  0.00    +0.055 C 
ENDBRANCH  29  30
ENDBRANCH  26  29
ENDBRANCH  24  25
ENDBRANCH   8  24
TORSDOF 6
