REMARK  Name = ZINC12314075
REMARK  8 active torsions:
REMARK  status: ('A' for Active; 'I' for Inactive)
REMARK    1  A    between atoms: C_1  and  C_2
REMARK    2  A    between atoms: C_6  and  C_8
REMARK    3  A    between atoms: C_8  and  C_9
REMARK    4  A    between atoms: C_9  and  N_10
REMARK    5  A    between atoms: C_11  and  C_13
REMARK    6  A    between atoms: C_13  and  C_14
REMARK    7  A    between atoms: C_21  and  C_22
REMARK    8  A    between atoms: C_21  and  N_58
REMARK                            x       y       z     vdW  Elec       q    Type
REMARK                         _______ _______ _______ _____ _____    ______ ____
ROOT
ATOM      1  C   UNL     1       3.165   2.481   0.452  0.00  0.00    +0.089 C 
ENDROOT
BRANCH   1   2
ATOM      2  C   UNL     1       1.854   1.871   0.952  0.00  0.00    +0.029 C 
ATOM      3  C   UNL     1       0.796   2.028  -0.103  0.00  0.00    +0.200 C 
ATOM      4  O   UNL     1       1.092   1.811  -1.259  0.00  0.00    -0.278 OA
ATOM      5  N   UNL     1      -0.458   2.397   0.179  0.00  0.00    -0.318 N 
ATOM      6  C   UNL     1      -0.906   2.716   1.531  0.00  0.00    +0.085 C 
ATOM      7  C   UNL     1       0.075   2.145   2.557  0.00  0.00    -0.058 C 
ATOM      8  H   UNL     1      -1.098   2.456  -0.547  0.00  0.00    +0.149 HD
ATOM      9  N   UNL     1       1.436   2.577   2.178  0.00  0.00    +0.392 N 
ATOM     10  H   UNL     1       1.429   3.587   1.997  0.00  0.00    -0.080 HD
BRANCH   9  11
ATOM     11  C   UNL     1       2.385   2.290   3.277  0.00  0.00    -0.021 C 
BRANCH  11  12
ATOM     12  C   UNL     1       2.471   0.805   3.518  0.00  0.00    +0.025 A 
ATOM     13  C   UNL     1       3.481   0.073   2.921  0.00  0.00    +0.021 A 
ATOM     14  C   UNL     1       3.551  -1.292   3.150  0.00  0.00    +0.003 A 
ATOM     15  C   UNL     1       2.600  -1.873   3.975  0.00  0.00    +0.020 A 
ATOM     16  C   UNL     1       1.620  -1.078   4.537  0.00  0.00    +0.111 A 
ATOM     17  N   UNL     1       1.586   0.219   4.301  0.00  0.00    -0.262 NA
ENDBRANCH  11  12
ENDBRANCH   9  11
ENDBRANCH   1   2
BRANCH   1  19
ATOM     18  N   UNL     1       3.962   4.682  -0.346  0.00  0.00    -0.315 N 
ATOM     19  C   UNL     1       2.974   3.957   0.215  0.00  0.00    +0.212 C 
ATOM     20  O   UNL     1       1.932   4.491   0.529  0.00  0.00    -0.276 OA
ATOM     21  H   UNL     1       4.795   4.255  -0.597  0.00  0.00    +0.149 HD
BRANCH  18  22
ATOM     22  C   UNL     1       3.776   6.117  -0.576  0.00  0.00    +0.112 C 
BRANCH  22  23
ATOM     23  C   UNL     1       5.037   6.698  -1.219  0.00  0.00    +0.095 C 
BRANCH  23  29
ATOM     24  C   UNL     1       3.570  10.322  -4.158  0.00  0.00    +0.066 C 
ATOM     25  C   UNL     1       4.154   9.866  -2.845  0.00  0.00    +0.045 A 
ATOM     26  C   UNL     1       4.508  10.790  -1.876  0.00  0.00    -0.005 A 
ATOM     27  C   UNL     1       5.041  10.329  -0.685  0.00  0.00    +0.048 A 
ATOM     28  N   UNL     1       5.194   9.025  -0.512  0.00  0.00    -0.237 NA
ATOM     29  C   UNL     1       4.846   8.174  -1.456  0.00  0.00    +0.131 A 
ATOM     30  N   UNL     1       4.340   8.578  -2.604  0.00  0.00    -0.237 NA
ATOM     31  C   UNL     1       5.353  11.498   0.221  0.00  0.00    +0.056 C 
ATOM     32  C   UNL     1       5.362  12.735  -0.703  0.00  0.00    +0.011 C 
ATOM     33  C   UNL     1       4.426  12.299  -1.852  0.00  0.00    +0.039 C 
ENDBRANCH  23  29
ENDBRANCH  22  23
ENDBRANCH  18  22
ENDBRANCH   1  19
TORSDOF 7
