REMARK  Name = ZINC04992377
REMARK  4 active torsions:
REMARK  status: ('A' for Active; 'I' for Inactive)
REMARK    1  A    between atoms: C_1  and  C_2
REMARK    2  A    between atoms: C_7  and  N_8
REMARK    3  A    between atoms: C_9  and  N_19
REMARK    4  A    between atoms: N_19  and  C_20
REMARK                            x       y       z     vdW  Elec       q    Type
REMARK                         _______ _______ _______ _____ _____    ______ ____
ROOT
ATOM      1  N   UNL     1       0.997  -2.375   0.080  0.00  0.00    -0.244 N 
ATOM      2  C   UNL     1       1.239  -3.138   1.309  0.00  0.00    +0.198 C 
ATOM      3  C   UNL     1       1.389  -4.579   0.889  0.00  0.00    +0.003 A 
ATOM      4  C   UNL     1       1.626  -5.743   1.583  0.00  0.00    +0.008 A 
ATOM      5  C   UNL     1       1.715  -6.947   0.904  0.00  0.00    +0.000 A 
ATOM      6  C   UNL     1       1.565  -6.983  -0.471  0.00  0.00    +0.001 A 
ATOM      7  C   UNL     1       1.327  -5.822  -1.176  0.00  0.00    +0.013 A 
ATOM      8  C   UNL     1       1.237  -4.604  -0.499  0.00  0.00    +0.044 A 
ATOM      9  C   UNL     1       0.991  -3.225  -0.962  0.00  0.00    +0.253 C 
ATOM     10  O   UNL     1       0.811  -2.903  -2.120  0.00  0.00    -0.270 OA
ENDROOT
BRANCH   1  17
ATOM     11  C   UNL     1      -1.663  -1.386   0.282  0.00  0.00    +0.045 C 
ATOM     12  C   UNL     1      -0.483  -0.467   0.099  0.00  0.00    -0.029 A 
ATOM     13  C   UNL     1      -0.675   0.899   0.025  0.00  0.00    +0.005 A 
ATOM     14  C   UNL     1       0.407   1.742  -0.144  0.00  0.00    +0.000 A 
ATOM     15  C   UNL     1       1.685   1.222  -0.239  0.00  0.00    +0.002 A 
ATOM     16  C   UNL     1       1.884  -0.142  -0.165  0.00  0.00    +0.024 A 
ATOM     17  C   UNL     1       0.799  -0.993   0.004  0.00  0.00    +0.042 A 
ENDBRANCH   1  17
BRANCH   2  18
ATOM     18  N   UNL     1       2.467  -2.671   1.958  0.00  0.00    -0.320 N 
ATOM     19  H   UNL     1       3.332  -2.928   1.602  0.00  0.00    +0.148 HD
BRANCH  18  20
ATOM     20  C   UNL     1       2.392  -1.854   3.092  0.00  0.00    +0.065 A 
ATOM     21  C   UNL     1       1.162  -1.382   3.529  0.00  0.00    +0.028 A 
ATOM     22  C   UNL     1       1.090  -0.577   4.649  0.00  0.00    +0.040 A 
ATOM     23  C   UNL     1       2.243  -0.239   5.337  0.00  0.00    +0.126 A 
ATOM     24  C   UNL     1       3.472  -0.708   4.904  0.00  0.00    +0.078 A 
ATOM     25  C   UNL     1       3.549  -1.519   3.787  0.00  0.00    +0.147 A 
ATOM     26  F   UNL     1       4.747  -1.980   3.367  0.00  0.00    -0.203 F 
ATOM     27  F   UNL     1       2.170   0.549   6.432  0.00  0.00    -0.205 F 
ENDBRANCH  18  20
ENDBRANCH   2  18
TORSDOF 3
