REMARK  Name = ZINC01631869
REMARK  4 active torsions:
REMARK  status: ('A' for Active; 'I' for Inactive)
REMARK    1  A    between atoms: C_7  and  O_23
REMARK    2  A    between atoms: C_8  and  C_11
REMARK    3  A    between atoms: C_11  and  C_13
REMARK    4  A    between atoms: N_15  and  C_16
REMARK                            x       y       z     vdW  Elec       q    Type
REMARK                         _______ _______ _______ _____ _____    ______ ____
ROOT
ATOM      1  C   UNL     1       2.465   1.024   0.094  0.00  0.00    +0.250 C 
ATOM      2  O   UNL     1       2.487  -0.177   0.292  0.00  0.00    -0.282 OA
ENDROOT
BRANCH   1  10
ATOM      3  C   UNL     1       8.437   2.295   0.484  0.00  0.00    +0.001 A 
ATOM      4  C   UNL     1       8.263   3.647   0.739  0.00  0.00    +0.004 A 
ATOM      5  C   UNL     1       6.996   4.179   0.883  0.00  0.00    +0.046 A 
ATOM      6  C   UNL     1       5.886   3.360   0.770  0.00  0.00    +0.132 A 
ATOM      7  C   UNL     1       6.061   1.989   0.509  0.00  0.00    +0.059 A 
ATOM      8  C   UNL     1       7.344   1.462   0.367  0.00  0.00    +0.015 A 
ATOM      9  C   UNL     1       4.863   1.139   0.394  0.00  0.00    +0.138 C 
ATOM     10  C   UNL     1       3.643   1.773   0.198  0.00  0.00    +0.083 C 
ATOM     11  C   UNL     1       3.602   3.277   0.105  0.00  0.00    +0.272 C 
ATOM     12  O   UNL     1       4.633   3.854   0.907  0.00  0.00    -0.486 OA
BRANCH   9  13
ATOM     13  O   UNL     1       4.949  -0.206   0.473  0.00  0.00    -0.506 OA
ATOM     14  H   UNL     1       4.037  -0.605   0.373  0.00  0.00    +0.292 HD
ENDBRANCH   9  13
ENDBRANCH   1  10
BRANCH   1  15
ATOM     15  C   UNL     1       1.183   1.697  -0.260  0.00  0.00    +0.289 C 
ATOM     16  O   UNL     1       1.183   2.864  -0.597  0.00  0.00    -0.266 OA
ATOM     17  N   UNL     1       0.025   1.011  -0.206  0.00  0.00    -0.279 N 
ATOM     18  H   UNL     1       0.030   0.065   0.010  0.00  0.00    +0.155 HD
BRANCH  17  19
ATOM     19  C   UNL     1      -1.185   1.661  -0.466  0.00  0.00    +0.034 A 
ATOM     20  C   UNL     1      -2.333   1.301   0.229  0.00  0.00    +0.025 A 
ATOM     21  C   UNL     1      -3.525   1.949  -0.026  0.00  0.00    +0.022 A 
ATOM     22  C   UNL     1      -3.580   2.948  -0.982  0.00  0.00    +0.041 A 
ATOM     23  C   UNL     1      -2.440   3.305  -1.681  0.00  0.00    +0.022 A 
ATOM     24  C   UNL     1      -1.244   2.664  -1.425  0.00  0.00    +0.025 A 
ATOM     25 CL   UNL     1      -5.083   3.756  -1.305  0.00  0.00    -0.084 Cl
ENDBRANCH  17  19
ENDBRANCH   1  15
TORSDOF 4
