REMARK  Name = ZINC64891188
REMARK  11 active torsions:
REMARK  status: ('A' for Active; 'I' for Inactive)
REMARK    1  A    between atoms: C_1  and  C_2
REMARK    2  A    between atoms: C_2  and  C_3
REMARK    3  A    between atoms: C_3  and  N_4
REMARK    4  A    between atoms: C_8  and  C_15
REMARK    5  A    between atoms: C_18  and  C_22
REMARK    6  A    between atoms: C_22  and  C_24
REMARK    7  A    between atoms: C_22  and  N_27
REMARK    8  A    between atoms: C_24  and  C_25
REMARK    9  A    between atoms: C_24  and  C_26
REMARK   10  A    between atoms: N_27  and  S_28
REMARK   11  A    between atoms: S_28  and  C_31
REMARK                            x       y       z     vdW  Elec       q    Type
REMARK                         _______ _______ _______ _____ _____    ______ ____
ROOT
ATOM      1  C   UNL     1      -1.142  -5.781  -3.776  0.00  0.00    +0.180 C 
ATOM      2  N   UNL     1      -0.447  -5.430  -5.043  0.00  0.00    -0.268 NA
ATOM      3  C   UNL     1      -0.335  -6.744  -5.728  0.00  0.00    +0.230 C 
ATOM      4  O   UNL     1      -0.065  -7.687  -4.674  0.00  0.00    -0.278 OA
ATOM      5  N   UNL     1      -0.581  -7.106  -3.422  0.00  0.00    -0.178 NA
ATOM      6  H   UNL     1      -0.996  -4.784  -5.589  0.00  0.00    +0.126 HD
ATOM      7  H   UNL     1       0.154  -7.017  -2.736  0.00  0.00    +0.156 HD
ENDROOT
BRANCH   1  12
ATOM      8  N   UNL     1       0.001  -2.218   0.445  0.00  0.00    -0.292 N 
ATOM      9  C   UNL     1      -0.258  -2.903  -0.740  0.00  0.00    +0.070 A 
ATOM     10  C   UNL     1      -0.321  -2.514  -2.069  0.00  0.00    +0.028 A 
ATOM     11  C   UNL     1      -0.607  -3.448  -3.046  0.00  0.00    +0.009 A 
ATOM     12  C   UNL     1      -0.831  -4.770  -2.702  0.00  0.00    -0.012 A 
ATOM     13  C   UNL     1      -0.770  -5.167  -1.381  0.00  0.00    +0.034 A 
ATOM     14  C   UNL     1      -0.484  -4.236  -0.394  0.00  0.00    +0.067 A 
ATOM     15  N   UNL     1      -0.355  -4.321   0.991  0.00  0.00    -0.306 N 
ATOM     16  H   UNL     1      -0.457  -5.125   1.523  0.00  0.00    +0.170 HD
ATOM     17  C   UNL     1      -0.059  -3.095   1.464  0.00  0.00    +0.328 A 
ATOM     18  O   UNL     1       0.124  -2.822   2.636  0.00  0.00    -0.247 OA
BRANCH   8  19
ATOM     19  C   UNL     1       0.294  -0.787   0.562  0.00  0.00    +0.127 C 
BRANCH  19  21
ATOM     20  C   UNL     1       2.109   0.929   0.570  0.00  0.00    +0.005 C 
ATOM     21  C   UNL     1       1.803  -0.565   0.448  0.00  0.00    +0.018 C 
ENDBRANCH  19  21
ENDBRANCH   8  19
ENDBRANCH   1  12
BRANCH   3  22
ATOM     22  C   UNL     1       0.817  -6.724  -6.734  0.00  0.00    +0.125 C 
BRANCH  22  23
ATOM     23  C   UNL     1       0.836  -8.040  -7.515  0.00  0.00    +0.005 C 
ATOM     24  C   UNL     1      -0.433  -8.148  -8.362  0.00  0.00    +0.009 C 
ATOM     25  C   UNL     1       2.064  -8.074  -8.427  0.00  0.00    +0.009 C 
ENDBRANCH  22  23
BRANCH  22  26
ATOM     26  N   UNL     1       0.633  -5.607  -7.665  0.00  0.00    -0.183 NA
ATOM     27  H   UNL     1      -0.122  -5.603  -8.274  0.00  0.00    +0.148 HD
BRANCH  26  28
ATOM     28  S   UNL     1       1.713  -4.352  -7.676  0.00  0.00    +0.059 S 
ATOM     29  O   UNL     1       1.274  -3.448  -8.681  0.00  0.00    -0.153 OA
ATOM     30  O   UNL     1       1.893  -3.958  -6.323  0.00  0.00    -0.153 OA
BRANCH  28  31
ATOM     31  C   UNL     1       3.258  -5.000  -8.222  0.00  0.00    +0.105 A 
ATOM     32  C   UNL     1       4.183  -5.451  -7.299  0.00  0.00    +0.028 A 
ATOM     33  C   UNL     1       5.395  -5.960  -7.727  0.00  0.00    +0.002 A 
ATOM     34  C   UNL     1       5.683  -6.017  -9.078  0.00  0.00    +0.000 A 
ATOM     35  C   UNL     1       4.757  -5.566 -10.001  0.00  0.00    +0.002 A 
ATOM     36  C   UNL     1       3.543  -5.062  -9.573  0.00  0.00    +0.028 A 
ENDBRANCH  28  31
ENDBRANCH  26  28
ENDBRANCH  22  26
ENDBRANCH   3  22
TORSDOF 8
