REMARK  Name = ZINC67162145
REMARK  4 active torsions:
REMARK  status: ('A' for Active; 'I' for Inactive)
REMARK    1  A    between atoms: C_2  and  C_3
REMARK    2  A    between atoms: C_3  and  N_4
REMARK    3  A    between atoms: C_7  and  C_10
REMARK    4  A    between atoms: N_12  and  C_13
REMARK                            x       y       z     vdW  Elec       q    Type
REMARK                         _______ _______ _______ _____ _____    ______ ____
ROOT
ATOM      1  C   UNL     1       5.038   3.964  -0.774  0.00  0.00    +0.220 C 
ATOM      2  O   UNL     1       5.914   3.131  -0.877  0.00  0.00    -0.275 OA
ATOM      3  N   UNL     1       5.357   5.253  -0.544  0.00  0.00    -0.284 N 
ATOM      4  H   UNL     1       4.664   5.931  -0.542  0.00  0.00    +0.155 HD
ENDROOT
BRANCH   3   5
ATOM      5  C   UNL     1       6.691   5.613  -0.309  0.00  0.00    +0.055 A 
ATOM      6  C   UNL     1       7.584   4.675   0.194  0.00  0.00    +0.072 A 
ATOM      7  C   UNL     1       8.899   5.033   0.425  0.00  0.00    +0.144 A 
ATOM      8  C   UNL     1       9.326   6.332   0.154  0.00  0.00    +0.077 A 
ATOM      9  C   UNL     1       8.434   7.266  -0.348  0.00  0.00    +0.048 A 
ATOM     10  C   UNL     1       7.119   6.905  -0.584  0.00  0.00    +0.064 A 
ATOM     11 CL   UNL     1       6.002   8.072  -1.220  0.00  0.00    -0.082 Cl
ATOM     12  N   UNL     1      10.665   6.679   0.395  0.00  0.00    -0.280 N 
ATOM     13  C   UNL     1      11.573   5.696   0.577  0.00  0.00    +0.255 C 
ATOM     14  O   UNL     1      12.729   5.972   0.818  0.00  0.00    -0.272 OA
ATOM     15  C   UNL     1      11.143   4.254   0.481  0.00  0.00    +0.325 C 
ATOM     16  O   UNL     1       9.787   4.127   0.916  0.00  0.00    -0.481 OA
ATOM     17  H   UNL     1      10.933   7.611   0.430  0.00  0.00    +0.155 HD
ENDBRANCH   3   5
BRANCH   1  21
ATOM     18  N   UNL     1       1.368   1.972   0.034  0.00  0.00    -0.291 NA
ATOM     19  C   UNL     1       2.035   1.634  -1.230  0.00  0.00    +0.086 C 
ATOM     20  C   UNL     1       3.506   2.050  -1.161  0.00  0.00    +0.028 C 
ATOM     21  C   UNL     1       3.592   3.558  -0.904  0.00  0.00    +0.078 C 
ATOM     22  C   UNL     1       2.849   3.890   0.393  0.00  0.00    +0.028 C 
ATOM     23  C   UNL     1       1.398   3.420   0.278  0.00  0.00    +0.086 C 
BRANCH  18  24
ATOM     24  C   UNL     1      -0.009   1.462   0.055  0.00  0.00    +0.173 C 
BRANCH  24  26
ATOM     25  C   UNL     1       0.030  -1.184   0.042  0.00  0.00    +0.005 C 
ATOM     26  C   UNL     1       0.013  -0.010   0.048  0.00  0.00    -0.090 C 
ENDBRANCH  24  26
ENDBRANCH  18  24
ENDBRANCH   1  21
TORSDOF 4
