REMARK  Name = ZINC02472333
REMARK  8 active torsions:
REMARK  status: ('A' for Active; 'I' for Inactive)
REMARK    1  A    between atoms: C_1  and  C_2
REMARK    2  A    between atoms: C_2  and  O_3
REMARK    3  A    between atoms: O_3  and  C_4
REMARK    4  A    between atoms: C_7  and  C_10
REMARK    5  A    between atoms: C_13  and  C_22
REMARK    6  A    between atoms: C_25  and  O_28
REMARK    7  A    between atoms: O_28  and  C_29
REMARK    8  A    between atoms: C_29  and  C_30
REMARK                            x       y       z     vdW  Elec       q    Type
REMARK                         _______ _______ _______ _____ _____    ______ ____
ROOT
ATOM      1  C   UNL     1       2.418   0.028   0.283  0.00  0.00    +0.106 C 
ATOM      2  C   UNL     1       2.370   1.354  -0.484  0.00  0.00    +0.058 C 
ATOM      3  C   UNL     1       1.181   2.191   0.003  0.00  0.00    +0.143 C 
ATOM      4  N   UNL     1      -0.016   1.350   0.009  0.00  0.00    -0.224 N 
ATOM      5  C   UNL     1       0.002  -0.004   0.002  0.00  0.00    +0.216 A 
ATOM      6  N   UNL     1      -1.234  -0.428   0.009  0.00  0.00    -0.180 NA
ATOM      7  C   UNL     1      -2.067   0.623   0.022  0.00  0.00    +0.233 A 
ATOM      8  N   UNL     1      -1.359   1.730   0.018  0.00  0.00    -0.132 NA
ATOM      9  N   UNL     1      -3.460   0.552   0.033  0.00  0.00    -0.326 N 
ATOM     10  N   UNL     1       1.186  -0.730  -0.009  0.00  0.00    -0.307 N 
ATOM     11  H   UNL     1      -4.058   1.475   0.044  0.00  0.00    +0.145 HD
ATOM     12  H   UNL     1      -3.961  -0.427   0.032  0.00  0.00    +0.145 HD
ATOM     13  H   UNL     1       1.240  -1.808  -0.218  0.00  0.00    +0.149 HD
ENDROOT
BRANCH   1  17
ATOM     14  C   UNL     1       5.821  -2.233  -0.970  0.00  0.00    +0.121 A 
ATOM     15  C   UNL     1       5.860  -1.520   0.220  0.00  0.00    +0.046 A 
ATOM     16  C   UNL     1       4.759  -0.790   0.622  0.00  0.00    +0.009 A 
ATOM     17  C   UNL     1       3.618  -0.769  -0.159  0.00  0.00    -0.027 A 
ATOM     18  C   UNL     1       3.575  -1.483  -1.342  0.00  0.00    +0.009 A 
ATOM     19  C   UNL     1       4.676  -2.210  -1.752  0.00  0.00    +0.046 A 
BRANCH  14  20
ATOM     20  O   UNL     1       6.904  -2.953  -1.368  0.00  0.00    -0.492 OA
BRANCH  20  22
ATOM     21  C   UNL     1       8.099  -4.407  -2.884  0.00  0.00    +0.048 C 
ATOM     22  C   UNL     1       6.792  -3.661  -2.604  0.00  0.00    +0.225 C 
ENDBRANCH  20  22
ENDBRANCH  14  20
ENDBRANCH   1  17
BRANCH   3  23
ATOM     23  C   UNL     1       0.972   3.359  -0.926  0.00  0.00    -0.023 A 
ATOM     24  C   UNL     1       0.718   3.138  -2.267  0.00  0.00    +0.009 A 
ATOM     25  C   UNL     1       0.521   4.208  -3.119  0.00  0.00    +0.046 A 
ATOM     26  C   UNL     1       0.589   5.504  -2.630  0.00  0.00    +0.121 A 
ATOM     27  C   UNL     1       0.850   5.723  -1.286  0.00  0.00    +0.046 A 
ATOM     28  C   UNL     1       1.040   4.651  -0.436  0.00  0.00    +0.009 A 
BRANCH  26  29
ATOM     29  O   UNL     1       0.402   6.558  -3.468  0.00  0.00    -0.487 OA
BRANCH  29  30
ATOM     30  C   UNL     1       0.138   6.258  -4.840  0.00  0.00    +0.264 C 
BRANCH  30  31
ATOM     31  C   UNL     1      -0.041   7.541  -5.610  0.00  0.00    -0.010 A 
ATOM     32  C   UNL     1      -1.298   8.101  -5.736  0.00  0.00    +0.007 A 
ATOM     33  C   UNL     1      -1.462   9.281  -6.438  0.00  0.00    +0.000 A 
ATOM     34  C   UNL     1      -0.369   9.894  -7.022  0.00  0.00    +0.000 A 
ATOM     35  C   UNL     1       0.887   9.331  -6.901  0.00  0.00    +0.000 A 
ATOM     36  C   UNL     1       1.051   8.154  -6.194  0.00  0.00    +0.007 A 
ENDBRANCH  30  31
ENDBRANCH  29  30
ENDBRANCH  26  29
ENDBRANCH   3  23
TORSDOF 7
