REMARK  Name = ZINC17216593
REMARK  12 active torsions:
REMARK  status: ('A' for Active; 'I' for Inactive)
REMARK    1  A    between atoms: C_1  and  C_2
REMARK    2  A    between atoms: C_5  and  N_9
REMARK    3  A    between atoms: C_7  and  C_8
REMARK    4  A    between atoms: C_10  and  C_12
REMARK    5  A    between atoms: C_12  and  C_19
REMARK    6  A    between atoms: N_13  and  N_14
REMARK    7  A    between atoms: N_14  and  C_15
REMARK    8  A    between atoms: C_15  and  C_16
REMARK    9  A    between atoms: C_15  and  C_17
REMARK   10  A    between atoms: C_15  and  C_18
REMARK   11  A    between atoms: C_19  and  C_20
REMARK   12  A    between atoms: C_29  and  O_31
REMARK                            x       y       z     vdW  Elec       q    Type
REMARK                         _______ _______ _______ _____ _____    ______ ____
ROOT
ATOM      1  C   UNL     1       0.343  -6.292  -1.212  0.00  0.00    +0.125 C 
ATOM      2  N   UNL     1       0.305  -6.957  -0.092  0.00  0.00    -0.186 NA
ENDROOT
BRANCH   1   4
ATOM      3  N   UNL     1       0.049  -4.168  -2.364  0.00  0.00    -0.280 N 
ATOM      4  C   UNL     1       0.200  -4.837  -1.204  0.00  0.00    +0.264 C 
ATOM      5  O   UNL     1       0.217  -4.229  -0.149  0.00  0.00    -0.268 OA
ATOM      6  H   UNL     1      -0.068  -4.656  -3.194  0.00  0.00    +0.155 HD
BRANCH   3  11
ATOM      7  C   UNL     1       0.095   1.504  -2.395  0.00  0.00    +0.044 C 
ATOM      8  C   UNL     1       0.082  -0.003  -2.387  0.00  0.00    -0.047 A 
ATOM      9  C   UNL     1      -0.237  -0.684  -1.226  0.00  0.00    +0.005 A 
ATOM     10  C   UNL     1      -0.249  -2.065  -1.215  0.00  0.00    +0.023 A 
ATOM     11  C   UNL     1       0.059  -2.770  -2.372  0.00  0.00    +0.034 A 
ATOM     12  C   UNL     1       0.379  -2.083  -3.536  0.00  0.00    +0.027 A 
ATOM     13  C   UNL     1       0.385  -0.701  -3.541  0.00  0.00    -0.046 A 
ATOM     14  C   UNL     1       0.726   0.045  -4.805  0.00  0.00    +0.044 C 
ENDBRANCH   3  11
ENDBRANCH   1   4
BRANCH   2  15
ATOM     15  N   UNL     1       0.303  -6.271   1.129  0.00  0.00    -0.263 N 
ATOM     16  H   UNL     1       0.217  -5.305   1.143  0.00  0.00    +0.169 HD
BRANCH  15  17
ATOM     17  C   UNL     1       0.430  -7.013   2.386  0.00  0.00    +0.041 C 
ATOM     18  C   UNL     1       1.754  -7.779   2.395  0.00  0.00    +0.032 C 
ATOM     19  C   UNL     1       0.399  -6.034   3.562  0.00  0.00    +0.032 C 
ATOM     20  C   UNL     1      -0.732  -8.001   2.515  0.00  0.00    +0.032 C 
ENDBRANCH  15  17
ENDBRANCH   2  15
BRANCH   1  21
ATOM     21  C   UNL     1       0.533  -7.024  -2.516  0.00  0.00    +0.098 C 
BRANCH  21  22
ATOM     22  C   UNL     1       0.653  -8.502  -2.250  0.00  0.00    -0.024 A 
ATOM     23  C   UNL     1      -0.430  -9.317  -2.337  0.00  0.00    +0.096 A 
ATOM     24  C   UNL     1      -0.292 -10.697  -2.084  0.00  0.00    +0.337 A 
ATOM     25  O   UNL     1      -1.272 -11.416  -2.166  0.00  0.00    -0.245 OA
ATOM     26  O   UNL     1       0.891 -11.239  -1.756  0.00  0.00    -0.422 OA
ATOM     27  C   UNL     1       2.007 -10.485  -1.652  0.00  0.00    +0.143 A 
ATOM     28  C   UNL     1       1.942  -9.100  -1.897  0.00  0.00    +0.021 A 
ATOM     29  C   UNL     1       3.097  -8.317  -1.795  0.00  0.00    +0.015 A 
ATOM     30  C   UNL     1       4.285  -8.900  -1.464  0.00  0.00    +0.046 A 
ATOM     31  C   UNL     1       4.357 -10.271  -1.225  0.00  0.00    +0.120 A 
ATOM     32  C   UNL     1       3.221 -11.060  -1.311  0.00  0.00    +0.092 A 
BRANCH  31  33
ATOM     33  O   UNL     1       5.546 -10.836  -0.897  0.00  0.00    -0.507 OA
ATOM     34  H   UNL     1       5.721 -10.860   0.054  0.00  0.00    +0.292 HD
ENDBRANCH  31  33
ENDBRANCH  21  22
ENDBRANCH   1  21
TORSDOF 7
