REMARK  Name = ZINC31807523
REMARK  3 active torsions:
REMARK  status: ('A' for Active; 'I' for Inactive)
REMARK    1  A    between atoms: C_1  and  C_2
REMARK    2  A    between atoms: C_2  and  N_3
REMARK    3  A    between atoms: C_7  and  C_23
REMARK                            x       y       z     vdW  Elec       q    Type
REMARK                         _______ _______ _______ _____ _____    ______ ____
ROOT
ATOM      1  N   UNL     1      -1.372  -0.511   0.012  0.00  0.00    -0.270 N 
ATOM      2  C   UNL     1      -2.089  -0.780   1.165  0.00  0.00    +0.041 A 
ATOM      3  C   UNL     1      -1.704  -0.644   2.500  0.00  0.00    +0.024 A 
ATOM      4  C   UNL     1      -2.634  -0.991   3.467  0.00  0.00    +0.005 A 
ATOM      5  C   UNL     1      -3.892  -1.453   3.138  0.00  0.00    -0.050 A 
ATOM      6  C   UNL     1      -4.288  -1.593   1.812  0.00  0.00    +0.010 A 
ATOM      7  C   UNL     1      -3.369  -1.250   0.845  0.00  0.00    -0.006 A 
ATOM      8  C   UNL     1      -3.443  -1.271  -0.648  0.00  0.00    +0.112 C 
ATOM      9  C   UNL     1      -2.091  -0.766  -1.101  0.00  0.00    +0.235 C 
ATOM     10  O   UNL     1      -1.722  -0.620  -2.247  0.00  0.00    -0.274 OA
ATOM     11  C   UNL     1      -4.545  -0.345  -1.160  0.00  0.00    +0.122 C 
ATOM     12  C   UNL     1      -5.894  -1.000  -1.069  0.00  0.00    +0.220 C 
ATOM     13  O   UNL     1      -6.856  -0.326  -0.765  0.00  0.00    -0.275 OA
ATOM     14  N   UNL     1      -6.071  -2.316  -1.314  0.00  0.00    -0.270 N 
ATOM     15  C   UNL     1      -4.942  -3.120  -1.466  0.00  0.00    +0.125 A 
ATOM     16  C   UNL     1      -3.684  -2.662  -1.164  0.00  0.00    +0.032 A 
ATOM     17  C   UNL     1      -2.785  -3.686  -1.423  0.00  0.00    +0.141 A 
ATOM     18  N   UNL     1      -3.461  -4.726  -1.851  0.00  0.00    -0.180 NA
ATOM     19  N   UNL     1      -4.825  -4.390  -1.877  0.00  0.00    -0.264 N 
ATOM     20  H   UNL     1      -5.552  -4.974  -2.143  0.00  0.00    +0.190 HD
ATOM     21  C   UNL     1      -4.856  -1.814   4.238  0.00  0.00    +0.044 C 
ATOM     22  H   UNL     1      -6.962  -2.693  -1.383  0.00  0.00    +0.156 HD
ENDROOT
BRANCH   1  24
ATOM     23  C   UNL     1      -0.019   1.526   0.010  0.00  0.00    +0.025 C 
ATOM     24  C   UNL     1       0.002  -0.004   0.002  0.00  0.00    +0.110 C 
ENDBRANCH   1  24
TORSDOF 1
