REMARK  Name = ZINC05029762
REMARK  6 active torsions:
REMARK  status: ('A' for Active; 'I' for Inactive)
REMARK    1  A    between atoms: C_1  and  O_2
REMARK    2  A    between atoms: O_2  and  C_3
REMARK    3  A    between atoms: C_8  and  N_9
REMARK    4  A    between atoms: N_9  and  N_10
REMARK    5  A    between atoms: C_11  and  C_13
REMARK    6  A    between atoms: C_15  and  C_21
REMARK                            x       y       z     vdW  Elec       q    Type
REMARK                         _______ _______ _______ _____ _____    ______ ____
ROOT
ATOM      1  N   UNL     1       3.918  -4.156   5.792  0.00  0.00    -0.236 N 
ATOM      2  C   UNL     1       3.496  -5.436   5.819  0.00  0.00    +0.242 C 
ATOM      3  O   UNL     1       2.581  -5.788   5.105  0.00  0.00    -0.273 OA
ATOM      4  H   UNL     1       4.650  -3.874   6.363  0.00  0.00    +0.173 HD
ENDROOT
BRANCH   2   5
ATOM      5  C   UNL     1       4.161  -6.429   6.736  0.00  0.00    +0.171 C 
ATOM      6  C   UNL     1       5.337  -7.129   6.016  0.00  0.00    +0.057 C 
ATOM      7  C   UNL     1       4.656  -8.403   5.468  0.00  0.00    +0.113 C 
ATOM      8  N   UNL     1       3.513  -8.649   6.355  0.00  0.00    -0.314 N 
ATOM      9  C   UNL     1       3.209  -7.554   7.078  0.00  0.00    +0.226 C 
ATOM     10  O   UNL     1       2.306  -7.479   7.885  0.00  0.00    -0.275 OA
ATOM     11  H   UNL     1       3.038  -9.493   6.414  0.00  0.00    +0.149 HD
BRANCH   6  12
ATOM     12  C   UNL     1       5.867  -6.274   4.893  0.00  0.00    -0.042 A 
ATOM     13  C   UNL     1       5.135  -6.130   3.730  0.00  0.00    +0.004 A 
ATOM     14  C   UNL     1       5.621  -5.346   2.700  0.00  0.00    +0.000 A 
ATOM     15  C   UNL     1       6.839  -4.707   2.834  0.00  0.00    +0.000 A 
ATOM     16  C   UNL     1       7.571  -4.850   3.998  0.00  0.00    +0.000 A 
ATOM     17  C   UNL     1       7.082  -5.631   5.030  0.00  0.00    +0.004 A 
ENDBRANCH   6  12
ENDBRANCH   2   5
BRANCH   1  18
ATOM     18  N   UNL     1       3.300  -3.232   4.938  0.00  0.00    -0.271 N 
ATOM     19  H   UNL     1       2.568  -3.514   4.367  0.00  0.00    +0.169 HD
BRANCH  18  25
ATOM     20  C   UNL     1       1.872   0.802   2.361  0.00  0.00    +0.124 C 
ATOM     21  C   UNL     1       2.908   1.249   3.154  0.00  0.00    +0.097 C 
ATOM     22  C   UNL     1       3.555   0.360   4.022  0.00  0.00    +0.191 C 
ATOM     23  O   UNL     1       4.476   0.741   4.732  0.00  0.00    -0.287 OA
ATOM     24  C   UNL     1       3.106  -1.038   4.063  0.00  0.00    +0.037 C 
ATOM     25  C   UNL     1       3.721  -1.957   4.911  0.00  0.00    +0.099 C 
ATOM     26  C   UNL     1       2.038  -1.435   3.225  0.00  0.00    +0.016 C 
ATOM     27  C   UNL     1       1.445  -0.529   2.408  0.00  0.00    +0.046 C 
BRANCH  20  29
ATOM     28  C   UNL     1       1.729   3.018   1.518  0.00  0.00    +0.277 C 
ATOM     29  O   UNL     1       1.252   1.671   1.525  0.00  0.00    -0.495 OA
ENDBRANCH  20  29
ENDBRANCH  18  25
ENDBRANCH   1  18
TORSDOF 5
