REMARK  Name = ZINC05376854
REMARK  2 active torsions:
REMARK  status: ('A' for Active; 'I' for Inactive)
REMARK    1  A    between atoms: C_1  and  C_2
REMARK    2  A    between atoms: C_9  and  C_13
REMARK                            x       y       z     vdW  Elec       q    Type
REMARK                         _______ _______ _______ _____ _____    ______ ____
ROOT
ATOM      1  C   UNL     1       0.122   4.210  -1.342  0.00  0.00    +0.017 C 
ATOM      2  C   UNL     1      -1.231   3.499  -1.275  0.00  0.00    +0.073 C 
ATOM      3  C   UNL     1      -1.028   1.996  -1.484  0.00  0.00    +0.176 C 
ATOM      4  S   UNL     1       0.013   1.345  -0.146  0.00  0.00    -0.030 S 
ATOM      5  O   UNL     1       0.027  -0.073  -0.235  0.00  0.00    -0.174 OA
ATOM      6  O   UNL     1       1.246   2.051  -0.151  0.00  0.00    -0.174 OA
ATOM      7  C   UNL     1      -0.918   1.821   1.339  0.00  0.00    +0.176 C 
ATOM      8  C   UNL     1      -1.131   3.337   1.331  0.00  0.00    +0.073 C 
ATOM      9  C   UNL     1      -1.858   3.738   0.074  0.00  0.00    +0.142 C 
ATOM     10  O   UNL     1      -2.948   4.252   0.148  0.00  0.00    -0.297 OA
ATOM     11  C   UNL     1      -1.961   3.742   2.551  0.00  0.00    +0.017 C 
ENDROOT
TORSDOF 0
