REMARK  Name = ZINC04939811
REMARK  8 active torsions:
REMARK  status: ('A' for Active; 'I' for Inactive)
REMARK    1  A    between atoms: C_1  and  C_2
REMARK    2  A    between atoms: C_11  and  C_13
REMARK    3  A    between atoms: N_15  and  C_16
REMARK    4  A    between atoms: C_16  and  C_17
REMARK    5  A    between atoms: C_17  and  C_18
REMARK    6  A    between atoms: C_18  and  N_19
REMARK    7  A    between atoms: C_20  and  C_28
REMARK    8  A    between atoms: C_25  and  C_27
REMARK                            x       y       z     vdW  Elec       q    Type
REMARK                         _______ _______ _______ _____ _____    ______ ____
ROOT
ATOM      1  C   UNL     1       0.484  -3.365   5.838  0.00  0.00    +0.251 C 
ATOM      2  O   UNL     1       0.777  -4.543   5.921  0.00  0.00    -0.270 OA
ATOM      3  N   UNL     1       0.169  -2.669   6.948  0.00  0.00    -0.311 N 
ATOM      4  H   UNL     1      -0.065  -1.730   6.882  0.00  0.00    +0.149 HD
ENDROOT
BRANCH   1  15
ATOM      5  C   UNL     1      -0.217   3.661   0.883  0.00  0.00    +0.044 C 
ATOM      6  C   UNL     1      -0.057   2.184   0.627  0.00  0.00    -0.050 A 
ATOM      7  C   UNL     1       0.017   1.712  -0.674  0.00  0.00    +0.007 A 
ATOM      8  C   UNL     1       0.155   0.364  -0.929  0.00  0.00    +0.047 A 
ATOM      9  C   UNL     1       0.228  -0.542   0.120  0.00  0.00    +0.140 A 
ATOM     10  C   UNL     1       0.167  -0.055   1.446  0.00  0.00    +0.032 A 
ATOM     11  C   UNL     1       0.022   1.307   1.688  0.00  0.00    +0.016 A 
ATOM     12  C   UNL     1       0.293  -1.048   2.504  0.00  0.00    +0.038 A 
ATOM     13  C   UNL     1       0.672  -2.384   2.210  0.00  0.00    +0.075 A 
ATOM     14  C   UNL     1       0.759  -3.236   3.298  0.00  0.00    +0.036 A 
ATOM     15  C   UNL     1       0.472  -2.703   4.529  0.00  0.00    +0.075 A 
ATOM     16  S   UNL     1       0.081  -1.004   4.144  0.00  0.00    -0.083 S 
ATOM     17  C   UNL     1       0.923  -2.694   0.778  0.00  0.00    +0.346 A 
ATOM     18  O   UNL     1       1.615  -3.635   0.435  0.00  0.00    -0.244 OA
ATOM     19  O   UNL     1       0.339  -1.869  -0.123  0.00  0.00    -0.422 OA
ENDBRANCH   1  15
BRANCH   3  20
ATOM     20  C   UNL     1       0.181  -3.331   8.255  0.00  0.00    +0.102 C 
BRANCH  20  21
ATOM     21  C   UNL     1      -0.210  -2.325   9.339  0.00  0.00    +0.000 C 
BRANCH  21  22
ATOM     22  C   UNL     1      -0.199  -3.015  10.704  0.00  0.00    -0.077 C 
BRANCH  22  23
ATOM     23  N   UNL     1      -0.444  -2.022  11.758  0.00  0.00    +0.383 N 
ATOM     24  C   UNL     1      -0.324  -2.665  13.072  0.00  0.00    -0.071 C 
ATOM     25  C   UNL     1      -0.498  -1.617  14.175  0.00  0.00    -0.016 C 
ATOM     26  C   UNL     1      -1.881  -0.972  14.044  0.00  0.00    -0.003 C 
ATOM     27  C   UNL     1      -2.022  -0.370  12.643  0.00  0.00    -0.016 C 
ATOM     28  C   UNL     1      -1.792  -1.463  11.598  0.00  0.00    -0.071 C 
ATOM     29  C   UNL     1      -2.828  -2.572  11.784  0.00  0.00    -0.013 C 
ATOM     30  C   UNL     1       1.057  -3.312  13.199  0.00  0.00    -0.013 C 
ATOM     31  H   UNL     1       0.237  -1.281  11.685  0.00  0.00    -0.081 HD
ENDBRANCH  22  23
ENDBRANCH  21  22
ENDBRANCH  20  21
ENDBRANCH   3  20
TORSDOF 5
