REMARK  Name = ZINC39451255
REMARK  4 active torsions:
REMARK  status: ('A' for Active; 'I' for Inactive)
REMARK    1  A    between atoms: C_1  and  O_2
REMARK    2  A    between atoms: O_2  and  N_3
REMARK    3  A    between atoms: C_11  and  S_14
REMARK    4  A    between atoms: S_14  and  C_15
REMARK                            x       y       z     vdW  Elec       q    Type
REMARK                         _______ _______ _______ _____ _____    ______ ____
ROOT
ATOM      1  N   UNL     1       0.646  -0.565  -1.127  0.00  0.00    -0.139 N 
ATOM      2  C   UNL     1      -0.107  -0.837  -2.264  0.00  0.00    +0.149 A 
ATOM      3  C   UNL     1       0.479  -1.390  -3.389  0.00  0.00    +0.085 A 
ATOM      4  C   UNL     1       1.917  -1.687  -3.392  0.00  0.00    +0.099 A 
ATOM      5  C   UNL     1       2.659  -1.399  -2.224  0.00  0.00    +0.071 A 
ATOM      6  C   UNL     1       1.967  -0.812  -1.067  0.00  0.00    +0.293 A 
ATOM      7  O   UNL     1       2.589  -0.554  -0.053  0.00  0.00    -0.264 OA
ATOM      8  C   UNL     1       4.025  -1.671  -2.200  0.00  0.00    +0.031 A 
ATOM      9  C   UNL     1       4.601  -2.222  -3.343  0.00  0.00    +0.026 A 
ATOM     10  C   UNL     1       3.801  -2.478  -4.458  0.00  0.00    +0.126 A 
ATOM     11  N   UNL     1       2.515  -2.212  -4.455  0.00  0.00    -0.252 NA
ATOM     12  N   UNL     1      -0.291  -1.666  -4.502  0.00  0.00    -0.328 N 
ATOM     13  C   UNL     1      -1.726  -1.930  -4.309  0.00  0.00    +0.146 C 
ATOM     14  C   UNL     1      -2.321  -0.773  -3.499  0.00  0.00    +0.115 C 
ATOM     15  C   UNL     1      -1.488  -0.547  -2.264  0.00  0.00    +0.187 C 
ATOM     16  O   UNL     1      -2.011  -0.110  -1.258  0.00  0.00    -0.290 OA
ATOM     17 BR   UNL     1      -1.963  -3.618  -3.329  0.00  0.00    -0.067 Br
ATOM     18  H   UNL     1       0.103  -1.685  -5.388  0.00  0.00    +0.147 HD
ENDROOT
BRANCH   1  20
ATOM     19  C   UNL     1      -0.017   1.425   0.010  0.00  0.00    +0.311 C 
ATOM     20  O   UNL     1       0.002  -0.004   0.002  0.00  0.00    -0.411 OA
ENDBRANCH   1  20
BRANCH   9  21
ATOM     21  S   UNL     1       6.324  -2.590  -3.380  0.00  0.00    -0.127 S 
ATOM     22  C   UNL     1       6.590  -3.272  -5.040  0.00  0.00    +0.090 C 
ENDBRANCH   9  21
TORSDOF 2
