REMARK  Name = ZINC45120971
REMARK  11 active torsions:
REMARK  status: ('A' for Active; 'I' for Inactive)
REMARK    1  A    between atoms: C_1  and  C_2
REMARK    2  A    between atoms: C_5  and  O_26
REMARK    3  A    between atoms: C_6  and  C_8
REMARK    4  A    between atoms: C_8  and  C_10
REMARK    5  A    between atoms: C_8  and  N_11
REMARK    6  A    between atoms: N_14  and  N_15
REMARK    7  A    between atoms: C_16  and  C_18
REMARK    8  A    between atoms: C_18  and  N_19
REMARK    9  A    between atoms: C_20  and  C_25
REMARK   10  A    between atoms: C_22  and  C_24
REMARK   11  A    between atoms: O_26  and  C_27
REMARK                            x       y       z     vdW  Elec       q    Type
REMARK                         _______ _______ _______ _____ _____    ______ ____
ROOT
ATOM      1  N   UNL     1       0.630  -1.997   3.542  0.00  0.00    -0.292 N 
ATOM      2  C   UNL     1       1.298  -2.561   4.569  0.00  0.00    +0.316 C 
ATOM      3  O   UNL     1       1.420  -3.769   4.624  0.00  0.00    -0.251 OA
ATOM      4  N   UNL     1       1.829  -1.785   5.534  0.00  0.00    -0.218 N 
ATOM      5  H   UNL     1       0.532  -1.033   3.499  0.00  0.00    +0.151 HD
ATOM      6  H   UNL     1       2.310  -2.191   6.273  0.00  0.00    +0.174 HD
ENDROOT
BRANCH   4   7
ATOM      7  N   UNL     1       1.688  -0.393   5.471  0.00  0.00    -0.232 N 
ATOM      8  C   UNL     1       2.219   0.383   6.436  0.00  0.00    +0.251 C 
ATOM      9  O   UNL     1       2.820  -0.124   7.360  0.00  0.00    -0.272 OA
ATOM     10  H   UNL     1       1.207   0.013   4.732  0.00  0.00    +0.173 HD
BRANCH   8  11
ATOM     11  C   UNL     1       2.067   1.881   6.368  0.00  0.00    +0.240 C 
BRANCH  11  12
ATOM     12  N   UNL     1       2.727   2.492   7.524  0.00  0.00    -0.259 N 
ATOM     13  C   UNL     1       2.157   2.750   8.720  0.00  0.00    +0.037 A 
ATOM     14  C   UNL     1       3.097   3.314   9.513  0.00  0.00    +0.047 A 
ATOM     15  C   UNL     1       4.283   3.405   8.776  0.00  0.00    +0.060 A 
ATOM     16  N   UNL     1       4.064   2.906   7.586  0.00  0.00    -0.176 NA
ATOM     17  C   UNL     1       5.589   3.971   9.271  0.00  0.00    +0.067 C 
ATOM     18  C   UNL     1       0.728   2.461   9.103  0.00  0.00    +0.065 C 
ENDBRANCH  11  12
ENDBRANCH   8  11
ENDBRANCH   4   7
BRANCH   1  19
ATOM     19  C   UNL     1       0.052  -2.841   2.493  0.00  0.00    +0.105 C 
ATOM     20  C   UNL     1      -1.352  -3.283   2.910  0.00  0.00    +0.033 C 
BRANCH  19  26
ATOM     21  C   UNL     1      -0.349   1.536   0.102  0.00  0.00    +0.044 C 
ATOM     22  C   UNL     1      -0.220   0.035   0.062  0.00  0.00    -0.050 A 
ATOM     23  C   UNL     1      -0.175  -0.622  -1.154  0.00  0.00    +0.007 A 
ATOM     24  C   UNL     1      -0.057  -1.997  -1.193  0.00  0.00    +0.046 A 
ATOM     25  C   UNL     1       0.017  -2.720  -0.011  0.00  0.00    +0.125 A 
ATOM     26  C   UNL     1      -0.028  -2.059   1.207  0.00  0.00    +0.014 A 
ATOM     27  C   UNL     1      -0.140  -0.682   1.241  0.00  0.00    +0.012 A 
BRANCH  25  28
ATOM     28  O   UNL     1       0.133  -4.074  -0.047  0.00  0.00    -0.495 OA
ATOM     29  C   UNL     1       0.172  -4.687  -1.337  0.00  0.00    +0.277 C 
ENDBRANCH  25  28
ENDBRANCH  19  26
ENDBRANCH   1  19
TORSDOF 6
