REMARK  Name = ZINC04643791
REMARK  7 active torsions:
REMARK  status: ('A' for Active; 'I' for Inactive)
REMARK    1  A    between atoms: C_1  and  O_2
REMARK    2  A    between atoms: O_2  and  C_3
REMARK    3  A    between atoms: C_3  and  C_4
REMARK    4  A    between atoms: C_11  and  N_29
REMARK    5  A    between atoms: C_12  and  C_27
REMARK    6  A    between atoms: C_13  and  C_15
REMARK    7  A    between atoms: C_18  and  C_21
REMARK                            x       y       z     vdW  Elec       q    Type
REMARK                         _______ _______ _______ _____ _____    ______ ____
ROOT
ATOM      1  C   UNL     1       0.614  -2.074  -1.042  0.00  0.00    +0.096 A 
ATOM      2  C   UNL     1       1.569  -2.876  -0.433  0.00  0.00    +0.052 A 
ATOM      3  C   UNL     1       1.171  -4.178  -0.559  0.00  0.00    +0.223 A 
ATOM      4  N   UNL     1       0.005  -4.184  -1.226  0.00  0.00    -0.246 N 
ATOM      5  H   UNL     1      -0.513  -4.968  -1.463  0.00  0.00    +0.192 HD
ATOM      6  N   UNL     1      -0.331  -2.852  -1.516  0.00  0.00    -0.173 NA
ATOM      7  O   UNL     1       1.890  -5.215  -0.063  0.00  0.00    -0.423 OA
ATOM      8  C   UNL     1       2.882  -4.928   0.805  0.00  0.00    +0.200 C 
ATOM      9  C   UNL     1       3.369  -3.684   1.006  0.00  0.00    +0.098 C 
ATOM     10  C   UNL     1       2.844  -2.480   0.264  0.00  0.00    +0.101 C 
ENDROOT
BRANCH  10  11
ATOM     11  C   UNL     1       3.860  -2.026  -0.752  0.00  0.00    -0.035 A 
ATOM     12  C   UNL     1       4.276  -2.894  -1.746  0.00  0.00    +0.005 A 
ATOM     13  C   UNL     1       5.205  -2.484  -2.680  0.00  0.00    +0.009 A 
ATOM     14  C   UNL     1       5.726  -1.192  -2.620  0.00  0.00    -0.018 A 
ATOM     15  C   UNL     1       5.304  -0.322  -1.617  0.00  0.00    +0.009 A 
ATOM     16  C   UNL     1       4.369  -0.741  -0.692  0.00  0.00    +0.005 A 
BRANCH  14  17
ATOM     17  C   UNL     1       6.726  -0.746  -3.621  0.00  0.00    -0.018 A 
ATOM     18  C   UNL     1       7.145  -1.614  -4.627  0.00  0.00    +0.008 A 
ATOM     19  C   UNL     1       8.075  -1.193  -5.555  0.00  0.00    +0.001 A 
ATOM     20  C   UNL     1       8.593   0.088  -5.488  0.00  0.00    +0.000 A 
ATOM     21  C   UNL     1       8.181   0.954  -4.491  0.00  0.00    +0.001 A 
ATOM     22  C   UNL     1       7.247   0.545  -3.561  0.00  0.00    +0.008 A 
ENDBRANCH  14  17
ENDBRANCH  10  11
BRANCH   8  23
ATOM     23  N   UNL     1       3.429  -5.961   1.525  0.00  0.00    -0.328 N 
ATOM     24  H   UNL     1       3.101  -6.865   1.403  0.00  0.00    +0.145 HD
ATOM     25  H   UNL     1       4.144  -5.786   2.157  0.00  0.00    +0.145 HD
ENDBRANCH   8  23
BRANCH   9  26
ATOM     26  C   UNL     1       4.422  -3.501   1.959  0.00  0.00    +0.101 C 
ATOM     27  N   UNL     1       5.258  -3.357   2.715  0.00  0.00    -0.191 NA
ENDBRANCH   9  26
BRANCH   1  28
ATOM     28  C   UNL     1       0.652  -0.570  -1.138  0.00  0.00    +0.217 C 
BRANCH  28  30
ATOM     29  C   UNL     1      -0.017   1.425   0.010  0.00  0.00    +0.194 C 
ATOM     30  O   UNL     1       0.002  -0.004   0.002  0.00  0.00    -0.377 OA
ENDBRANCH  28  30
ENDBRANCH   1  28
TORSDOF 6
