REMARK  Name = ZINC59795201
REMARK  6 active torsions:
REMARK  status: ('A' for Active; 'I' for Inactive)
REMARK    1  A    between atoms: C_6  and  C_7
REMARK    2  A    between atoms: C_10  and  C_12
REMARK    3  A    between atoms: C_12  and  S_13
REMARK    4  A    between atoms: S_13  and  C_14
REMARK    5  A    between atoms: C_17  and  C_20
REMARK    6  A    between atoms: N_18  and  N_19
REMARK                            x       y       z     vdW  Elec       q    Type
REMARK                         _______ _______ _______ _____ _____    ______ ____
ROOT
ATOM      1  C   UNL     1      -4.379  -5.851  -1.515  0.00  0.00    +0.209 A 
ATOM      2  N   UNL     1      -4.665  -6.460  -0.386  0.00  0.00    -0.121 NA
ATOM      3  N   UNL     1      -5.206  -7.601  -0.624  0.00  0.00    -0.127 NA
ATOM      4  C   UNL     1      -5.298  -7.792  -1.920  0.00  0.00    +0.182 A 
ATOM      5  N   UNL     1      -4.776  -6.674  -2.530  0.00  0.00    -0.224 N 
ENDROOT
BRANCH   4   6
ATOM      6  C   UNL     1      -5.861  -8.980  -2.596  0.00  0.00    +0.021 A 
ATOM      7  C   UNL     1      -5.614  -9.197  -3.952  0.00  0.00    +0.013 A 
ATOM      8  C   UNL     1      -6.143 -10.307  -4.577  0.00  0.00    +0.021 A 
ATOM      9  C   UNL     1      -6.917 -11.206  -3.862  0.00  0.00    +0.041 A 
ATOM     10  C   UNL     1      -7.166 -10.995  -2.516  0.00  0.00    +0.021 A 
ATOM     11  C   UNL     1      -6.638  -9.892  -1.878  0.00  0.00    +0.013 A 
ATOM     12 CL   UNL     1      -7.578 -12.601  -4.655  0.00  0.00    -0.084 Cl
ENDBRANCH   4   6
BRANCH   5  13
ATOM     13  N   UNL     1      -4.674  -6.439  -3.872  0.00  0.00    -0.295 N 
ATOM     14  H   UNL     1      -3.796  -6.779  -4.233  0.00  0.00    +0.163 HD
ATOM     15  H   UNL     1      -5.452  -6.844  -4.370  0.00  0.00    +0.163 HD
ENDBRANCH   5  13
BRANCH   1  16
ATOM     16  S   UNL     1      -3.631  -4.266  -1.687  0.00  0.00    -0.075 S 
BRANCH  16  17
ATOM     17  C   UNL     1      -3.360  -3.721   0.022  0.00  0.00    +0.175 C 
BRANCH  17  21
ATOM     18  C   UNL     1      -1.266  -0.763   0.011  0.00  0.00    +0.248 A 
ATOM     19  N   UNL     1      -2.477  -0.256   0.019  0.00  0.00    -0.107 NA
ATOM     20  N   UNL     1      -3.337  -1.213   0.024  0.00  0.00    -0.111 NA
ATOM     21  C   UNL     1      -2.715  -2.358   0.018  0.00  0.00    +0.228 A 
ATOM     22  O   UNL     1      -1.395  -2.105   0.005  0.00  0.00    -0.419 OA
BRANCH  18  28
ATOM     23  C   UNL     1      -0.017   1.392   0.010  0.00  0.00    +0.016 A 
ATOM     24  C   UNL     1       1.169   2.095   0.002  0.00  0.00    +0.039 A 
ATOM     25  C   UNL     1       2.379   1.418  -0.013  0.00  0.00    +0.123 A 
ATOM     26  C   UNL     1       2.403   0.033  -0.021  0.00  0.00    +0.039 A 
ATOM     27  C   UNL     1       1.223  -0.680  -0.014  0.00  0.00    +0.016 A 
ATOM     28  C   UNL     1       0.002  -0.004   0.002  0.00  0.00    +0.039 A 
ATOM     29  F   UNL     1       3.538   2.112  -0.022  0.00  0.00    -0.205 F 
ENDBRANCH  18  28
ENDBRANCH  17  21
ENDBRANCH  16  17
ENDBRANCH   1  16
TORSDOF 6
