REMARK  Name = ZINC15795005
REMARK  8 active torsions:
REMARK  status: ('A' for Active; 'I' for Inactive)
REMARK    1  A    between atoms: C_1  and  C_2
REMARK    2  A    between atoms: C_4  and  C_35
REMARK    3  A    between atoms: C_5  and  S_9
REMARK    4  A    between atoms: C_6  and  C_8
REMARK    5  A    between atoms: S_9  and  N_12
REMARK    6  A    between atoms: C_15  and  C_18
REMARK    7  A    between atoms: N_20  and  N_21
REMARK    8  A    between atoms: C_22  and  C_24
REMARK                            x       y       z     vdW  Elec       q    Type
REMARK                         _______ _______ _______ _____ _____    ______ ____
ROOT
ATOM      1  N   UNL     1      -3.288   2.443   1.144  0.00  0.00    -0.177 NA
ATOM      2  C   UNL     1      -3.644   1.784  -0.119  0.00  0.00    +0.110 C 
ATOM      3  C   UNL     1      -2.767   0.538  -0.289  0.00  0.00    +0.030 C 
ATOM      4  C   UNL     1      -1.294   0.938  -0.182  0.00  0.00    +0.079 C 
ATOM      5  C   UNL     1      -1.025   1.534   1.202  0.00  0.00    +0.030 C 
ATOM      6  C   UNL     1      -1.881   2.790   1.389  0.00  0.00    +0.110 C 
ENDROOT
BRANCH   4   7
ATOM      7  C   UNL     1      -0.428  -0.278  -0.382  0.00  0.00    +0.232 C 
ATOM      8  O   UNL     1      -0.938  -1.359  -0.589  0.00  0.00    -0.274 OA
ATOM      9  N   UNL     1       0.914  -0.165  -0.336  0.00  0.00    -0.234 N 
ATOM     10  H   UNL     1       1.323   0.699  -0.170  0.00  0.00    +0.173 HD
BRANCH   9  11
ATOM     11  N   UNL     1       1.720  -1.295  -0.528  0.00  0.00    -0.231 N 
ATOM     12  C   UNL     1       3.062  -1.182  -0.481  0.00  0.00    +0.273 C 
ATOM     13  O   UNL     1       3.573  -0.102  -0.274  0.00  0.00    -0.270 OA
ATOM     14  H   UNL     1       1.312  -2.159  -0.694  0.00  0.00    +0.173 HD
BRANCH  12  15
ATOM     15  C   UNL     1       3.929  -2.397  -0.688  0.00  0.00    +0.297 C 
ATOM     16  C   UNL     1       3.702  -3.395   0.457  0.00  0.00    +0.283 C 
ATOM     17  O   UNL     1       4.548  -4.529   0.237  0.00  0.00    -0.484 OA
ATOM     18  C   UNL     1       5.842  -4.272  -0.100  0.00  0.00    +0.162 A 
ATOM     19  C   UNL     1       6.789  -5.277   0.020  0.00  0.00    +0.049 A 
ATOM     20  C   UNL     1       8.106  -5.032  -0.320  0.00  0.00    +0.004 A 
ATOM     21  C   UNL     1       8.482  -3.784  -0.781  0.00  0.00    +0.004 A 
ATOM     22  C   UNL     1       7.544  -2.777  -0.902  0.00  0.00    +0.049 A 
ATOM     23  C   UNL     1       6.221  -3.017  -0.561  0.00  0.00    +0.163 A 
ATOM     24  O   UNL     1       5.308  -2.014  -0.682  0.00  0.00    -0.472 OA
ENDBRANCH  12  15
ENDBRANCH   9  11
ENDBRANCH   4   7
BRANCH   1  25
ATOM     25  S   UNL     1      -4.451   2.791   2.271  0.00  0.00    +0.061 S 
ATOM     26  O   UNL     1      -4.015   3.956   2.958  0.00  0.00    -0.153 OA
ATOM     27  O   UNL     1      -5.701   2.727   1.598  0.00  0.00    -0.153 OA
BRANCH  25  32
ATOM     28  C   UNL     1      -4.429  -1.699   6.301  0.00  0.00    +0.044 C 
ATOM     29  C   UNL     1      -4.434  -0.578   5.294  0.00  0.00    -0.050 A 
ATOM     30  C   UNL     1      -5.081  -0.739   4.083  0.00  0.00    +0.008 A 
ATOM     31  C   UNL     1      -5.086   0.289   3.160  0.00  0.00    -0.024 A 
ATOM     32  C   UNL     1      -4.444   1.480   3.448  0.00  0.00    +0.111 A 
ATOM     33  C   UNL     1      -3.794   1.639   4.657  0.00  0.00    -0.024 A 
ATOM     34  C   UNL     1      -3.792   0.612   5.582  0.00  0.00    +0.008 A 
ATOM     35  C   UNL     1      -3.090   2.935   4.968  0.00  0.00    +0.046 C 
ATOM     36  C   UNL     1      -5.790   0.113   1.839  0.00  0.00    +0.046 C 
ENDBRANCH  25  32
ENDBRANCH   1  25
TORSDOF 5
