REMARK  Name = ZINC16152929
REMARK  10 active torsions:
REMARK  status: ('A' for Active; 'I' for Inactive)
REMARK    1  A    between atoms: C_1  and  C_2
REMARK    2  A    between atoms: C_3  and  C_30
REMARK    3  A    between atoms: C_4  and  C_29
REMARK    4  A    between atoms: C_5  and  S_10
REMARK    5  A    between atoms: C_6  and  C_9
REMARK    6  A    between atoms: C_7  and  C_8
REMARK    7  A    between atoms: S_10  and  N_13
REMARK    8  A    between atoms: N_13  and  C_14
REMARK    9  A    between atoms: C_18  and  S_20
REMARK   10  A    between atoms: S_20  and  N_23
REMARK                            x       y       z     vdW  Elec       q    Type
REMARK                         _______ _______ _______ _____ _____    ______ ____
ROOT
ATOM      1  N   UNL     1       0.785  -5.961  -0.554  0.00  0.00    -0.216 N 
ATOM      2  H   UNL     1       0.809  -6.444  -1.395  0.00  0.00    +0.174 HD
ENDROOT
BRANCH   1   3
ATOM      3  C   UNL     1       1.903  -5.961   0.283  0.00  0.00    +0.050 A 
ATOM      4  C   UNL     1       2.359  -4.770   0.834  0.00  0.00    +0.024 A 
ATOM      5  C   UNL     1       3.464  -4.773   1.662  0.00  0.00    +0.004 A 
ATOM      6  C   UNL     1       4.117  -5.959   1.943  0.00  0.00    +0.029 A 
ATOM      7  C   UNL     1       3.665  -7.146   1.396  0.00  0.00    +0.114 A 
ATOM      8  C   UNL     1       2.557  -7.151   0.572  0.00  0.00    +0.053 A 
BRANCH   7   9
ATOM      9  S   UNL     1       4.501  -8.655   1.756  0.00  0.00    +0.100 S 
ATOM     10  O   UNL     1       4.211  -9.545   0.687  0.00  0.00    -0.146 OA
ATOM     11  O   UNL     1       5.830  -8.307   2.117  0.00  0.00    -0.146 OA
BRANCH   9  12
ATOM     12  N   UNL     1       3.795  -9.295   3.110  0.00  0.00    -0.118 NA
ATOM     13  C   UNL     1       4.223 -10.415   3.595  0.00  0.00    +0.117 C 
ATOM     14  N   UNL     1       5.253 -11.157   3.080  0.00  0.00    -0.331 N 
ATOM     15  C   UNL     1       5.766 -12.061   4.122  0.00  0.00    +0.103 C 
ATOM     16  C   UNL     1       4.538 -12.365   5.009  0.00  0.00    +0.026 C 
ATOM     17  C   UNL     1       3.667 -11.105   4.821  0.00  0.00    +0.074 C 
ATOM     18  H   UNL     1       5.591 -11.095   2.173  0.00  0.00    +0.147 HD
ENDBRANCH   9  12
ENDBRANCH   7   9
ENDBRANCH   1   3
BRANCH   1  19
ATOM     19  S   UNL     1      -0.582  -5.138  -0.111  0.00  0.00    +0.073 S 
ATOM     20  O   UNL     1      -0.824  -5.456   1.253  0.00  0.00    -0.150 OA
ATOM     21  O   UNL     1      -1.545  -5.372  -1.130  0.00  0.00    -0.150 OA
BRANCH  19  26
ATOM     22  C   UNL     1       0.741   0.746  -0.304  0.00  0.00    +0.044 C 
ATOM     23  C   UNL     1       0.410  -0.724  -0.256  0.00  0.00    -0.044 A 
ATOM     24  C   UNL     1       0.418  -1.395   0.953  0.00  0.00    -0.043 A 
ATOM     25  C   UNL     1       0.115  -2.743   0.997  0.00  0.00    -0.020 A 
ATOM     26  C   UNL     1      -0.197  -3.420  -0.167  0.00  0.00    +0.115 A 
ATOM     27  C   UNL     1      -0.206  -2.748  -1.376  0.00  0.00    -0.020 A 
ATOM     28  C   UNL     1       0.093  -1.400  -1.419  0.00  0.00    -0.043 A 
ATOM     29  C   UNL     1       0.078  -0.667  -2.736  0.00  0.00    +0.044 C 
ATOM     30  C   UNL     1      -0.546  -3.486  -2.645  0.00  0.00    +0.046 C 
ATOM     31  C   UNL     1       0.125  -3.475   2.314  0.00  0.00    +0.046 C 
ATOM     32  C   UNL     1       0.759  -0.657   2.222  0.00  0.00    +0.044 C 
ENDBRANCH  19  26
ENDBRANCH   1  19
TORSDOF 5
