REMARK  Name = ZINC61882168
REMARK  5 active torsions:
REMARK  status: ('A' for Active; 'I' for Inactive)
REMARK    1  A    between atoms: C_4  and  S_9
REMARK    2  A    between atoms: C_6  and  N_7
REMARK    3  A    between atoms: S_9  and  N_12
REMARK    4  A    between atoms: N_12  and  C_13
REMARK    5  A    between atoms: C_13  and  C_14
REMARK                            x       y       z     vdW  Elec       q    Type
REMARK                         _______ _______ _______ _____ _____    ______ ____
ROOT
ATOM      1  S   UNL     1       4.048  -0.922  -0.092  0.00  0.00    +0.060 S 
ATOM      2  O   UNL     1       4.174  -2.022  -0.983  0.00  0.00    -0.153 OA
ATOM      3  O   UNL     1       4.935   0.188  -0.123  0.00  0.00    -0.153 OA
ENDROOT
BRANCH   1   7
ATOM      4  C   UNL     1      -0.130   0.736  -0.674  0.00  0.00    +0.044 A 
ATOM      5  C   UNL     1       0.307  -0.329  -1.441  0.00  0.00    +0.045 A 
ATOM      6  C   UNL     1       1.583  -0.833  -1.262  0.00  0.00    +0.049 A 
ATOM      7  C   UNL     1       2.425  -0.275  -0.316  0.00  0.00    +0.122 A 
ATOM      8  C   UNL     1       1.993   0.788   0.453  0.00  0.00    +0.065 A 
ATOM      9  C   UNL     1       0.712   1.298   0.276  0.00  0.00    +0.042 A 
ATOM     10 BR   UNL     1       3.143   1.549   1.746  0.00  0.00    -0.046 Br
ATOM     11 CL   UNL     1      -0.745  -1.033  -2.628  0.00  0.00    -0.083 Cl
BRANCH   9  12
ATOM     12  N   UNL     1       0.273   2.373   1.051  0.00  0.00    -0.357 N 
ATOM     13  H   UNL     1      -0.621   2.728   0.927  0.00  0.00    +0.142 HD
ATOM     14  H   UNL     1       0.862   2.765   1.715  0.00  0.00    +0.142 HD
ENDBRANCH   9  12
ENDBRANCH   1   7
BRANCH   1  15
ATOM     15  N   UNL     1       4.121  -1.543   1.441  0.00  0.00    -0.186 NA
ATOM     16  H   UNL     1       4.727  -1.157   2.093  0.00  0.00    +0.148 HD
BRANCH  15  17
ATOM     17  C   UNL     1       3.270  -2.676   1.813  0.00  0.00    +0.144 C 
BRANCH  17  18
ATOM     18  C   UNL     1       3.788  -3.296   3.085  0.00  0.00    +0.005 A 
ATOM     19  C   UNL     1       4.701  -4.291   3.171  0.00  0.00    +0.109 A 
ATOM     20  N   UNL     1       4.894  -4.561   4.479  0.00  0.00    -0.284 N 
ATOM     21  H   UNL     1       5.496  -5.230   4.841  0.00  0.00    +0.188 HD
ATOM     22  N   UNL     1       4.072  -3.704   5.222  0.00  0.00    -0.182 NA
ATOM     23  C   UNL     1       3.414  -2.942   4.386  0.00  0.00    +0.139 A 
ENDBRANCH  17  18
ENDBRANCH  15  17
ENDBRANCH   1  15
TORSDOF 5
