REMARK  Name = ZINC56546404
REMARK  6 active torsions:
REMARK  status: ('A' for Active; 'I' for Inactive)
REMARK    1  A    between atoms: C_1  and  C_2
REMARK    2  A    between atoms: C_7  and  N_12
REMARK    3  A    between atoms: C_9  and  C_11
REMARK    4  A    between atoms: N_15  and  N_16
REMARK    5  A    between atoms: C_17  and  C_19
REMARK    6  A    between atoms: C_22  and  C_24
REMARK                            x       y       z     vdW  Elec       q    Type
REMARK                         _______ _______ _______ _____ _____    ______ ____
ROOT
ATOM      1  N   UNL     1       2.068  -1.440   5.868  0.00  0.00    -0.225 N 
ATOM      2  C   UNL     1       2.720  -1.886   6.960  0.00  0.00    +0.317 C 
ATOM      3  O   UNL     1       2.629  -1.282   8.012  0.00  0.00    -0.263 OA
ATOM      4  H   UNL     1       2.140  -1.921   5.029  0.00  0.00    +0.173 HD
ENDROOT
BRANCH   1   8
ATOM      5  N   UNL     1       0.735  -0.503   3.687  0.00  0.00    -0.295 N 
ATOM      6  C   UNL     1       0.634   0.166   4.853  0.00  0.00    +0.316 C 
ATOM      7  O   UNL     1      -0.045   1.173   4.919  0.00  0.00    -0.251 OA
ATOM      8  N   UNL     1       1.286  -0.280   5.945  0.00  0.00    -0.218 N 
ATOM      9  H   UNL     1       1.276  -1.306   3.634  0.00  0.00    +0.151 HD
ATOM     10  H   UNL     1       1.213   0.201   6.784  0.00  0.00    +0.174 HD
BRANCH   5  16
ATOM     11  C   UNL     1      -0.019   1.526   0.010  0.00  0.00    +0.008 C 
ATOM     12  C   UNL     1       0.002  -0.004   0.002  0.00  0.00    -0.009 C 
ATOM     13  C   UNL     1      -1.433  -0.534   0.013  0.00  0.00    +0.003 C 
ATOM     14  C   UNL     1      -2.149  -0.040   1.272  0.00  0.00    +0.002 C 
ATOM     15  C   UNL     1      -1.409  -0.547   2.511  0.00  0.00    +0.022 C 
ATOM     16  C   UNL     1       0.026  -0.018   2.500  0.00  0.00    +0.078 C 
ATOM     17  C   UNL     1       0.742  -0.511   1.242  0.00  0.00    +0.009 C 
ATOM     18  C   UNL     1       2.178   0.019   1.231  0.00  0.00    +0.009 C 
ENDBRANCH   5  16
ENDBRANCH   1   8
BRANCH   2  19
ATOM     19  C   UNL     1       3.542  -3.105   6.879  0.00  0.00    +0.305 A 
ATOM     20  N   UNL     1       3.731  -3.847   5.811  0.00  0.00    -0.102 NA
ATOM     21  N   UNL     1       4.506  -4.831   6.106  0.00  0.00    -0.107 NA
ATOM     22  C   UNL     1       4.842  -4.755   7.379  0.00  0.00    +0.249 A 
ATOM     23  O   UNL     1       4.245  -3.663   7.889  0.00  0.00    -0.412 OA
BRANCH  22  24
ATOM     24  C   UNL     1       5.718  -5.693   8.109  0.00  0.00    +0.038 A 
ATOM     25  C   UNL     1       5.985  -5.493   9.465  0.00  0.00    +0.013 A 
ATOM     26  C   UNL     1       6.804  -6.373  10.140  0.00  0.00    +0.001 A 
ATOM     27  C   UNL     1       7.360  -7.453   9.478  0.00  0.00    +0.000 A 
ATOM     28  C   UNL     1       7.100  -7.658   8.134  0.00  0.00    +0.001 A 
ATOM     29  C   UNL     1       6.277  -6.789   7.448  0.00  0.00    +0.013 A 
ENDBRANCH  22  24
ENDBRANCH   2  19
TORSDOF 4
