REMARK  Name = ZINC35472096
REMARK  7 active torsions:
REMARK  status: ('A' for Active; 'I' for Inactive)
REMARK    1  A    between atoms: C_1  and  C_2
REMARK    2  A    between atoms: C_2  and  C_3
REMARK    3  A    between atoms: C_2  and  C_4
REMARK    4  A    between atoms: C_7  and  C_10
REMARK    5  A    between atoms: N_15  and  C_18
REMARK    6  A    between atoms: N_19  and  C_23
REMARK    7  A    between atoms: C_23  and  C_24
REMARK                            x       y       z     vdW  Elec       q    Type
REMARK                         _______ _______ _______ _____ _____    ______ ____
ROOT
ATOM      1  C   UNL     1       2.797  -1.919   4.683  0.00  0.00    +0.142 C 
ATOM      2  C   UNL     1       2.464  -0.995   5.838  0.00  0.00    +0.058 C 
ATOM      3  C   UNL     1       1.897  -1.540   6.933  0.00  0.00    +0.043 C 
ATOM      4  C   UNL     1       1.679  -0.405   7.908  0.00  0.00    +0.159 C 
ATOM      5  N   UNL     1       2.188   0.790   7.218  0.00  0.00    -0.295 N 
ATOM      6  C   UNL     1       2.636   0.393   6.013  0.00  0.00    +0.246 C 
ATOM      7  O   UNL     1       3.125   1.137   5.182  0.00  0.00    -0.270 OA
ATOM      8  C   UNL     1       2.204   2.157   7.745  0.00  0.00    +0.132 C 
ATOM      9  N   UNL     1       1.630  -2.877   7.001  0.00  0.00    -0.253 N 
ATOM     10  C   UNL     1       1.903  -3.739   6.012  0.00  0.00    +0.307 C 
ATOM     11  O   UNL     1       1.629  -4.913   6.163  0.00  0.00    -0.252 OA
ATOM     12  N   UNL     1       2.470  -3.344   4.856  0.00  0.00    -0.288 N 
ATOM     13  H   UNL     1       2.658  -3.985   4.152  0.00  0.00    +0.151 HD
ENDROOT
BRANCH   1  17
ATOM     14  C   UNL     1       0.731  -0.503   1.223  0.00  0.00    -0.045 A 
ATOM     15  C   UNL     1       2.050  -0.148   1.434  0.00  0.00    +0.004 A 
ATOM     16  C   UNL     1       2.719  -0.606   2.554  0.00  0.00    +0.006 A 
ATOM     17  C   UNL     1       2.068  -1.419   3.463  0.00  0.00    -0.023 A 
ATOM     18  C   UNL     1       0.749  -1.773   3.252  0.00  0.00    +0.006 A 
ATOM     19  C   UNL     1       0.079  -1.312   2.135  0.00  0.00    +0.004 A 
BRANCH  14  21
ATOM     20  C   UNL     1      -0.019   1.526   0.010  0.00  0.00    +0.012 C 
ATOM     21  C   UNL     1       0.002  -0.004   0.002  0.00  0.00    +0.013 C 
ATOM     22  C   UNL     1       0.718  -0.497  -1.257  0.00  0.00    +0.012 C 
ENDBRANCH  14  21
ENDBRANCH   1  17
BRANCH   9  23
ATOM     23  C   UNL     1       1.012  -3.399   8.223  0.00  0.00    +0.141 C 
BRANCH  23  24
ATOM     24  C   UNL     1      -0.488  -3.349   8.088  0.00  0.00    -0.015 C 
ATOM     25  C   UNL     1      -1.198  -4.436   8.262  0.00  0.00    +0.005 C 
ENDBRANCH  23  24
ENDBRANCH   9  23
TORSDOF 4
