REMARK  Name = ZINC04121362
REMARK  2 active torsions:
REMARK  status: ('A' for Active; 'I' for Inactive)
REMARK    1  A    between atoms: C_10  and  C_12
REMARK    2  A    between atoms: N_14  and  N_15
REMARK                            x       y       z     vdW  Elec       q    Type
REMARK                         _______ _______ _______ _____ _____    ______ ____
ROOT
ATOM      1  C   UNL     1       1.141   2.087   0.002  0.00  0.00    +0.296 C 
ATOM      2  O   UNL     1       2.201   1.493  -0.011  0.00  0.00    -0.265 OA
ATOM      3  N   UNL     1      -0.017   1.397   0.010  0.00  0.00    -0.228 N 
ATOM      4  H   UNL     1      -0.864   1.870   0.016  0.00  0.00    +0.173 HD
ENDROOT
BRANCH   3   5
ATOM      5  N   UNL     1       0.002  -0.004   0.002  0.00  0.00    -0.242 N 
ATOM      6  C   UNL     1      -1.184  -0.710   0.009  0.00  0.00    +0.176 A 
ATOM      7  N   UNL     1      -2.415  -0.253   0.030  0.00  0.00    -0.222 NA
ATOM      8  C   UNL     1      -3.492  -1.069   0.030  0.00  0.00    +0.099 A 
ATOM      9  C   UNL     1      -3.211  -2.454   0.019  0.00  0.00    +0.042 A 
ATOM     10  S   UNL     1      -1.435  -2.480   0.002  0.00  0.00    -0.051 S 
ATOM     11  C   UNL     1      -4.196  -3.410   0.024  0.00  0.00    +0.017 A 
ATOM     12  C   UNL     1      -5.524  -3.023   0.038  0.00  0.00    +0.003 A 
ATOM     13  C   UNL     1      -5.837  -1.672   0.049  0.00  0.00    +0.022 A 
ATOM     14  C   UNL     1      -4.860  -0.710   0.045  0.00  0.00    +0.067 A 
ATOM     15 CL   UNL     1      -5.307   0.968   0.059  0.00  0.00    -0.081 Cl
ATOM     16  H   UNL     1       0.849  -0.478  -0.009  0.00  0.00    +0.172 HD
ENDBRANCH   3   5
BRANCH   1  26
ATOM     17  C   UNL     1      -0.416   8.309   0.050  0.00  0.00    +0.001 A 
ATOM     18  C   UNL     1      -1.551   7.509   0.057  0.00  0.00    +0.004 A 
ATOM     19  C   UNL     1      -1.444   6.135   0.049  0.00  0.00    +0.047 A 
ATOM     20  C   UNL     1      -0.187   5.538   0.034  0.00  0.00    +0.139 A 
ATOM     21  C   UNL     1       0.956   6.355   0.027  0.00  0.00    +0.064 A 
ATOM     22  C   UNL     1       0.829   7.744   0.035  0.00  0.00    +0.015 A 
ATOM     23  C   UNL     1       2.281   5.706   0.011  0.00  0.00    +0.193 A 
ATOM     24  O   UNL     1       3.311   6.357   0.004  0.00  0.00    -0.287 OA
ATOM     25  C   UNL     1       2.300   4.235   0.003  0.00  0.00    +0.103 A 
ATOM     26  C   UNL     1       1.121   3.568   0.011  0.00  0.00    +0.195 A 
ATOM     27  O   UNL     1      -0.064   4.197   0.020  0.00  0.00    -0.450 OA
ENDBRANCH   1  26
TORSDOF 2
