REMARK  Name = ZINC01645733
REMARK  7 active torsions:
REMARK  status: ('A' for Active; 'I' for Inactive)
REMARK    1  A    between atoms: C_4  and  C_7
REMARK    2  A    between atoms: C_7  and  O_8
REMARK    3  A    between atoms: O_8  and  C_9
REMARK    4  A    between atoms: C_11  and  C_13
REMARK    5  A    between atoms: C_11  and  C_23
REMARK    6  A    between atoms: C_13  and  N_14
REMARK    7  A    between atoms: C_23  and  O_24
REMARK                            x       y       z     vdW  Elec       q    Type
REMARK                         _______ _______ _______ _____ _____    ______ ____
ROOT
ATOM      1  C   UNL     1       4.064   4.947  -1.467  0.00  0.00    +0.120 C 
ATOM      2  C   UNL     1       3.902   6.353  -2.068  0.00  0.00    +0.042 C 
ATOM      3  C   UNL     1       5.198   6.083  -2.850  0.00  0.00    +0.014 C 
ATOM      4  C   UNL     1       4.867   4.586  -2.728  0.00  0.00    +0.042 C 
ENDROOT
BRANCH   1   5
ATOM      5  O   UNL     1       2.834   4.230  -1.347  0.00  0.00    -0.372 OA
BRANCH   5   6
ATOM      6  C   UNL     1       2.422   4.004   0.003  0.00  0.00    +0.195 C 
BRANCH   6  10
ATOM      7  C   UNL     1      -1.267   1.851   0.020  0.00  0.00    +0.000 A 
ATOM      8  C   UNL     1      -0.067   1.166   0.033  0.00  0.00    +0.000 A 
ATOM      9  C   UNL     1       1.127   1.863   0.025  0.00  0.00    +0.006 A 
ATOM     10  C   UNL     1       1.121   3.245   0.011  0.00  0.00    -0.022 A 
ATOM     11  C   UNL     1      -0.080   3.930   0.004  0.00  0.00    +0.006 A 
ATOM     12  C   UNL     1      -1.273   3.234   0.011  0.00  0.00    +0.000 A 
ENDBRANCH   6  10
ENDBRANCH   5   6
ENDBRANCH   1   5
BRANCH   3  13
ATOM     13  C   UNL     1       6.466   6.493  -2.099  0.00  0.00    +0.112 C 
BRANCH  13  14
ATOM     14  N   UNL     1       7.628   5.839  -2.707  0.00  0.00    -0.328 N 
ATOM     15  C   UNL     1       8.881   5.978  -2.133  0.00  0.00    +0.125 A 
ATOM     16  C   UNL     1       9.049   6.744  -0.978  0.00  0.00    +0.083 A 
ATOM     17  C   UNL     1      10.317   6.851  -0.437  0.00  0.00    +0.136 A 
ATOM     18  N   UNL     1      11.330   6.235  -1.032  0.00  0.00    -0.203 NA
ATOM     19  C   UNL     1      11.141   5.519  -2.131  0.00  0.00    +0.216 A 
ATOM     20  N   UNL     1       9.941   5.388  -2.677  0.00  0.00    -0.200 NA
ATOM     21  N   UNL     1      12.223   4.892  -2.722  0.00  0.00    -0.327 N 
ATOM     22 CL   UNL     1      10.582   7.785   1.002  0.00  0.00    -0.062 Cl
ATOM     23  H   UNL     1       7.519   5.308  -3.511  0.00  0.00    +0.147 HD
ATOM     24  H   UNL     1      12.098   4.365  -3.527  0.00  0.00    +0.145 HD
ATOM     25  H   UNL     1      13.107   4.980  -2.333  0.00  0.00    +0.145 HD
ENDBRANCH  13  14
ENDBRANCH   3  13
BRANCH   3  26
ATOM     26  C   UNL     1       5.166   6.603  -4.289  0.00  0.00    +0.164 C 
BRANCH  26  27
ATOM     27  O   UNL     1       5.363   8.018  -4.288  0.00  0.00    -0.394 OA
ATOM     28  H   UNL     1       5.355   8.416  -5.169  0.00  0.00    +0.209 HD
ENDBRANCH  26  27
ENDBRANCH   3  26
TORSDOF 7
