REMARK  Name = ZINC38058821
REMARK  8 active torsions:
REMARK  status: ('A' for Active; 'I' for Inactive)
REMARK    1  A    between atoms: C_1  and  C_2
REMARK    2  A    between atoms: C_4  and  C_8
REMARK    3  A    between atoms: C_5  and  C_7
REMARK    4  A    between atoms: C_8  and  C_10
REMARK    5  A    between atoms: C_8  and  N_11
REMARK    6  A    between atoms: N_11  and  S_12
REMARK    7  A    between atoms: S_12  and  C_15
REMARK    8  A    between atoms: C_18  and  C_20
REMARK                            x       y       z     vdW  Elec       q    Type
REMARK                         _______ _______ _______ _____ _____    ______ ____
ROOT
ATOM      1  N   UNL     1      -3.134  -2.574   0.474  0.00  0.00    -0.182 NA
ATOM      2  H   UNL     1      -3.303  -1.643   0.262  0.00  0.00    +0.149 HD
ENDROOT
BRANCH   1   3
ATOM      3  S   UNL     1      -4.224  -3.429   1.381  0.00  0.00    +0.065 S 
ATOM      4  O   UNL     1      -5.272  -2.527   1.712  0.00  0.00    -0.153 OA
ATOM      5  O   UNL     1      -4.459  -4.648   0.690  0.00  0.00    -0.153 OA
BRANCH   3   6
ATOM      6  C   UNL     1      -3.426  -3.852   2.893  0.00  0.00    +0.143 A 
ATOM      7  C   UNL     1      -3.403  -3.143   4.051  0.00  0.00    +0.037 A 
ATOM      8  C   UNL     1      -2.720  -3.647   5.129  0.00  0.00    +0.025 A 
ATOM      9  C   UNL     1      -2.098  -4.873   4.929  0.00  0.00    +0.102 A 
ATOM     10  S   UNL     1      -2.527  -5.229   3.236  0.00  0.00    -0.062 S 
BRANCH   9  11
ATOM     11  C   UNL     1      -1.327  -5.643   5.836  0.00  0.00    +0.393 C 
ATOM     12  O   UNL     1      -1.138  -5.237   6.976  0.00  0.00    -0.240 OA
ATOM     13  O   UNL     1      -0.851  -6.714   5.480  0.00  0.00    -0.240 OA
ENDBRANCH   9  11
ENDBRANCH   3   6
ENDBRANCH   1   3
BRANCH   1  14
ATOM     14  C   UNL     1      -1.912  -3.224  -0.008  0.00  0.00    +0.104 C 
ATOM     15  C   UNL     1      -2.137  -3.741  -1.430  0.00  0.00    +0.031 C 
BRANCH  14  19
ATOM     16  C   UNL     1      -0.018   1.503   0.010  0.00  0.00    +0.051 C 
ATOM     17  C   UNL     1       0.002  -0.004   0.002  0.00  0.00    -0.013 A 
ATOM     18  C   UNL     1      -1.039  -0.872   0.002  0.00  0.00    +0.016 A 
ATOM     19  C   UNL     1      -0.780  -2.230  -0.007  0.00  0.00    -0.019 A 
ATOM     20  C   UNL     1       0.507  -2.653  -0.016  0.00  0.00    -0.008 A 
ATOM     21  S   UNL     1       1.404  -1.109  -0.018  0.00  0.00    -0.098 S 
ATOM     22  C   UNL     1       1.043  -4.062  -0.027  0.00  0.00    +0.052 C 
ENDBRANCH  14  19
ENDBRANCH   1  14
TORSDOF 5
