REMARK  Name = ZINC45353397
REMARK  8 active torsions:
REMARK  status: ('A' for Active; 'I' for Inactive)
REMARK    1  A    between atoms: C_9  and  C_12
REMARK    2  A    between atoms: C_15  and  C_17
REMARK    3  A    between atoms: C_17  and  O_18
REMARK    4  A    between atoms: O_18  and  C_19
REMARK    5  A    between atoms: C_19  and  C_21
REMARK    6  A    between atoms: C_21  and  C_22
REMARK    7  A    between atoms: C_22  and  N_23
REMARK    8  A    between atoms: N_26  and  C_27
REMARK                            x       y       z     vdW  Elec       q    Type
REMARK                         _______ _______ _______ _____ _____    ______ ____
ROOT
ATOM      1  C   UNL     1      -3.478  -2.602  -0.820  0.00  0.00    +0.309 C 
ATOM      2  O   UNL     1      -3.683  -1.411  -0.837  0.00  0.00    -0.251 OA
ENDROOT
BRANCH   1   3
ATOM      3  O   UNL     1      -2.231  -3.066  -0.644  0.00  0.00    -0.455 OA
BRANCH   3   4
ATOM      4  C   UNL     1      -1.194  -2.095  -0.483  0.00  0.00    +0.328 C 
BRANCH   4  15
ATOM      5  C   UNL     1       3.832  -4.684   0.214  0.00  0.00    +0.002 A 
ATOM      6  C   UNL     1       4.874  -3.964   0.767  0.00  0.00    +0.004 A 
ATOM      7  C   UNL     1       4.719  -2.621   1.055  0.00  0.00    +0.047 A 
ATOM      8  C   UNL     1       3.513  -1.989   0.790  0.00  0.00    +0.143 A 
ATOM      9  C   UNL     1       2.463  -2.717   0.235  0.00  0.00    +0.078 A 
ATOM     10  C   UNL     1       2.625  -4.063  -0.052  0.00  0.00    +0.027 A 
ATOM     11  N   UNL     1       1.237  -2.083  -0.028  0.00  0.00    -0.261 N 
ATOM     12  C   UNL     1       1.208  -0.611   0.003  0.00  0.00    +0.168 C 
ATOM     13  C   UNL     1       2.042  -0.155   1.209  0.00  0.00    +0.276 C 
ATOM     14  O   UNL     1       3.370  -0.667   1.071  0.00  0.00    -0.476 OA
ATOM     15  C   UNL     1       0.127  -2.797  -0.299  0.00  0.00    +0.258 C 
ATOM     16  O   UNL     1       0.191  -4.005  -0.395  0.00  0.00    -0.272 OA
BRANCH  13  17
ATOM     17  C   UNL     1       2.081   1.350   1.256  0.00  0.00    +0.253 C 
ATOM     18  O   UNL     1       3.132   1.935   1.100  0.00  0.00    -0.272 OA
ATOM     19  N   UNL     1       0.948   2.047   1.473  0.00  0.00    -0.326 N 
ATOM     20  H   UNL     1       0.107   1.580   1.598  0.00  0.00    +0.145 HD
ATOM     21  H   UNL     1       0.973   3.017   1.503  0.00  0.00    +0.145 HD
ENDBRANCH  13  17
ENDBRANCH   4  15
ENDBRANCH   3   4
ENDBRANCH   1   3
BRANCH   1  22
ATOM     22  C   UNL     1      -4.623  -3.566  -0.997  0.00  0.00    +0.139 C 
BRANCH  22  23
ATOM     23  C   UNL     1      -5.925  -2.783  -1.178  0.00  0.00    +0.117 C 
BRANCH  23  24
ATOM     24  N   UNL     1      -7.038  -3.720  -1.350  0.00  0.00    -0.299 N 
ATOM     25  C   UNL     1      -8.290  -3.254  -1.526  0.00  0.00    +0.300 C 
ATOM     26  O   UNL     1      -8.496  -2.056  -1.544  0.00  0.00    -0.253 OA
ATOM     27  N   UNL     1      -9.314  -4.116  -1.684  0.00  0.00    -0.294 N 
ATOM     28  H   UNL     1      -6.873  -4.676  -1.336  0.00  0.00    +0.150 HD
ATOM     29  H   UNL     1      -9.149  -5.072  -1.671  0.00  0.00    +0.151 HD
BRANCH  27  30
ATOM     30  C   UNL     1     -10.675  -3.610  -1.877  0.00  0.00    +0.037 C 
ATOM     31  C   UNL     1     -10.723  -2.743  -3.137  0.00  0.00    +0.029 C 
ATOM     32  C   UNL     1     -12.145  -2.214  -3.338  0.00  0.00    -0.008 C 
ATOM     33  C   UNL     1     -13.110  -3.392  -3.491  0.00  0.00    +0.007 C 
ATOM     34  C   UNL     1     -13.062  -4.258  -2.230  0.00  0.00    -0.008 C 
ATOM     35  C   UNL     1     -11.640  -4.787  -2.030  0.00  0.00    +0.029 C 
ATOM     36  C   UNL     1     -13.470  -3.418  -1.018  0.00  0.00    +0.007 C 
ATOM     37  C   UNL     1     -12.504  -2.241  -0.865  0.00  0.00    -0.008 C 
ATOM     38  C   UNL     1     -12.553  -1.375  -2.126  0.00  0.00    +0.007 C 
ATOM     39  C   UNL     1     -11.083  -2.770  -0.664  0.00  0.00    +0.029 C 
ENDBRANCH  27  30
ENDBRANCH  23  24
ENDBRANCH  22  23
ENDBRANCH   1  22
TORSDOF 8
