REMARK  Name = ZINC54412336
REMARK  10 active torsions:
REMARK  status: ('A' for Active; 'I' for Inactive)
REMARK    1  A    between atoms: C_1  and  C_2
REMARK    2  A    between atoms: C_5  and  N_24
REMARK    3  A    between atoms: C_7  and  N_8
REMARK    4  A    between atoms: N_11  and  C_12
REMARK    5  A    between atoms: C_12  and  C_13
REMARK    6  A    between atoms: C_13  and  C_14
REMARK    7  A    between atoms: C_13  and  C_15
REMARK    8  A    between atoms: C_13  and  N_16
REMARK    9  A    between atoms: C_20  and  C_23
REMARK   10  A    between atoms: C_25  and  C_27
REMARK                            x       y       z     vdW  Elec       q    Type
REMARK                         _______ _______ _______ _____ _____    ______ ____
ROOT
ATOM      1  N   UNL     1       0.437  -0.233   2.348  0.00  0.00    -0.269 N 
ATOM      2  C   UNL     1       0.824  -0.933   3.433  0.00  0.00    +0.304 C 
ATOM      3  O   UNL     1       1.081  -2.117   3.332  0.00  0.00    -0.253 OA
ATOM      4  N   UNL     1       0.926  -0.321   4.629  0.00  0.00    -0.300 N 
ATOM      5  H   UNL     1       0.292   0.724   2.414  0.00  0.00    +0.156 HD
ATOM      6  H   UNL     1       0.721   0.624   4.709  0.00  0.00    +0.150 HD
ENDROOT
BRANCH   1  13
ATOM      7  C   UNL     1      -1.442   0.869   0.520  0.00  0.00    +0.045 C 
ATOM      8  C   UNL     1      -0.665  -0.382   0.204  0.00  0.00    -0.029 A 
ATOM      9  C   UNL     1      -0.852  -1.024  -1.006  0.00  0.00    +0.007 A 
ATOM     10  C   UNL     1      -0.141  -2.171  -1.300  0.00  0.00    +0.024 A 
ATOM     11  C   UNL     1       0.764  -2.684  -0.379  0.00  0.00    +0.035 A 
ATOM     12  C   UNL     1       0.954  -2.042   0.836  0.00  0.00    +0.047 A 
ATOM     13  C   UNL     1       0.243  -0.887   1.126  0.00  0.00    +0.039 A 
BRANCH  11  14
ATOM     14  N   UNL     1       1.483  -3.847  -0.677  0.00  0.00    -0.286 N 
ATOM     15  C   UNL     1       1.896  -4.079  -1.939  0.00  0.00    +0.214 C 
ATOM     16  O   UNL     1       1.574  -3.323  -2.831  0.00  0.00    -0.276 OA
ATOM     17  C   UNL     1       2.756  -5.279  -2.242  0.00  0.00    +0.109 C 
ATOM     18  H   UNL     1       1.685  -4.486   0.024  0.00  0.00    +0.155 HD
ENDBRANCH  11  14
ENDBRANCH   1  13
BRANCH   4  19
ATOM     19  C   UNL     1       1.347  -1.082   5.808  0.00  0.00    +0.093 C 
BRANCH  19  20
ATOM     20  C   UNL     1       1.381  -0.157   7.026  0.00  0.00    -0.055 C 
ATOM     21  C   UNL     1       1.820  -0.952   8.258  0.00  0.00    -0.008 C 
ATOM     22  C   UNL     1       2.370   0.983   6.775  0.00  0.00    -0.008 C 
BRANCH  20  23
ATOM     23  N   UNL     1       0.041   0.400   7.255  0.00  0.00    +0.384 N 
ATOM     24  C   UNL     1      -0.909  -0.695   7.488  0.00  0.00    -0.078 C 
ATOM     25  C   UNL     1      -2.320  -0.125   7.647  0.00  0.00    -0.018 C 
ATOM     26  C   UNL     1      -2.346   0.836   8.839  0.00  0.00    -0.001 C 
ATOM     27  C   UNL     1      -1.299   1.932   8.620  0.00  0.00    -0.031 C 
ATOM     28  C   UNL     1       0.075   1.287   8.425  0.00  0.00    -0.075 C 
ATOM     29  C   UNL     1      -1.262   2.855   9.840  0.00  0.00    +0.005 C 
ATOM     30  H   UNL     1      -0.247   0.926   6.444  0.00  0.00    -0.081 HD
ENDBRANCH  20  23
ENDBRANCH  19  20
ENDBRANCH   4  19
TORSDOF 5
