REMARK  Name = ZINC36368059
REMARK  5 active torsions:
REMARK  status: ('A' for Active; 'I' for Inactive)
REMARK    1  A    between atoms: C_1  and  C_2
REMARK    2  A    between atoms: C_4  and  N_28
REMARK    3  A    between atoms: C_6  and  C_9
REMARK    4  A    between atoms: C_7  and  O_8
REMARK    5  A    between atoms: CA_22  and  C_25
REMARK                            x       y       z     vdW  Elec       q    Type
REMARK                         _______ _______ _______ _____ _____    ______ ____
ROOT
ATOM      1  C   UNL     1       0.052  -2.856   2.487  0.00  0.00    +0.136 C 
ATOM      2  C   UNL     1      -1.362  -3.034   2.988  0.00  0.00    +0.042 A 
ATOM      3  C   UNL     1      -1.823  -4.201   3.493  0.00  0.00    -0.015 A 
ATOM      4  C   UNL     1      -3.205  -3.990   3.862  0.00  0.00    +0.003 A 
ATOM      5  C   UNL     1      -4.178  -4.824   4.423  0.00  0.00    +0.010 A 
ATOM      6  C   UNL     1      -5.416  -4.273   4.642  0.00  0.00    +0.001 A 
ATOM      7  C   UNL     1      -5.703  -2.955   4.326  0.00  0.00    +0.002 A 
ATOM      8  C   UNL     1      -4.760  -2.108   3.770  0.00  0.00    +0.026 A 
ATOM      9  C   UNL     1      -3.493  -2.639   3.537  0.00  0.00    +0.047 A 
ATOM     10  N   UNL     1      -2.356  -2.094   3.013  0.00  0.00    -0.356 N 
ATOM     11  H   UNL     1      -2.266  -1.179   2.705  0.00  0.00    +0.166 HD
ATOM     12  C   UNL     1      -0.981  -5.446   3.614  0.00  0.00    +0.068 C 
ATOM     13  CA  UNL     1       0.491  -5.040   3.458  0.00  0.00    +0.173 C 
ATOM     14  N   UNL     1       0.646  -4.186   2.271  0.00  0.00    -0.292 NA
ATOM     15  H   UNL     1       0.251  -4.630   1.455  0.00  0.00    +0.124 HD
ENDROOT
BRANCH   1  21
ATOM     16  C   UNL     1      -0.018   1.503   0.010  0.00  0.00    +0.047 C 
ATOM     17  C   UNL     1       0.002  -0.004   0.002  0.00  0.00    -0.007 A 
ATOM     18  C   UNL     1       0.006  -0.689  -1.198  0.00  0.00    +0.039 A 
ATOM     19  C   UNL     1       0.025  -2.071  -1.206  0.00  0.00    +0.127 A 
ATOM     20  C   UNL     1       0.040  -2.772  -0.014  0.00  0.00    +0.042 A 
ATOM     21  C   UNL     1       0.036  -2.092   1.188  0.00  0.00    +0.019 A 
ATOM     22  C   UNL     1       0.023  -0.705   1.199  0.00  0.00    +0.125 A 
BRANCH  19  23
ATOM     23  N   UNL     1       0.028  -2.802  -2.493  0.00  0.00    +0.056 N 
ATOM     24  O   UNL     1       0.015  -2.191  -3.536  0.00  0.00    -0.126 OA
ATOM     25  O   UNL     1       0.044  -4.011  -2.502  0.00  0.00    -0.126 OA
ENDBRANCH  19  23
BRANCH  22  26
ATOM     26  O   UNL     1       0.025  -0.033   2.381  0.00  0.00    -0.506 OA
ATOM     27  H   UNL     1      -0.858   0.149   2.731  0.00  0.00    +0.292 HD
ENDBRANCH  22  26
ENDBRANCH   1  21
BRANCH  13  28
ATOM     28  C   UNL     1       1.340  -6.275   3.300  0.00  0.00    +0.373 C 
ATOM     29  O   UNL     1       1.862  -6.523   2.227  0.00  0.00    -0.245 OA
ATOM     30  OXT UNL     1       1.504  -7.027   4.246  0.00  0.00    -0.245 OA
ENDBRANCH  13  28
TORSDOF 4
