REMARK  Name = ZINC65742645
REMARK  14 active torsions:
REMARK  status: ('A' for Active; 'I' for Inactive)
REMARK    1  A    between atoms: C_1  and  C_2
REMARK    2  A    between atoms: C_2  and  C_3
REMARK    3  A    between atoms: C_2  and  C_4
REMARK    4  A    between atoms: C_2  and  O_24
REMARK    5  A    between atoms: C_4  and  O_6
REMARK    6  A    between atoms: O_6  and  C_7
REMARK    7  A    between atoms: C_9  and  O_23
REMARK    8  A    between atoms: C_11  and  O_22
REMARK    9  A    between atoms: C_13  and  O_21
REMARK   10  A    between atoms: C_15  and  C_18
REMARK   11  A    between atoms: O_24  and  C_25
REMARK   12  A    between atoms: C_28  and  C_31
REMARK   13  A    between atoms: C_31  and  C_33
REMARK   14  A    between atoms: C_31  and  O_40
REMARK                            x       y       z     vdW  Elec       q    Type
REMARK                         _______ _______ _______ _____ _____    ______ ____
ROOT
ATOM      1  C   UNL     1       0.453   1.476   0.049  0.00  0.00    +0.067 C 
ATOM      2  C   UNL     1       0.240  -0.039   0.050  0.00  0.00    +0.201 C 
ATOM      3  C   UNL     1       1.265  -0.698   0.974  0.00  0.00    +0.067 C 
ENDROOT
BRANCH   2   4
ATOM      4  C   UNL     1      -1.151  -0.351   0.540  0.00  0.00    +0.353 C 
ATOM      5  O   UNL     1      -1.924  -0.944  -0.175  0.00  0.00    -0.246 OA
BRANCH   4   6
ATOM      6  O   UNL     1      -1.531   0.031   1.769  0.00  0.00    -0.429 OA
BRANCH   6   7
ATOM      7  C   UNL     1      -2.863  -0.298   2.168  0.00  0.00    +0.343 C 
ATOM      8  C   UNL     1      -3.072   0.103   3.631  0.00  0.00    +0.214 C 
ATOM      9  C   UNL     1      -2.907   1.620   3.765  0.00  0.00    +0.180 C 
ATOM     10  C   UNL     1      -3.897   2.315   2.825  0.00  0.00    +0.186 C 
ATOM     11  C   UNL     1      -3.656   1.829   1.393  0.00  0.00    +0.266 C 
ATOM     12  O   UNL     1      -3.794   0.407   1.345  0.00  0.00    -0.322 OA
BRANCH  11  13
ATOM     13  C   UNL     1      -4.665   2.464   0.471  0.00  0.00    +0.387 C 
ATOM     14  O   UNL     1      -4.655   3.670   0.295  0.00  0.00    -0.243 OA
ATOM     15  O   UNL     1      -5.490   1.771  -0.100  0.00  0.00    -0.243 OA
ENDBRANCH  11  13
BRANCH  10  16
ATOM     16  O   UNL     1      -5.233   1.999   3.220  0.00  0.00    -0.386 OA
ATOM     17  H   UNL     1      -5.914   2.406   2.667  0.00  0.00    +0.210 HD
ENDBRANCH  10  16
BRANCH   9  18
ATOM     18  O   UNL     1      -3.170   2.012   5.114  0.00  0.00    -0.386 OA
ATOM     19  H   UNL     1      -2.583   1.603   5.764  0.00  0.00    +0.210 HD
ENDBRANCH   9  18
BRANCH   8  20
ATOM     20  O   UNL     1      -2.105  -0.558   4.449  0.00  0.00    -0.383 OA
ATOM     21  H   UNL     1      -2.149  -1.523   4.409  0.00  0.00    +0.210 HD
ENDBRANCH   8  20
ENDBRANCH   6   7
ENDBRANCH   4   6
ENDBRANCH   2   4
BRANCH   2  22
ATOM     22  O   UNL     1       0.401  -0.544  -1.277  0.00  0.00    -0.475 OA
BRANCH  22  23
ATOM     23  C   UNL     1       0.264  -1.885  -1.449  0.00  0.00    +0.122 A 
ATOM     24  C   UNL     1      -0.145  -2.682  -0.390  0.00  0.00    +0.046 A 
ATOM     25  C   UNL     1      -0.284  -4.045  -0.567  0.00  0.00    +0.010 A 
ATOM     26  C   UNL     1      -0.015  -4.615  -1.797  0.00  0.00    -0.015 A 
ATOM     27  C   UNL     1       0.394  -3.823  -2.854  0.00  0.00    +0.010 A 
ATOM     28  C   UNL     1       0.528  -2.458  -2.684  0.00  0.00    +0.046 A 
BRANCH  26  29
ATOM     29  C   UNL     1      -0.167  -6.102  -1.987  0.00  0.00    +0.175 C 
BRANCH  29  30
ATOM     30  C   UNL     1      -1.483  -6.390  -2.663  0.00  0.00    -0.015 A 
ATOM     31  C   UNL     1      -1.576  -6.344  -4.042  0.00  0.00    +0.008 A 
ATOM     32  C   UNL     1      -2.782  -6.608  -4.663  0.00  0.00    +0.020 A 
ATOM     33  C   UNL     1      -3.897  -6.919  -3.904  0.00  0.00    +0.041 A 
ATOM     34  C   UNL     1      -3.803  -6.965  -2.525  0.00  0.00    +0.020 A 
ATOM     35  C   UNL     1      -2.595  -6.707  -1.905  0.00  0.00    +0.008 A 
ATOM     36 CL   UNL     1      -5.412  -7.251  -4.683  0.00  0.00    -0.084 Cl
ENDBRANCH  29  30
BRANCH  29  37
ATOM     37  O   UNL     1       0.903  -6.591  -2.799  0.00  0.00    -0.383 OA
ATOM     38  H   UNL     1       0.941  -6.193  -3.679  0.00  0.00    +0.211 HD
ENDBRANCH  29  37
ENDBRANCH  26  29
ENDBRANCH  22  23
ENDBRANCH   2  22
TORSDOF 12
