REMARK  Name = ZINC45724283
REMARK  6 active torsions:
REMARK  status: ('A' for Active; 'I' for Inactive)
REMARK    1  A    between atoms: C_1  and  C_2
REMARK    2  A    between atoms: C_7  and  C_8
REMARK    3  A    between atoms: C_8  and  N_9
REMARK    4  A    between atoms: N_18  and  C_19
REMARK    5  A    between atoms: C_24  and  C_25
REMARK    6  A    between atoms: C_25  and  C_26
REMARK                            x       y       z     vdW  Elec       q    Type
REMARK                         _______ _______ _______ _____ _____    ______ ____
ROOT
ATOM      1  N   UNL     1      -1.312   0.117   2.599  0.00  0.00    +0.383 N 
ATOM      2  C   UNL     1      -0.958   0.930   3.760  0.00  0.00    -0.077 C 
ATOM      3  C   UNL     1      -1.913   2.098   3.862  0.00  0.00    +0.000 C 
ATOM      4  C   UNL     1      -3.080   1.726   4.796  0.00  0.00    +0.107 C 
ATOM      5  N   UNL     1      -3.510   0.330   4.578  0.00  0.00    -0.287 N 
ATOM      6  C   UNL     1      -3.621  -0.250   3.255  0.00  0.00    +0.091 C 
ATOM      7  C   UNL     1      -2.274  -0.888   2.846  0.00  0.00    -0.059 C 
ATOM      8  C   UNL     1      -3.808  -0.433   5.649  0.00  0.00    +0.306 C 
ATOM      9  O   UNL     1      -3.637   0.002   6.771  0.00  0.00    -0.252 OA
ATOM     10  N   UNL     1      -4.297  -1.677   5.475  0.00  0.00    -0.269 N 
ATOM     11  H   UNL     1      -4.370  -2.049   4.582  0.00  0.00    +0.156 HD
ATOM     12  H   UNL     1      -1.670   0.730   1.881  0.00  0.00    -0.081 HD
ENDROOT
BRANCH  10  13
ATOM     13  C   UNL     1      -4.700  -2.431   6.582  0.00  0.00    +0.038 A 
ATOM     14  C   UNL     1      -4.958  -1.805   7.795  0.00  0.00    +0.023 A 
ATOM     15  C   UNL     1      -5.356  -2.552   8.886  0.00  0.00    +0.002 A 
ATOM     16  C   UNL     1      -5.496  -3.924   8.772  0.00  0.00    +0.000 A 
ATOM     17  C   UNL     1      -5.239  -4.550   7.567  0.00  0.00    +0.006 A 
ATOM     18  C   UNL     1      -4.847  -3.807   6.470  0.00  0.00    -0.017 A 
BRANCH  18  19
ATOM     19  C   UNL     1      -4.573  -4.491   5.155  0.00  0.00    +0.132 C 
BRANCH  19  20
ATOM     20  C   UNL     1      -3.099  -4.784   5.039  0.00  0.00    +0.215 C 
ATOM     21  O   UNL     1      -2.346  -4.470   5.936  0.00  0.00    -0.276 OA
ATOM     22  N   UNL     1      -2.619  -5.396   3.939  0.00  0.00    -0.329 N 
ATOM     23  H   UNL     1      -3.222  -5.648   3.221  0.00  0.00    +0.145 HD
ATOM     24  H   UNL     1      -1.670  -5.585   3.864  0.00  0.00    +0.145 HD
ENDBRANCH  19  20
ENDBRANCH  18  19
ENDBRANCH  10  13
BRANCH   1  25
ATOM     25  C   UNL     1      -0.092  -0.524   2.092  0.00  0.00    -0.043 C 
BRANCH  25  32
ATOM     26  C   UNL     1      -0.144   1.099  -0.297  0.00  0.00    +0.044 C 
ATOM     27  C   UNL     1      -0.401  -0.384  -0.388  0.00  0.00    -0.049 A 
ATOM     28  C   UNL     1      -0.656  -0.967  -1.615  0.00  0.00    +0.003 A 
ATOM     29  C   UNL     1      -0.892  -2.327  -1.697  0.00  0.00    +0.000 A 
ATOM     30  C   UNL     1      -0.872  -3.103  -0.553  0.00  0.00    +0.000 A 
ATOM     31  C   UNL     1      -0.616  -2.519   0.673  0.00  0.00    +0.002 A 
ATOM     32  C   UNL     1      -0.376  -1.160   0.755  0.00  0.00    -0.061 A 
ENDBRANCH  25  32
ENDBRANCH   1  25
TORSDOF 5
