REMARK  Name = ZINC15951911
REMARK  7 active torsions:
REMARK  status: ('A' for Active; 'I' for Inactive)
REMARK    1  A    between atoms: C_1  and  C_2
REMARK    2  A    between atoms: C_11  and  C_39
REMARK    3  A    between atoms: N_13  and  C_17
REMARK    4  A    between atoms: C_21  and  C_23
REMARK    5  A    between atoms: N_25  and  C_26
REMARK    6  A    between atoms: N_29  and  C_32
REMARK    7  A    between atoms: C_32  and  C_33
REMARK                            x       y       z     vdW  Elec       q    Type
REMARK                         _______ _______ _______ _____ _____    ______ ____
ROOT
ATOM      1  C   UNL     1       2.502  -5.928   1.119  0.00  0.00    +0.042 A 
ATOM      2  C   UNL     1       2.039  -6.858   0.195  0.00  0.00    +0.024 A 
ATOM      3  C   UNL     1       2.880  -7.850  -0.273  0.00  0.00    +0.003 A 
ATOM      4  C   UNL     1       4.184  -7.925   0.174  0.00  0.00    +0.013 A 
ATOM      5  C   UNL     1       4.658  -6.995   1.101  0.00  0.00    +0.038 A 
ATOM      6  C   UNL     1       3.811  -5.990   1.569  0.00  0.00    +0.036 A 
ENDROOT
BRANCH   1  18
ATOM      7  C   UNL     1       2.148  -0.393   6.534  0.00  0.00    +0.044 C 
ATOM      8  C   UNL     1       2.293  -1.052   5.187  0.00  0.00    -0.050 A 
ATOM      9  C   UNL     1       3.525  -1.082   4.559  0.00  0.00    +0.007 A 
ATOM     10  C   UNL     1       3.657  -1.681   3.324  0.00  0.00    +0.046 A 
ATOM     11  C   UNL     1       2.553  -2.261   2.705  0.00  0.00    +0.128 A 
ATOM     12  C   UNL     1       1.325  -2.234   3.340  0.00  0.00    +0.015 A 
ATOM     13  C   UNL     1       1.196  -1.633   4.579  0.00  0.00    +0.012 A 
ATOM     14  C   UNL     1       0.109  -2.871   2.705  0.00  0.00    +0.114 C 
ATOM     15  C   UNL     1       0.325  -2.910   1.184  0.00  0.00    +0.096 C 
ATOM     16  C   UNL     1       1.666  -3.616   0.943  0.00  0.00    +0.185 C 
ATOM     17  O   UNL     1       2.719  -2.833   1.485  0.00  0.00    -0.468 OA
ATOM     18  N   UNL     1       1.647  -4.925   1.590  0.00  0.00    -0.216 N 
ATOM     19  C   UNL     1       0.834  -5.195   2.623  0.00  0.00    +0.310 C 
ATOM     20  O   UNL     1       0.812  -6.326   3.070  0.00  0.00    -0.252 OA
ATOM     21  N   UNL     1       0.032  -4.257   3.196  0.00  0.00    -0.292 N 
ATOM     22  C   UNL     1       1.879  -3.804  -0.561  0.00  0.00    +0.079 C 
ATOM     23  H   UNL     1      -0.585  -4.489   3.908  0.00  0.00    +0.151 HD
ENDBRANCH   1  18
BRANCH   5  24
ATOM     24  C   UNL     1       6.054  -7.073   1.581  0.00  0.00    +0.244 C 
ATOM     25  O   UNL     1       6.465  -6.262   2.389  0.00  0.00    -0.270 OA
ATOM     26  N   UNL     1       6.871  -8.042   1.124  0.00  0.00    -0.309 N 
ATOM     27  H   UNL     1       6.543  -8.688   0.479  0.00  0.00    +0.149 HD
BRANCH  26  28
ATOM     28  C   UNL     1       8.255  -8.118   1.600  0.00  0.00    +0.070 C 
ATOM     29  C   UNL     1       9.138  -7.193   0.758  0.00  0.00    +0.004 C 
ATOM     30  C   UNL     1      10.593  -7.337   1.208  0.00  0.00    -0.077 C 
ATOM     31  N   UNL     1      11.028  -8.728   1.029  0.00  0.00    +0.382 N 
ATOM     32  C   UNL     1      10.233  -9.613   1.888  0.00  0.00    -0.077 C 
ATOM     33  C   UNL     1       8.764  -9.556   1.464  0.00  0.00    +0.004 C 
ATOM     34  H   UNL     1      10.905  -8.996   0.064  0.00  0.00    -0.081 HD
BRANCH  31  35
ATOM     35  C   UNL     1      12.448  -8.845   1.389  0.00  0.00    -0.043 C 
BRANCH  35  36
ATOM     36  C   UNL     1      12.928 -10.242   1.089  0.00  0.00    -0.064 A 
ATOM     37  C   UNL     1      12.835 -11.226   2.055  0.00  0.00    +0.002 A 
ATOM     38  C   UNL     1      13.276 -12.507   1.780  0.00  0.00    +0.000 A 
ATOM     39  C   UNL     1      13.809 -12.804   0.540  0.00  0.00    +0.000 A 
ATOM     40  C   UNL     1      13.902 -11.819  -0.426  0.00  0.00    +0.000 A 
ATOM     41  C   UNL     1      13.457 -10.539  -0.153  0.00  0.00    +0.002 A 
ENDBRANCH  35  36
ENDBRANCH  31  35
ENDBRANCH  26  28
ENDBRANCH   5  24
TORSDOF 5
