REMARK  Name = ZINC01892366
REMARK  4 active torsions:
REMARK  status: ('A' for Active; 'I' for Inactive)
REMARK    1  A    between atoms: C_11  and  C_29
REMARK    2  A    between atoms: N_19  and  C_23
REMARK    3  A    between atoms: C_23  and  C_24
REMARK    4  A    between atoms: C_33  and  N_35
REMARK                            x       y       z     vdW  Elec       q    Type
REMARK                         _______ _______ _______ _____ _____    ______ ____
ROOT
ATOM      1  C   UNL     1      -3.870  -1.121  -5.488  0.00  0.00    +0.001 A 
ATOM      2  C   UNL     1      -4.188   0.205  -5.734  0.00  0.00    +0.002 A 
ATOM      3  C   UNL     1      -4.063   1.187  -4.766  0.00  0.00    +0.026 A 
ATOM      4  C   UNL     1      -3.597   0.784  -3.516  0.00  0.00    +0.047 A 
ATOM      5  C   UNL     1      -3.272  -0.574  -3.270  0.00  0.00    +0.003 A 
ATOM      6  C   UNL     1      -3.409  -1.546  -4.266  0.00  0.00    +0.010 A 
ATOM      7  C   UNL     1      -2.827  -0.636  -1.893  0.00  0.00    -0.015 A 
ATOM      8  C   UNL     1      -2.898   0.618  -1.397  0.00  0.00    +0.046 A 
ATOM      9  N   UNL     1      -3.360   1.474  -2.362  0.00  0.00    -0.356 N 
ATOM     10  H   UNL     1      -3.498   2.427  -2.243  0.00  0.00    +0.166 HD
ATOM     11  C   UNL     1      -2.514   0.980   0.019  0.00  0.00    +0.154 C 
ATOM     12  N   UNL     1      -2.345  -0.283   0.769  0.00  0.00    -0.276 N 
ATOM     13  C   UNL     1      -1.597  -1.364   0.127  0.00  0.00    +0.167 C 
ATOM     14  C   UNL     1      -2.367  -1.841  -1.112  0.00  0.00    +0.069 C 
ATOM     15  C   UNL     1      -1.386  -2.512   1.060  0.00  0.00    +0.237 C 
ATOM     16  O   UNL     1      -0.704  -3.439   0.675  0.00  0.00    -0.274 OA
ATOM     17  N   UNL     1      -1.897  -2.583   2.288  0.00  0.00    -0.286 N 
ATOM     18  C   UNL     1      -2.726  -1.545   2.879  0.00  0.00    +0.204 C 
ATOM     19  C   UNL     1      -2.873  -0.363   1.977  0.00  0.00    +0.234 C 
ATOM     20  O   UNL     1      -3.526   0.577   2.379  0.00  0.00    -0.274 OA
ENDROOT
BRANCH  11  21
ATOM     21  C   UNL     1      -1.219   1.751   0.017  0.00  0.00    -0.019 A 
ATOM     22  C   UNL     1      -1.185   3.043  -0.472  0.00  0.00    +0.006 A 
ATOM     23  C   UNL     1       0.001   3.753  -0.469  0.00  0.00    +0.003 A 
ATOM     24  C   UNL     1       1.155   3.167   0.019  0.00  0.00    +0.033 A 
ATOM     25  C   UNL     1       1.122   1.874   0.504  0.00  0.00    +0.127 A 
ATOM     26  C   UNL     1      -0.065   1.165   0.501  0.00  0.00    +0.038 A 
BRANCH  25  27
ATOM     27  N   UNL     1       2.357   1.247   1.026  0.00  0.00    +0.056 N 
ATOM     28  O   UNL     1       3.403   1.872   1.029  0.00  0.00    -0.126 OA
ATOM     29  O   UNL     1       2.328   0.107   1.454  0.00  0.00    -0.126 OA
ENDBRANCH  25  27
ENDBRANCH  11  21
BRANCH  17  30
ATOM     30  C   UNL     1      -1.608  -3.775   3.088  0.00  0.00    +0.150 C 
BRANCH  30  31
ATOM     31  C   UNL     1      -0.347  -3.552   3.883  0.00  0.00    +0.007 A 
ATOM     32  C   UNL     1      -0.202  -3.026   5.124  0.00  0.00    +0.013 A 
ATOM     33  C   UNL     1       1.066  -2.920   5.663  0.00  0.00    +0.008 A 
ATOM     34  C   UNL     1       2.128  -3.335   4.931  0.00  0.00    +0.045 A 
ATOM     35  S   UNL     1       1.344  -3.905   3.432  0.00  0.00    -0.100 S 
ENDBRANCH  30  31
ENDBRANCH  17  30
TORSDOF 4
