REMARK  Name = ZINC36552877
REMARK  7 active torsions:
REMARK  status: ('A' for Active; 'I' for Inactive)
REMARK    1  A    between atoms: C_4  and  O_35
REMARK    2  A    between atoms: C_5  and  C_7
REMARK    3  A    between atoms: C_7  and  C_9
REMARK    4  A    between atoms: C_7  and  N_18
REMARK    5  A    between atoms: N_11  and  C_12
REMARK    6  A    between atoms: N_18  and  C_19
REMARK    7  A    between atoms: C_26  and  C_28
REMARK                            x       y       z     vdW  Elec       q    Type
REMARK                         _______ _______ _______ _____ _____    ______ ____
ROOT
ATOM      1  C   UNL     1       1.193  -2.881  -0.148  0.00  0.00    +0.201 C 
ENDROOT
BRANCH   1   6
ATOM      2  C   UNL     1       1.140  -0.605  -3.160  0.00  0.00    +0.001 A 
ATOM      3  C   UNL     1       1.412   0.624  -2.587  0.00  0.00    +0.004 A 
ATOM      4  C   UNL     1       1.614   0.722  -1.224  0.00  0.00    +0.046 A 
ATOM      5  C   UNL     1       1.544  -0.414  -0.430  0.00  0.00    +0.122 A 
ATOM      6  C   UNL     1       1.270  -1.645  -1.007  0.00  0.00    +0.024 A 
ATOM      7  C   UNL     1       1.069  -1.738  -2.371  0.00  0.00    +0.009 A 
BRANCH   5   8
ATOM      8  O   UNL     1       1.742  -0.320   0.911  0.00  0.00    -0.506 OA
ATOM      9  H   UNL     1       0.935  -0.156   1.418  0.00  0.00    +0.292 HD
ENDBRANCH   5   8
ENDBRANCH   1   6
BRANCH   1  10
ATOM     10  C   UNL     1       1.268  -4.106  -1.022  0.00  0.00    +0.239 C 
ATOM     11  O   UNL     1       0.354  -4.904  -1.028  0.00  0.00    -0.273 OA
ATOM     12  N   UNL     1       2.350  -4.316  -1.797  0.00  0.00    -0.311 N 
ATOM     13  H   UNL     1       3.081  -3.678  -1.792  0.00  0.00    +0.149 HD
BRANCH  12  14
ATOM     14  C   UNL     1       2.423  -5.507  -2.647  0.00  0.00    +0.073 C 
ATOM     15  C   UNL     1       2.961  -6.684  -1.831  0.00  0.00    +0.022 C 
ATOM     16  C   UNL     1       3.037  -7.928  -2.718  0.00  0.00    +0.002 C 
ATOM     17  C   UNL     1       3.972  -7.656  -3.898  0.00  0.00    +0.000 C 
ATOM     18  C   UNL     1       3.433  -6.479  -4.715  0.00  0.00    +0.002 C 
ATOM     19  C   UNL     1       3.357  -5.235  -3.827  0.00  0.00    +0.022 C 
ENDBRANCH  12  14
ENDBRANCH   1  10
BRANCH   1  20
ATOM     20  N   UNL     1      -0.073  -2.884   0.590  0.00  0.00    -0.254 N 
ATOM     21  C   UNL     1      -0.069  -3.002   1.933  0.00  0.00    +0.241 C 
ATOM     22  O   UNL     1       0.973  -3.194   2.522  0.00  0.00    -0.273 OA
BRANCH  20  23
ATOM     23  C   UNL     1      -1.285  -2.764  -0.099  0.00  0.00    +0.039 A 
ATOM     24  C   UNL     1      -2.078  -3.884  -0.310  0.00  0.00    +0.023 A 
ATOM     25  C   UNL     1      -3.274  -3.764  -0.991  0.00  0.00    +0.003 A 
ATOM     26  C   UNL     1      -3.682  -2.529  -1.461  0.00  0.00    +0.020 A 
ATOM     27  C   UNL     1      -2.894  -1.411  -1.253  0.00  0.00    +0.043 A 
ATOM     28  C   UNL     1      -1.699  -1.525  -0.567  0.00  0.00    +0.043 A 
ATOM     29 CL   UNL     1      -3.410   0.137  -1.846  0.00  0.00    -0.083 Cl
ENDBRANCH  20  23
BRANCH  21  30
ATOM     30  C   UNL     1      -1.361  -2.897   2.702  0.00  0.00    +0.160 C 
ATOM     31  C   UNL     1      -1.687  -1.416   2.999  0.00  0.00    +0.041 C 
ATOM     32  C   UNL     1      -1.067  -1.233   4.404  0.00  0.00    +0.098 C 
ATOM     33  C   UNL     1      -1.053  -2.628   4.988  0.00  0.00    +0.214 C 
ATOM     34  O   UNL     1      -0.908  -2.888   6.164  0.00  0.00    -0.276 OA
ATOM     35  N   UNL     1      -1.226  -3.541   4.013  0.00  0.00    -0.304 N 
ATOM     36  H   UNL     1      -1.257  -4.500   4.158  0.00  0.00    +0.149 HD
ENDBRANCH  21  30
ENDBRANCH   1  20
TORSDOF 7
