REMARK  Name = ZINC48732079
REMARK  12 active torsions:
REMARK  status: ('A' for Active; 'I' for Inactive)
REMARK    1  A    between atoms: C_1  and  C_2
REMARK    2  A    between atoms: C_2  and  C_3
REMARK    3  A    between atoms: N_5  and  C_6
REMARK    4  A    between atoms: C_9  and  N_13
REMARK    5  A    between atoms: C_11  and  C_12
REMARK    6  A    between atoms: C_14  and  C_16
REMARK    7  A    between atoms: N_18  and  C_19
REMARK    8  A    between atoms: C_19  and  C_20
REMARK    9  A    between atoms: C_20  and  C_22
REMARK   10  A    between atoms: C_20  and  N_27
REMARK   11  A    between atoms: N_27  and  C_28
REMARK   12  A    between atoms: N_27  and  C_29
REMARK                            x       y       z     vdW  Elec       q    Type
REMARK                         _______ _______ _______ _____ _____    ______ ____
ROOT
ATOM      1  N   UNL     1      -6.854  -3.845   0.212  0.00  0.00    -0.278 N 
ATOM      2  C   UNL     1      -7.891  -2.988   0.141  0.00  0.00    +0.303 C 
ATOM      3  O   UNL     1      -7.689  -1.802  -0.021  0.00  0.00    -0.265 OA
ATOM      4  H   UNL     1      -7.011  -4.782   0.407  0.00  0.00    +0.155 HD
ENDROOT
BRANCH   1   8
ATOM      5  C   UNL     1      -2.968  -2.469  -0.403  0.00  0.00    +0.036 A 
ATOM      6  C   UNL     1      -3.900  -1.657   0.232  0.00  0.00    +0.025 A 
ATOM      7  C   UNL     1      -5.186  -2.113   0.436  0.00  0.00    +0.025 A 
ATOM      8  C   UNL     1      -5.550  -3.383   0.005  0.00  0.00    +0.034 A 
ATOM      9  C   UNL     1      -4.618  -4.194  -0.630  0.00  0.00    +0.028 A 
ATOM     10  C   UNL     1      -3.333  -3.736  -0.839  0.00  0.00    -0.027 A 
ATOM     11  C   UNL     1      -2.324  -4.613  -1.534  0.00  0.00    +0.046 C 
BRANCH   5  14
ATOM     12  C   UNL     1      -1.418  -0.682  -0.667  0.00  0.00    +0.217 C 
ATOM     13  O   UNL     1      -2.339   0.107  -0.638  0.00  0.00    -0.275 OA
ATOM     14  N   UNL     1      -1.663  -2.006  -0.610  0.00  0.00    -0.285 N 
ATOM     15  H   UNL     1      -0.934  -2.639  -0.711  0.00  0.00    +0.155 HD
BRANCH  12  17
ATOM     16  C   UNL     1      -0.001   1.347  -0.817  0.00  0.00    +0.013 C 
ATOM     17  C   UNL     1       0.000  -0.182  -0.767  0.00  0.00    +0.093 C 
ENDBRANCH  12  17
ENDBRANCH   5  14
ENDBRANCH   1   8
BRANCH   2  18
ATOM     18  C   UNL     1      -9.290  -3.498   0.261  0.00  0.00    +0.299 C 
ATOM     19  O   UNL     1      -9.492  -4.683   0.423  0.00  0.00    -0.265 OA
ATOM     20  N   UNL     1     -10.328  -2.641   0.190  0.00  0.00    -0.309 N 
ATOM     21  H   UNL     1     -10.166  -1.693   0.060  0.00  0.00    +0.149 HD
BRANCH  20  22
ATOM     22  C   UNL     1     -11.700  -3.141   0.307  0.00  0.00    +0.097 C 
BRANCH  22  23
ATOM     23  C   UNL     1     -12.683  -1.993   0.071  0.00  0.00    +0.016 C 
BRANCH  23  24
ATOM     24  C   UNL     1     -12.569  -1.518  -1.355  0.00  0.00    +0.093 A 
ATOM     25  C   UNL     1     -13.400  -1.843  -2.361  0.00  0.00    +0.043 A 
ATOM     26  C   UNL     1     -12.924  -1.181  -3.516  0.00  0.00    +0.041 A 
ATOM     27  C   UNL     1     -11.830  -0.492  -3.146  0.00  0.00    +0.195 A 
ATOM     28  O   UNL     1     -11.623  -0.695  -1.835  0.00  0.00    -0.469 OA
ENDBRANCH  23  24
BRANCH  23  29
ATOM     29  N   UNL     1     -12.369  -0.884   0.983  0.00  0.00    +0.384 N 
ATOM     30  C   UNL     1     -13.382   0.171   0.838  0.00  0.00    -0.096 C 
ATOM     31  C   UNL     1     -12.368  -1.374   2.368  0.00  0.00    -0.096 C 
ATOM     32  H   UNL     1     -11.460  -0.510   0.757  0.00  0.00    -0.082 HD
ENDBRANCH  23  29
ENDBRANCH  22  23
ENDBRANCH  20  22
ENDBRANCH   2  18
TORSDOF 8
