REMARK  Name = ZINC07206849
REMARK  8 active torsions:
REMARK  status: ('A' for Active; 'I' for Inactive)
REMARK    1  A    between atoms: C_1  and  C_2
REMARK    2  A    between atoms: C_2  and  C_4
REMARK    3  A    between atoms: C_2  and  O_15
REMARK    4  A    between atoms: N_6  and  C_7
REMARK    5  A    between atoms: O_15  and  C_16
REMARK    6  A    between atoms: C_16  and  C_18
REMARK    7  A    between atoms: C_20  and  N_25
REMARK    8  A    between atoms: C_23  and  N_24
REMARK                            x       y       z     vdW  Elec       q    Type
REMARK                         _______ _______ _______ _____ _____    ______ ____
ROOT
ATOM      1  O   UNL     1      -4.938   0.294   0.058  0.00  0.00    -0.449 OA
ENDROOT
BRANCH   1   3
ATOM      2  C   UNL     1      -6.659  -0.633   1.510  0.00  0.00    +0.062 C 
ATOM      3  C   UNL     1      -6.264  -0.297   0.070  0.00  0.00    +0.259 C 
BRANCH   3   4
ATOM      4  C   UNL     1      -6.260  -1.557  -0.756  0.00  0.00    +0.258 C 
ATOM      5  O   UNL     1      -5.222  -1.970  -1.228  0.00  0.00    -0.271 OA
ATOM      6  N   UNL     1      -7.411  -2.225  -0.972  0.00  0.00    -0.280 N 
ATOM      7  H   UNL     1      -8.252  -1.853  -0.666  0.00  0.00    +0.155 HD
BRANCH   6   8
ATOM      8  C   UNL     1      -7.391  -3.458  -1.639  0.00  0.00    +0.069 A 
ATOM      9  C   UNL     1      -6.242  -4.236  -1.628  0.00  0.00    +0.029 A 
ATOM     10  C   UNL     1      -6.224  -5.450  -2.286  0.00  0.00    +0.040 A 
ATOM     11  C   UNL     1      -7.351  -5.892  -2.958  0.00  0.00    +0.126 A 
ATOM     12  C   UNL     1      -8.499  -5.119  -2.971  0.00  0.00    +0.078 A 
ATOM     13  C   UNL     1      -8.524  -3.905  -2.309  0.00  0.00    +0.147 A 
ATOM     14  F   UNL     1      -9.646  -3.153  -2.317  0.00  0.00    -0.203 F 
ATOM     15  F   UNL     1      -7.331  -7.081  -3.600  0.00  0.00    -0.205 F 
ENDBRANCH   6   8
ENDBRANCH   3   4
ENDBRANCH   1   3
BRANCH   1  16
ATOM     16  C   UNL     1      -4.865   1.635   0.174  0.00  0.00    +0.342 C 
ATOM     17  O   UNL     1      -5.882   2.292   0.283  0.00  0.00    -0.245 OA
BRANCH  16  18
ATOM     18  C   UNL     1      -3.553   2.304   0.169  0.00  0.00    +0.082 A 
ATOM     19  C   UNL     1      -2.378   1.548   0.148  0.00  0.00    +0.049 A 
ATOM     20  C   UNL     1      -1.154   2.180   0.143  0.00  0.00    +0.127 A 
ATOM     21  C   UNL     1      -1.080   3.564   0.164  0.00  0.00    +0.034 A 
ATOM     22  C   UNL     1      -2.231   4.325   0.179  0.00  0.00    +0.026 A 
ATOM     23  C   UNL     1      -3.475   3.706   0.184  0.00  0.00    +0.039 A 
BRANCH  23  24
ATOM     24  N   UNL     1      -4.634   4.470   0.206  0.00  0.00    -0.357 N 
ATOM     25  H   UNL     1      -5.415   4.153   0.687  0.00  0.00    +0.142 HD
ATOM     26  H   UNL     1      -4.664   5.319  -0.261  0.00  0.00    +0.142 HD
ENDBRANCH  23  24
BRANCH  20  27
ATOM     27  N   UNL     1       0.089   1.377   0.120  0.00  0.00    +0.056 N 
ATOM     28  O   UNL     1       0.028   0.161   0.107  0.00  0.00    -0.126 OA
ATOM     29  O   UNL     1       1.173   1.933   0.111  0.00  0.00    -0.126 OA
ENDBRANCH  20  27
ENDBRANCH  16  18
ENDBRANCH   1  16
TORSDOF 7
