REMARK  Name = ZINC37730757
REMARK  8 active torsions:
REMARK  status: ('A' for Active; 'I' for Inactive)
REMARK    1  A    between atoms: C_1  and  C_2
REMARK    2  A    between atoms: C_5  and  N_12
REMARK    3  A    between atoms: C_6  and  C_8
REMARK    4  A    between atoms: C_9  and  C_10
REMARK    5  A    between atoms: C_10  and  N_11
REMARK    6  A    between atoms: N_12  and  S_13
REMARK    7  A    between atoms: S_13  and  C_16
REMARK    8  A    between atoms: C_21  and  C_22
REMARK                            x       y       z     vdW  Elec       q    Type
REMARK                         _______ _______ _______ _____ _____    ______ ____
ROOT
ATOM      1  C   UNL     1       1.022   1.503   0.161  0.00  0.00    +0.044 C 
ATOM      2  C   UNL     1       0.789   0.015   0.108  0.00  0.00    -0.049 A 
ATOM      3  C   UNL     1       0.627  -0.615  -1.115  0.00  0.00    +0.005 A 
ATOM      4  C   UNL     1       0.413  -1.978  -1.176  0.00  0.00    +0.026 A 
ATOM      5  C   UNL     1       0.359  -2.726  -0.008  0.00  0.00    +0.063 A 
ATOM      6  C   UNL     1       0.522  -2.092   1.231  0.00  0.00    +0.047 A 
ATOM      7  C   UNL     1       0.743  -0.715   1.278  0.00  0.00    +0.022 A 
ENDROOT
BRANCH   6   8
ATOM      8  C   UNL     1       0.467  -2.853   2.442  0.00  0.00    -0.066 C 
ATOM      9  C   UNL     1       0.422  -3.478   3.436  0.00  0.00    -0.117 C 
BRANCH   9  10
ATOM     10  C   UNL     1       0.365  -4.261   4.681  0.00  0.00    +0.005 C 
BRANCH  10  11
ATOM     11  N   UNL     1       0.564  -3.368   5.830  0.00  0.00    +0.385 N 
ATOM     12  H   UNL     1       1.465  -2.919   5.756  0.00  0.00    -0.089 HD
ATOM     13  H   UNL     1      -0.161  -2.667   5.841  0.00  0.00    -0.089 HD
ATOM     14  H   UNL     1       0.525  -3.905   6.684  0.00  0.00    -0.089 HD
ENDBRANCH  10  11
ENDBRANCH   9  10
ENDBRANCH   6   8
BRANCH   5  15
ATOM     15  N   UNL     1       0.142  -4.102  -0.068  0.00  0.00    -0.215 N 
ATOM     16  H   UNL     1      -0.384  -4.540   0.620  0.00  0.00    +0.174 HD
BRANCH  15  17
ATOM     17  S   UNL     1       0.781  -4.988  -1.312  0.00  0.00    +0.076 S 
ATOM     18  O   UNL     1       2.131  -4.567  -1.459  0.00  0.00    -0.150 OA
ATOM     19  O   UNL     1       0.428  -6.343  -1.069  0.00  0.00    -0.150 OA
BRANCH  17  20
ATOM     20  C   UNL     1      -0.060  -4.504  -2.782  0.00  0.00    +0.148 A 
ATOM     21  C   UNL     1       0.515  -3.875  -3.891  0.00  0.00    +0.163 A 
ATOM     22  N   UNL     1      -0.423  -3.676  -4.781  0.00  0.00    -0.180 NA
ATOM     23  N   UNL     1      -1.627  -4.173  -4.266  0.00  0.00    -0.280 N 
ATOM     24  H   UNL     1      -2.488  -4.159  -4.713  0.00  0.00    +0.189 HD
ATOM     25  C   UNL     1      -1.377  -4.681  -3.041  0.00  0.00    +0.060 A 
ATOM     26  C   UNL     1      -2.384  -5.325  -2.124  0.00  0.00    +0.067 C 
ENDBRANCH  17  20
ENDBRANCH  15  17
ENDBRANCH   5  15
TORSDOF 6
