REMARK  Name = ZINC66952682
REMARK  9 active torsions:
REMARK  status: ('A' for Active; 'I' for Inactive)
REMARK    1  A    between atoms: C_1  and  C_2
REMARK    2  A    between atoms: C_2  and  C_4
REMARK    3  A    between atoms: C_2  and  O_29
REMARK    4  A    between atoms: N_6  and  C_7
REMARK    5  A    between atoms: C_11  and  N_13
REMARK    6  A    between atoms: N_16  and  C_17
REMARK    7  A    between atoms: C_17  and  C_18
REMARK    8  A    between atoms: C_18  and  O_28
REMARK    9  A    between atoms: O_29  and  C_30
REMARK                            x       y       z     vdW  Elec       q    Type
REMARK                         _______ _______ _______ _____ _____    ______ ____
ROOT
ATOM      1  N   UNL     1       0.868  -0.536  -7.322  0.00  0.00    -0.269 N 
ATOM      2  C   UNL     1       1.307  -1.265  -8.367  0.00  0.00    +0.304 C 
ATOM      3  O   UNL     1       2.213  -2.062  -8.216  0.00  0.00    -0.253 OA
ATOM      4  N   UNL     1       0.742  -1.110  -9.581  0.00  0.00    -0.296 N 
ATOM      5  H   UNL     1       0.192   0.147  -7.456  0.00  0.00    +0.156 HD
ATOM      6  H   UNL     1       0.019  -0.474  -9.702  0.00  0.00    +0.150 HD
ENDROOT
BRANCH   1  11
ATOM      7  C   UNL     1       1.086  -0.869  -3.662  0.00  0.00    +0.035 A 
ATOM      8  C   UNL     1       2.422  -1.220  -3.512  0.00  0.00    +0.023 A 
ATOM      9  C   UNL     1       3.234  -1.343  -4.623  0.00  0.00    +0.004 A 
ATOM     10  C   UNL     1       2.721  -1.117  -5.886  0.00  0.00    +0.023 A 
ATOM     11  C   UNL     1       1.386  -0.766  -6.043  0.00  0.00    +0.037 A 
ATOM     12  C   UNL     1       0.566  -0.647  -4.929  0.00  0.00    +0.046 A 
BRANCH   7  15
ATOM     13  C   UNL     1      -1.032  -1.112  -2.605  0.00  0.00    +0.246 C 
ATOM     14  O   UNL     1      -1.506  -1.469  -3.662  0.00  0.00    -0.273 OA
ATOM     15  N   UNL     1       0.264  -0.746  -2.537  0.00  0.00    -0.283 N 
ATOM     16  H   UNL     1       0.626  -0.396  -1.708  0.00  0.00    +0.155 HD
BRANCH  13  18
ATOM     17  C   UNL     1      -1.369  -2.102  -0.357  0.00  0.00    +0.048 C 
ATOM     18  C   UNL     1      -1.890  -1.078  -1.367  0.00  0.00    +0.200 C 
BRANCH  18  19
ATOM     19  O   UNL     1      -3.240  -1.395  -1.714  0.00  0.00    -0.371 OA
ATOM     20  C   UNL     1      -4.217  -0.775  -0.875  0.00  0.00    +0.195 C 
ENDBRANCH  18  19
ENDBRANCH  13  18
ENDBRANCH   7  15
ENDBRANCH   1  11
BRANCH   4  21
ATOM     21  C   UNL     1       1.219  -1.902 -10.718  0.00  0.00    +0.145 C 
BRANCH  21  22
ATOM     22  C   UNL     1       0.500  -1.451 -11.991  0.00  0.00    +0.107 C 
ATOM     23  C   UNL     1      -1.008  -1.591 -11.794  0.00  0.00    +0.041 C 
ATOM     24  C   UNL     1      -1.697  -1.346 -13.142  0.00  0.00    +0.008 C 
ATOM     25  C   UNL     1      -1.384  -2.523 -14.063  0.00  0.00    +0.035 C 
ATOM     26  C   UNL     1       0.099  -2.785 -14.102  0.00  0.00    -0.041 A 
ATOM     27  C   UNL     1       0.963  -2.296 -13.149  0.00  0.00    -0.011 A 
ATOM     28  C   UNL     1       2.320  -2.580 -13.239  0.00  0.00    +0.007 A 
ATOM     29  C   UNL     1       2.808  -3.345 -14.279  0.00  0.00    +0.000 A 
ATOM     30  C   UNL     1       1.940  -3.833 -15.239  0.00  0.00    +0.000 A 
ATOM     31  C   UNL     1       0.592  -3.553 -15.149  0.00  0.00    +0.004 A 
BRANCH  22  32
ATOM     32  O   UNL     1       0.816  -0.082 -12.251  0.00  0.00    -0.382 OA
ATOM     33  H   UNL     1       1.759   0.087 -12.379  0.00  0.00    +0.211 HD
ENDBRANCH  22  32
ENDBRANCH  21  22
ENDBRANCH   4  21
TORSDOF 7
