REMARK  Name = ZINC04150790
REMARK  5 active torsions:
REMARK  status: ('A' for Active; 'I' for Inactive)
REMARK    1  A    between atoms: C_1  and  C_2
REMARK    2  A    between atoms: C_3  and  C_7
REMARK    3  A    between atoms: N_9  and  N_10
REMARK    4  A    between atoms: C_11  and  C_12
REMARK    5  A    between atoms: C_11  and  C_13
REMARK                            x       y       z     vdW  Elec       q    Type
REMARK                         _______ _______ _______ _____ _____    ______ ____
ROOT
ATOM      1  N   UNL     1      -3.482  -2.075   1.153  0.00  0.00    -0.184 NA
ATOM      2  C   UNL     1      -2.436  -2.757   0.800  0.00  0.00    +0.063 C 
ATOM      3  C   UNL     1      -2.480  -4.263   0.808  0.00  0.00    +0.068 C 
ENDROOT
BRANCH   2   4
ATOM      4  C   UNL     1      -1.203  -2.058   0.393  0.00  0.00    -0.002 A 
ATOM      5  C   UNL     1      -0.073  -2.786   0.013  0.00  0.00    +0.010 A 
ATOM      6  C   UNL     1       1.071  -2.119  -0.363  0.00  0.00    +0.004 A 
ATOM      7  C   UNL     1       1.115  -0.729  -0.368  0.00  0.00    -0.044 A 
ATOM      8  C   UNL     1       0.002  -0.004   0.002  0.00  0.00    -0.044 A 
ATOM      9  C   UNL     1      -1.155  -0.664   0.384  0.00  0.00    +0.013 A 
ATOM     10  C   UNL     1      -0.018   1.502   0.010  0.00  0.00    +0.035 C 
ATOM     11  C   UNL     1       1.404   2.059  -0.000  0.00  0.00    +0.005 C 
ATOM     12  C   UNL     1       2.176   1.391  -1.144  0.00  0.00    +0.005 C 
ATOM     13  C   UNL     1       2.408  -0.073  -0.778  0.00  0.00    +0.035 C 
ENDBRANCH   2   4
BRANCH   1  16
ATOM     14  C   UNL     1      -5.740  -2.031   1.906  0.00  0.00    +0.267 C 
ATOM     15  O   UNL     1      -5.704  -0.815   1.900  0.00  0.00    -0.268 OA
ATOM     16  N   UNL     1      -4.653  -2.739   1.540  0.00  0.00    -0.203 N 
ATOM     17  H   UNL     1      -4.682  -3.709   1.545  0.00  0.00    +0.178 HD
BRANCH  14  20
ATOM     18  C   UNL     1      -8.427  -0.686   2.808  0.00  0.00    +0.087 C 
ATOM     19  C   UNL     1      -8.149  -2.164   2.709  0.00  0.00    +0.114 A 
ATOM     20  C   UNL     1      -6.972  -2.730   2.314  0.00  0.00    +0.079 A 
ATOM     21  C   UNL     1      -7.191  -4.182   2.373  0.00  0.00    +0.054 A 
ATOM     22  C   UNL     1      -8.453  -4.348   2.800  0.00  0.00    +0.196 A 
ATOM     23  O   UNL     1      -9.013  -3.143   2.993  0.00  0.00    -0.467 OA
ENDBRANCH  14  20
ENDBRANCH   1  16
TORSDOF 3
