REMARK  Name = ZINC49061173
REMARK  4 active torsions:
REMARK  status: ('A' for Active; 'I' for Inactive)
REMARK    1  A    between atoms: C_4  and  N_10
REMARK    2  A    between atoms: C_6  and  C_7
REMARK    3  A    between atoms: N_10  and  S_11
REMARK    4  A    between atoms: S_11  and  C_14
REMARK                            x       y       z     vdW  Elec       q    Type
REMARK                         _______ _______ _______ _____ _____    ______ ____
ROOT
ATOM      1  C   UNL     1      -0.017   1.392   0.010  0.00  0.00    +0.016 A 
ATOM      2  C   UNL     1       1.168   2.098   0.002  0.00  0.00    +0.041 A 
ATOM      3  C   UNL     1       2.379   1.427  -0.013  0.00  0.00    +0.148 A 
ATOM      4  C   UNL     1       2.408   0.035  -0.021  0.00  0.00    +0.110 A 
ATOM      5  C   UNL     1       1.223  -0.682  -0.013  0.00  0.00    +0.042 A 
ATOM      6  C   UNL     1       0.002  -0.004   0.002  0.00  0.00    +0.039 A 
ATOM      7  F   UNL     1       3.536   2.125  -0.021  0.00  0.00    -0.203 F 
ENDROOT
BRANCH   6   8
ATOM      8  C   UNL     1      -1.266  -0.762   0.011  0.00  0.00    +0.242 C 
ATOM      9  O   UNL     1      -1.248  -1.978   0.004  0.00  0.00    -0.270 OA
ATOM     10  N   UNL     1      -2.443  -0.106   0.026  0.00  0.00    -0.325 N 
ATOM     11  H   UNL     1      -2.458   0.864   0.031  0.00  0.00    +0.145 HD
ATOM     12  H   UNL     1      -3.276  -0.604   0.031  0.00  0.00    +0.145 HD
ENDBRANCH   6   8
BRANCH   4  13
ATOM     13  N   UNL     1       3.633  -0.640  -0.037  0.00  0.00    -0.094 NA
BRANCH  13  14
ATOM     14  S   UNL     1       5.050   0.217  -0.046  0.00  0.00    +0.099 S 
ATOM     15  O   UNL     1       5.100   0.905  -1.288  0.00  0.00    -0.148 OA
ATOM     16  O   UNL     1       5.125   0.892   1.202  0.00  0.00    -0.148 OA
BRANCH  14  17
ATOM     17  C   UNL     1       6.367  -0.954  -0.066  0.00  0.00    +0.161 A 
ATOM     18  C   UNL     1       7.704  -0.734  -0.072  0.00  0.00    +0.052 A 
ATOM     19  C   UNL     1       8.562  -1.818  -0.087  0.00  0.00    +0.025 A 
ATOM     20  C   UNL     1       8.039  -3.069  -0.095  0.00  0.00    +0.048 A 
ATOM     21  S   UNL     1       6.285  -2.737  -0.074  0.00  0.00    -0.076 S 
ATOM     22 BR   UNL     1       8.387   1.030  -0.061  0.00  0.00    -0.048 Br
ENDBRANCH  14  17
ENDBRANCH  13  14
ENDBRANCH   4  13
TORSDOF 4
