REMARK  Name = ZINC62857515
REMARK  5 active torsions:
REMARK  status: ('A' for Active; 'I' for Inactive)
REMARK    1  A    between atoms: C_1  and  C_2
REMARK    2  A    between atoms: C_2  and  C_3
REMARK    3  A    between atoms: C_3  and  C_9
REMARK    4  A    between atoms: C_15  and  C_18
REMARK    5  A    between atoms: C_18  and  N_19
REMARK                            x       y       z     vdW  Elec       q    Type
REMARK                         _______ _______ _______ _____ _____    ______ ____
ROOT
ATOM      1  C   UNL     1      -2.281   0.052   1.248  0.00  0.00    +0.220 C 
ATOM      2  O   UNL     1      -2.637  -0.733   2.101  0.00  0.00    -0.275 OA
ATOM      3  N   UNL     1      -2.614   1.354   1.350  0.00  0.00    -0.301 N 
ATOM      4  C   UNL     1      -2.108   2.334   0.379  0.00  0.00    +0.108 C 
ATOM      5  C   UNL     1      -3.295   3.103  -0.209  0.00  0.00    +0.019 C 
ATOM      6  C   UNL     1      -4.117   3.713   0.929  0.00  0.00    +0.008 C 
ATOM      7  C   UNL     1      -4.660   2.596   1.823  0.00  0.00    +0.024 C 
ATOM      8  C   UNL     1      -3.493   1.820   2.430  0.00  0.00    +0.112 C 
ENDROOT
BRANCH   1   9
ATOM      9  C   UNL     1      -1.468  -0.428   0.074  0.00  0.00    +0.032 C 
ATOM     10  C   UNL     1      -1.251  -1.940   0.185  0.00  0.00    +0.012 C 
ATOM     11  C   UNL     1      -0.440  -2.239   1.449  0.00  0.00    -0.018 C 
ATOM     12  C   UNL     1       0.880  -1.466   1.395  0.00  0.00    -0.083 C 
ATOM     13  N   UNL     1       0.606  -0.026   1.316  0.00  0.00    +0.380 N 
ATOM     14  C   UNL     1      -0.109   0.277   0.071  0.00  0.00    -0.066 C 
ATOM     15  H   UNL     1       0.040   0.251   2.104  0.00  0.00    -0.086 HD
ATOM     16  H   UNL     1       1.477   0.482   1.335  0.00  0.00    -0.086 HD
BRANCH   9  18
ATOM     17  C   UNL     1      -3.498  -0.936  -1.290  0.00  0.00    +0.005 C 
ATOM     18  C   UNL     1      -2.210  -0.112  -1.226  0.00  0.00    +0.011 C 
ENDBRANCH   9  18
ENDBRANCH   1   9
BRANCH   7  19
ATOM     19  C   UNL     1      -5.509   3.204   2.941  0.00  0.00    +0.110 C 
BRANCH  19  20
ATOM     20  N   UNL     1      -6.692   3.846   2.362  0.00  0.00    -0.299 N 
ATOM     21  C   UNL     1      -7.590   4.453   3.164  0.00  0.00    +0.297 C 
ATOM     22  O   UNL     1      -7.418   4.467   4.367  0.00  0.00    -0.253 OA
ATOM     23  N   UNL     1      -8.678   5.044   2.631  0.00  0.00    -0.313 N 
ATOM     24  H   UNL     1      -6.829   3.835   1.402  0.00  0.00    +0.150 HD
ATOM     25  H   UNL     1      -8.814   5.032   1.671  0.00  0.00    +0.146 HD
ATOM     26  H   UNL     1      -9.324   5.481   3.208  0.00  0.00    +0.146 HD
ENDBRANCH  19  20
ENDBRANCH   7  19
TORSDOF 4
