REMARK  Name = ZINC39115540
REMARK  3 active torsions:
REMARK  status: ('A' for Active; 'I' for Inactive)
REMARK    1  A    between atoms: C_3  and  C_11
REMARK    2  A    between atoms: C_4  and  N_8
REMARK    3  A    between atoms: C_11  and  N_13
REMARK                            x       y       z     vdW  Elec       q    Type
REMARK                         _______ _______ _______ _____ _____    ______ ____
ROOT
ATOM      1  C   UNL     1       0.319  -0.036  -0.796  0.00  0.00    +0.039 A 
ATOM      2  C   UNL     1       1.252   0.785  -1.393  0.00  0.00    +0.015 A 
ATOM      3  C   UNL     1       2.131   1.529  -0.603  0.00  0.00    +0.033 A 
ATOM      4  C   UNL     1       2.061   1.436   0.789  0.00  0.00    +0.138 A 
ATOM      5  C   UNL     1       1.124   0.612   1.375  0.00  0.00    +0.071 A 
ATOM      6  C   UNL     1       0.253  -0.124   0.586  0.00  0.00    +0.126 A 
ATOM      7  F   UNL     1      -0.663  -0.930   1.165  0.00  0.00    -0.205 F 
ENDROOT
BRANCH   4   8
ATOM      8  N   UNL     1       2.990   2.220   1.633  0.00  0.00    +0.057 N 
ATOM      9  O   UNL     1       3.432   1.741   2.651  0.00  0.00    -0.126 OA
ATOM     10  O   UNL     1       3.306   3.340   1.304  0.00  0.00    -0.126 OA
ENDBRANCH   4   8
BRANCH   3  11
ATOM     11  C   UNL     1       3.132   2.409  -1.236  0.00  0.00    +0.079 C 
ATOM     12  S   UNL     1       4.652   1.777  -1.708  0.00  0.00    -0.035 S 
BRANCH  11  13
ATOM     13  N   UNL     1       2.850   3.710  -1.444  0.00  0.00    -0.352 N 
ATOM     14  H   UNL     1       1.989   4.068  -1.177  0.00  0.00    +0.143 HD
ATOM     15  H   UNL     1       3.508   4.289  -1.860  0.00  0.00    +0.143 HD
ENDBRANCH  11  13
ENDBRANCH   3  11
TORSDOF 3
