REMARK  Name = ZINC11740146
REMARK  8 active torsions:
REMARK  status: ('A' for Active; 'I' for Inactive)
REMARK    1  A    between atoms: C_4  and  C_7
REMARK    2  A    between atoms: C_7  and  C_9
REMARK    3  A    between atoms: C_7  and  N_28
REMARK    4  A    between atoms: C_9  and  C_10
REMARK    5  A    between atoms: C_10  and  O_12
REMARK    6  A    between atoms: O_12  and  C_13
REMARK    7  A    between atoms: C_13  and  C_14
REMARK    8  A    between atoms: N_16  and  C_17
REMARK                            x       y       z     vdW  Elec       q    Type
REMARK                         _______ _______ _______ _____ _____    ______ ____
ROOT
ATOM      1  C   UNL     1       6.108   6.278  -1.987  0.00  0.00    +0.310 C 
ATOM      2  O   UNL     1       6.534   6.090  -3.103  0.00  0.00    -0.251 OA
ENDROOT
BRANCH   1   3
ATOM      3  C   UNL     1       6.645   7.416  -1.158  0.00  0.00    +0.147 C 
BRANCH   3   4
ATOM      4  C   UNL     1       7.709   8.172  -1.956  0.00  0.00    +0.115 C 
BRANCH   4   5
ATOM      5  N   UNL     1       8.856   7.292  -2.196  0.00  0.00    -0.292 N 
ATOM      6  C   UNL     1       9.583   6.836  -1.157  0.00  0.00    +0.298 C 
ATOM      7  O   UNL     1       9.233   7.076  -0.018  0.00  0.00    -0.253 OA
ATOM      8  N   UNL     1      10.699   6.113  -1.381  0.00  0.00    -0.313 N 
ATOM      9  H   UNL     1       9.092   7.039  -3.102  0.00  0.00    +0.151 HD
ATOM     10  H   UNL     1      10.978   5.922  -2.290  0.00  0.00    +0.146 HD
ATOM     11  H   UNL     1      11.222   5.785  -0.634  0.00  0.00    +0.146 HD
ENDBRANCH   4   5
BRANCH   4  15
ATOM     12  C   UNL     1       8.979  11.600   0.253  0.00  0.00    +0.000 A 
ATOM     13  C   UNL     1       9.825  11.026  -0.679  0.00  0.00    +0.000 A 
ATOM     14  C   UNL     1       9.414   9.916  -1.393  0.00  0.00    +0.005 A 
ATOM     15  C   UNL     1       8.157   9.381  -1.177  0.00  0.00    -0.027 A 
ATOM     16  C   UNL     1       7.310   9.959  -0.250  0.00  0.00    +0.005 A 
ATOM     17  C   UNL     1       7.723  11.066   0.468  0.00  0.00    +0.000 A 
ENDBRANCH   4  15
ENDBRANCH   3   4
ENDBRANCH   1   3
BRANCH   1  18
ATOM     18  O   UNL     1       5.158   5.473  -1.487  0.00  0.00    -0.455 OA
BRANCH  18  19
ATOM     19  C   UNL     1       4.689   4.397  -2.342  0.00  0.00    +0.327 C 
BRANCH  19  20
ATOM     20  C   UNL     1       3.631   3.604  -1.617  0.00  0.00    +0.251 C 
ATOM     21  O   UNL     1       3.306   3.916  -0.491  0.00  0.00    -0.272 OA
ATOM     22  N   UNL     1       3.048   2.550  -2.220  0.00  0.00    -0.306 N 
ATOM     23  H   UNL     1       3.308   2.301  -3.121  0.00  0.00    +0.149 HD
BRANCH  22  24
ATOM     24  C   UNL     1       2.020   1.780  -1.516  0.00  0.00    +0.104 C 
ATOM     25  C   UNL     1       1.973   0.363  -2.086  0.00  0.00    +0.027 C 
ATOM     26  C   UNL     1       0.756  -0.356  -1.493  0.00  0.00    +0.007 C 
ATOM     27  C   UNL     1      -0.507   0.268  -2.082  0.00  0.00    +0.035 C 
ATOM     28  C   UNL     1      -0.474   1.767  -1.937  0.00  0.00    -0.042 A 
ATOM     29  C   UNL     1       0.687   2.462  -1.681  0.00  0.00    -0.024 A 
ATOM     30  C   UNL     1       0.650   3.845  -1.564  0.00  0.00    +0.006 A 
ATOM     31  C   UNL     1      -0.541   4.528  -1.699  0.00  0.00    +0.000 A 
ATOM     32  C   UNL     1      -1.708   3.831  -1.952  0.00  0.00    +0.000 A 
ATOM     33  C   UNL     1      -1.671   2.457  -2.076  0.00  0.00    +0.004 A 
ENDBRANCH  22  24
ENDBRANCH  19  20
ENDBRANCH  18  19
ENDBRANCH   1  18
TORSDOF 8
