REMARK  Name = ZINC66818277
REMARK  6 active torsions:
REMARK  status: ('A' for Active; 'I' for Inactive)
REMARK    1  A    between atoms: C_1  and  C_2
REMARK    2  A    between atoms: C_2  and  C_4
REMARK    3  A    between atoms: C_2  and  N_15
REMARK    4  A    between atoms: C_8  and  S_10
REMARK    5  A    between atoms: S_10  and  N_13
REMARK    6  A    between atoms: N_13  and  C_14
REMARK                            x       y       z     vdW  Elec       q    Type
REMARK                         _______ _______ _______ _____ _____    ______ ____
ROOT
ATOM      1  C   UNL     1      -0.019   1.526   0.010  0.00  0.00    +0.033 C 
ATOM      2  C   UNL     1       0.002  -0.004   0.002  0.00  0.00    +0.099 C 
ENDROOT
BRANCH   2   3
ATOM      3  N   UNL     1       0.711  -0.489   1.189  0.00  0.00    -0.322 N 
ATOM      4  C   UNL     1       2.091  -0.603   1.173  0.00  0.00    +0.126 A 
ATOM      5  C   UNL     1       2.818  -0.252   0.034  0.00  0.00    +0.083 A 
ATOM      6  C   UNL     1       4.194  -0.381   0.064  0.00  0.00    +0.136 A 
ATOM      7  N   UNL     1       4.779  -0.831   1.166  0.00  0.00    -0.203 NA
ATOM      8  C   UNL     1       4.064  -1.156   2.232  0.00  0.00    +0.216 A 
ATOM      9  N   UNL     1       2.744  -1.042   2.245  0.00  0.00    -0.200 NA
ATOM     10  N   UNL     1       4.711  -1.623   3.363  0.00  0.00    -0.327 N 
ATOM     11 CL   UNL     1       5.146   0.040  -1.325  0.00  0.00    -0.062 Cl
ATOM     12  H   UNL     1       0.213  -0.731   1.986  0.00  0.00    +0.148 HD
ATOM     13  H   UNL     1       5.678  -1.708   3.368  0.00  0.00    +0.145 HD
ATOM     14  H   UNL     1       4.199  -1.864   4.150  0.00  0.00    +0.145 HD
ENDBRANCH   2   3
BRANCH   2  15
ATOM     15  C   UNL     1      -1.412  -0.526   0.013  0.00  0.00    -0.026 A 
ATOM     16  C   UNL     1      -2.123  -0.571   1.198  0.00  0.00    +0.005 A 
ATOM     17  C   UNL     1      -3.420  -1.049   1.207  0.00  0.00    +0.002 A 
ATOM     18  C   UNL     1      -4.006  -1.482   0.032  0.00  0.00    +0.028 A 
ATOM     19  C   UNL     1      -3.295  -1.436  -1.152  0.00  0.00    +0.106 A 
ATOM     20  C   UNL     1      -1.999  -0.954  -1.163  0.00  0.00    +0.034 A 
BRANCH  19  21
ATOM     21  S   UNL     1      -4.042  -1.988  -2.650  0.00  0.00    +0.058 S 
ATOM     22  O   UNL     1      -2.981  -2.351  -3.523  0.00  0.00    -0.153 OA
ATOM     23  O   UNL     1      -5.069  -2.898  -2.280  0.00  0.00    -0.153 OA
BRANCH  21  24
ATOM     24  N   UNL     1      -4.792  -0.680  -3.334  0.00  0.00    -0.193 NA
ATOM     25  C   UNL     1      -3.997   0.458  -3.803  0.00  0.00    +0.127 C 
ATOM     26  H   UNL     1      -5.757  -0.667  -3.425  0.00  0.00    +0.148 HD
ENDBRANCH  21  24
ENDBRANCH  19  21
ENDBRANCH   2  15
TORSDOF 4
