REMARK  Name = ZINC20761906
REMARK  8 active torsions:
REMARK  status: ('A' for Active; 'I' for Inactive)
REMARK    1  A    between atoms: C_1  and  C_2
REMARK    2  A    between atoms: C_5  and  N_9
REMARK    3  A    between atoms: C_7  and  C_8
REMARK    4  A    between atoms: C_10  and  C_12
REMARK    5  A    between atoms: C_12  and  N_13
REMARK    6  A    between atoms: N_13  and  C_14
REMARK    7  A    between atoms: N_13  and  S_15
REMARK    8  A    between atoms: S_15  and  C_18
REMARK                            x       y       z     vdW  Elec       q    Type
REMARK                         _______ _______ _______ _____ _____    ______ ____
ROOT
ATOM      1  S   UNL     1       3.295   5.531  -1.124  0.00  0.00    +0.063 S 
ATOM      2  O   UNL     1       4.659   5.469  -1.516  0.00  0.00    -0.153 OA
ATOM      3  O   UNL     1       2.250   5.819  -2.043  0.00  0.00    -0.153 OA
ENDROOT
BRANCH   1   4
ATOM      4  C   UNL     1       2.909   3.974  -0.395  0.00  0.00    +0.127 A 
ATOM      5  C   UNL     1       1.747   3.314  -0.754  0.00  0.00    +0.077 A 
ATOM      6  C   UNL     1       1.444   2.091  -0.183  0.00  0.00    +0.144 A 
ATOM      7  C   UNL     1       2.310   1.528   0.754  0.00  0.00    +0.077 A 
ATOM      8  C   UNL     1       3.473   2.192   1.109  0.00  0.00    +0.049 A 
ATOM      9  C   UNL     1       3.769   3.416   0.533  0.00  0.00    +0.069 A 
ATOM     10 CL   UNL     1       5.224   4.251   0.978  0.00  0.00    -0.081 Cl
ATOM     11  N   UNL     1       1.990   0.289   1.326  0.00  0.00    -0.280 N 
ATOM     12  C   UNL     1       1.038  -0.474   0.746  0.00  0.00    +0.255 C 
ATOM     13  O   UNL     1       0.723  -1.535   1.241  0.00  0.00    -0.272 OA
ATOM     14  C   UNL     1       0.368  -0.000  -0.519  0.00  0.00    +0.325 C 
ATOM     15  O   UNL     1       0.306   1.429  -0.524  0.00  0.00    -0.481 OA
ATOM     16  H   UNL     1       2.511  -0.049   2.234  0.00  0.00    +0.155 HD
ENDBRANCH   1   4
BRANCH   1  17
ATOM     17  N   UNL     1       3.198   6.670   0.074  0.00  0.00    -0.171 NA
ATOM     18  C   UNL     1       4.417   7.147   0.732  0.00  0.00    +0.132 C 
BRANCH  17  19
ATOM     19  C   UNL     1       1.893   7.201   0.477  0.00  0.00    +0.205 C 
BRANCH  19  21
ATOM     20  N   UNL     1       0.190   6.743   2.211  0.00  0.00    -0.284 N 
ATOM     21  C   UNL     1       1.381   6.428   1.665  0.00  0.00    +0.233 C 
ATOM     22  O   UNL     1       2.041   5.523   2.130  0.00  0.00    -0.274 OA
ATOM     23  H   UNL     1      -0.369   7.617   1.845  0.00  0.00    +0.155 HD
BRANCH  20  28
ATOM     24  C   UNL     1      -1.942   3.559   6.395  0.00  0.00    +0.044 C 
ATOM     25  C   UNL     1      -1.376   4.405   5.284  0.00  0.00    -0.047 A 
ATOM     26  C   UNL     1      -0.614   3.818   4.289  0.00  0.00    +0.005 A 
ATOM     27  C   UNL     1      -0.100   4.589   3.266  0.00  0.00    +0.023 A 
ATOM     28  C   UNL     1      -0.336   5.957   3.243  0.00  0.00    +0.034 A 
ATOM     29  C   UNL     1      -1.101   6.544   4.243  0.00  0.00    +0.027 A 
ATOM     30  C   UNL     1      -1.618   5.766   5.260  0.00  0.00    -0.046 A 
ATOM     31  C   UNL     1      -2.448   6.401   6.346  0.00  0.00    +0.044 C 
ENDBRANCH  20  28
ENDBRANCH  19  21
ENDBRANCH  17  19
ENDBRANCH   1  17
TORSDOF 5
