REMARK  Name = ZINC12860155
REMARK  6 active torsions:
REMARK  status: ('A' for Active; 'I' for Inactive)
REMARK    1  A    between atoms: C_1  and  C_2
REMARK    2  A    between atoms: C_2  and  CA_3
REMARK    3  A    between atoms: CA_3  and  C_5
REMARK    4  A    between atoms: CA_3  and  N_7
REMARK    5  A    between atoms: C_5  and  O_6
REMARK    6  A    between atoms: C_18  and  C_22
REMARK                            x       y       z     vdW  Elec       q    Type
REMARK                         _______ _______ _______ _____ _____    ______ ____
ROOT
ATOM      1  N   UNL     1       3.483  -0.816  -0.037  0.00  0.00    -0.323 N 
ATOM      2  C   UNL     1       2.316  -0.075  -0.021  0.00  0.00    +0.131 A 
ATOM      3  C   UNL     1       2.365   1.347   0.001  0.00  0.00    +0.051 A 
ATOM      4  C   UNL     1       3.537   2.223   0.012  0.00  0.00    -0.025 A 
ATOM      5  C   UNL     1       3.308   3.552   0.033  0.00  0.00    -0.004 A 
ATOM      6  S   UNL     1       1.543   3.716   0.040  0.00  0.00    -0.073 S 
ATOM      7  C   UNL     1       1.114   1.996   0.015  0.00  0.00    +0.114 A 
ATOM      8  N   UNL     1      -0.016   1.315   0.008  0.00  0.00    -0.228 NA
ATOM      9  C   UNL     1       0.002  -0.004  -0.012  0.00  0.00    +0.224 A 
ATOM     10  N   UNL     1       1.138  -0.678  -0.026  0.00  0.00    -0.220 NA
ATOM     11  C   UNL     1       4.329   4.649   0.047  0.00  0.00    +0.046 C 
ATOM     12  C   UNL     1       5.689   4.051  -0.338  0.00  0.00    -0.009 C 
ATOM     13  C   UNL     1       5.914   2.776   0.480  0.00  0.00    +0.008 C 
ATOM     14  C   UNL     1       4.963   1.678   0.002  0.00  0.00    +0.037 C 
ATOM     15  C   UNL     1       6.798   5.059  -0.032  0.00  0.00    +0.008 C 
ATOM     16  H   UNL     1       4.340  -0.369  -0.116  0.00  0.00    +0.148 HD
ENDROOT
BRANCH   1  17
ATOM     17  CA  UNL     1       3.425  -2.276   0.066  0.00  0.00    +0.097 C 
BRANCH  17  19
ATOM     18  C   UNL     1       4.911  -2.300   2.075  0.00  0.00    +0.006 C 
ATOM     19  C   UNL     1       4.744  -2.800   0.638  0.00  0.00    +0.021 C 
ENDBRANCH  17  19
BRANCH  17  20
ATOM     20  C   UNL     1       3.198  -2.877  -1.323  0.00  0.00    +0.178 C 
BRANCH  20  21
ATOM     21  O   UNL     1       4.328  -2.601  -2.152  0.00  0.00    -0.393 OA
ATOM     22  H   UNL     1       4.253  -2.953  -3.050  0.00  0.00    +0.209 HD
ENDBRANCH  20  21
ENDBRANCH  17  20
ENDBRANCH   1  17
TORSDOF 4
