REMARK  Name = ZINC32680264
REMARK  8 active torsions:
REMARK  status: ('A' for Active; 'I' for Inactive)
REMARK    1  A    between atoms: C_1  and  O_2
REMARK    2  A    between atoms: O_2  and  C_3
REMARK    3  A    between atoms: C_5  and  O_34
REMARK    4  A    between atoms: C_6  and  O_32
REMARK    5  A    between atoms: C_10  and  C_13
REMARK    6  A    between atoms: C_24  and  C_27
REMARK    7  A    between atoms: O_32  and  C_33
REMARK    8  A    between atoms: O_34  and  C_35
REMARK                            x       y       z     vdW  Elec       q    Type
REMARK                         _______ _______ _______ _____ _____    ______ ____
ROOT
ATOM      1  C   UNL     1      -3.419   3.440   5.911  0.00  0.00    +0.263 C 
ATOM      2  O   UNL     1      -2.559   4.139   6.413  0.00  0.00    -0.268 OA
ATOM      3  N   UNL     1      -4.655   3.402   6.449  0.00  0.00    -0.293 N 
ATOM      4  C   UNL     1      -5.669   2.463   5.945  0.00  0.00    +0.127 C 
ATOM      5  C   UNL     1      -6.250   1.693   7.141  0.00  0.00    +0.125 C 
ATOM      6  N   UNL     1      -6.734   2.650   8.145  0.00  0.00    -0.311 N 
ATOM      7  C   UNL     1      -5.634   3.463   8.681  0.00  0.00    +0.125 C 
ATOM      8  C   UNL     1      -5.026   4.302   7.551  0.00  0.00    +0.127 C 
ATOM      9  C   UNL     1      -7.416   1.999   9.167  0.00  0.00    +0.140 A 
ATOM     10  C   UNL     1      -8.797   1.844   9.085  0.00  0.00    +0.081 A 
ATOM     11  C   UNL     1      -9.462   1.188  10.107  0.00  0.00    +0.037 A 
ATOM     12  C   UNL     1      -8.722   0.718  11.184  0.00  0.00    +0.074 A 
ATOM     13  C   UNL     1      -7.355   0.912  11.202  0.00  0.00    +0.125 A 
ATOM     14  N   UNL     1      -6.747   1.536  10.211  0.00  0.00    -0.238 NA
ATOM     15 CL   UNL     1      -9.673   2.458   7.718  0.00  0.00    -0.080 Cl
ENDROOT
BRANCH   1  23
ATOM     16  C   UNL     1      -1.082   0.832   2.313  0.00  0.00    +0.133 A 
ATOM     17  C   UNL     1      -1.526   0.173   1.186  0.00  0.00    +0.095 A 
ATOM     18  C   UNL     1      -2.882   0.152   0.871  0.00  0.00    +0.167 A 
ATOM     19  C   UNL     1      -3.804   0.794   1.684  0.00  0.00    +0.186 A 
ATOM     20  C   UNL     1      -3.376   1.465   2.826  0.00  0.00    +0.096 A 
ATOM     21  C   UNL     1      -2.006   1.483   3.151  0.00  0.00    +0.046 A 
ATOM     22  C   UNL     1      -1.871   2.232   4.342  0.00  0.00    +0.044 A 
ATOM     23  C   UNL     1      -3.112   2.639   4.720  0.00  0.00    +0.103 A 
ATOM     24  N   UNL     1      -4.039   2.176   3.802  0.00  0.00    -0.348 N 
ATOM     25  H   UNL     1      -5.132   2.291   3.753  0.00  0.00    +0.166 HD
BRANCH  16  27
ATOM     26  C   UNL     1       1.121   0.161   1.722  0.00  0.00    +0.277 C 
ATOM     27  O   UNL     1       0.242   0.848   2.615  0.00  0.00    -0.494 OA
ENDBRANCH  16  27
BRANCH  19  28
ATOM     28  O   UNL     1      -5.128   0.767   1.365  0.00  0.00    -0.490 OA
ATOM     29  C   UNL     1      -5.901  -0.313   1.894  0.00  0.00    +0.277 C 
ENDBRANCH  19  28
BRANCH  18  30
ATOM     30  O   UNL     1      -3.306  -0.501  -0.243  0.00  0.00    -0.491 OA
ATOM     31  C   UNL     1      -2.306  -1.142  -1.039  0.00  0.00    +0.277 C 
ENDBRANCH  18  30
ENDBRANCH   1  23
BRANCH  12  32
ATOM     32  C   UNL     1      -9.404   0.003  12.322  0.00  0.00    +0.419 C 
ATOM     33  F   UNL     1      -8.451  -0.369  13.277  0.00  0.00    -0.166 F 
ATOM     34  F   UNL     1     -10.345   0.855  12.911  0.00  0.00    -0.166 F 
ATOM     35  F   UNL     1     -10.048  -1.139  11.836  0.00  0.00    -0.166 F 
ENDBRANCH  12  32
TORSDOF 5
