REMARK  Name = ZINC00659197
REMARK  7 active torsions:
REMARK  status: ('A' for Active; 'I' for Inactive)
REMARK    1  A    between atoms: C_1  and  C_2
REMARK    2  A    between atoms: C_3  and  C_8
REMARK    3  A    between atoms: N_5  and  C_7
REMARK    4  A    between atoms: C_8  and  N_9
REMARK    5  A    between atoms: C_10  and  C_12
REMARK    6  A    between atoms: C_17  and  C_32
REMARK    7  A    between atoms: C_20  and  C_23
REMARK                            x       y       z     vdW  Elec       q    Type
REMARK                         _______ _______ _______ _____ _____    ______ ____
ROOT
ATOM      1  C   UNL     1       2.940   0.924  -4.604  0.00  0.00    +0.149 A 
ATOM      2  C   UNL     1       3.320   1.428  -5.868  0.00  0.00    +0.078 A 
ATOM      3  C   UNL     1       4.643   1.677  -5.827  0.00  0.00    +0.119 A 
ATOM      4  N   UNL     1       5.100   1.343  -4.583  0.00  0.00    -0.238 N 
ATOM      5  N   UNL     1       4.016   0.883  -3.837  0.00  0.00    -0.164 NA
ATOM      6  C   UNL     1       6.500   1.475  -4.168  0.00  0.00    +0.215 C 
ATOM      7  C   UNL     1       7.382   1.556  -5.419  0.00  0.00    +0.063 C 
ATOM      8  C   UNL     1       6.826   2.611  -6.382  0.00  0.00    +0.104 C 
ATOM      9  N   UNL     1       5.483   2.184  -6.822  0.00  0.00    -0.322 N 
ATOM     10  H   UNL     1       5.200   2.252  -7.747  0.00  0.00    +0.148 HD
ENDROOT
BRANCH   8  11
ATOM     11  C   UNL     1       6.734   3.941  -5.678  0.00  0.00    -0.024 A 
ATOM     12  C   UNL     1       5.673   4.200  -4.830  0.00  0.00    +0.009 A 
ATOM     13  C   UNL     1       5.584   5.417  -4.182  0.00  0.00    +0.050 A 
ATOM     14  C   UNL     1       6.558   6.382  -4.381  0.00  0.00    +0.166 A 
ATOM     15  C   UNL     1       7.627   6.121  -5.235  0.00  0.00    +0.167 A 
ATOM     16  C   UNL     1       7.713   4.896  -5.877  0.00  0.00    +0.055 A 
ATOM     17  O   UNL     1       8.441   7.216  -5.263  0.00  0.00    -0.453 OA
ATOM     18  C   UNL     1       7.649   8.297  -4.738  0.00  0.00    +0.466 C 
ATOM     19  O   UNL     1       6.703   7.640  -3.873  0.00  0.00    -0.453 OA
ENDBRANCH   8  11
BRANCH   1  21
ATOM     20  N   UNL     1       1.347   0.058  -2.960  0.00  0.00    -0.306 N 
ATOM     21  C   UNL     1       1.576   0.520  -4.206  0.00  0.00    +0.264 C 
ATOM     22  O   UNL     1       0.661   0.603  -5.001  0.00  0.00    -0.268 OA
ATOM     23  H   UNL     1       2.077  -0.009  -2.325  0.00  0.00    +0.149 HD
BRANCH  20  24
ATOM     24  C   UNL     1      -0.006  -0.343  -2.566  0.00  0.00    +0.143 C 
BRANCH  24  27
ATOM     25  C   UNL     1      -0.018   1.503   0.010  0.00  0.00    +0.068 C 
ATOM     26  C   UNL     1       0.002  -0.004   0.002  0.00  0.00    +0.065 A 
ATOM     27  C   UNL     1       0.008  -0.818  -1.135  0.00  0.00    +0.010 A 
ATOM     28  C   UNL     1       0.028  -2.107  -0.725  0.00  0.00    +0.113 A 
ATOM     29  N   UNL     1       0.034  -2.109   0.625  0.00  0.00    -0.274 N 
ATOM     30  N   UNL     1       0.023  -0.777   1.058  0.00  0.00    -0.176 NA
ATOM     31  C   UNL     1       0.055  -3.295   1.485  0.00  0.00    +0.172 C 
ENDBRANCH  24  27
ENDBRANCH  20  24
ENDBRANCH   1  21
BRANCH   6  32
ATOM     32  C   UNL     1       6.903   0.259  -3.332  0.00  0.00    +0.412 C 
ATOM     33  F   UNL     1       6.751  -0.903  -4.096  0.00  0.00    -0.168 F 
ATOM     34  F   UNL     1       8.239   0.387  -2.938  0.00  0.00    -0.168 F 
ATOM     35  F   UNL     1       6.087   0.181  -2.198  0.00  0.00    -0.168 F 
ENDBRANCH   6  32
TORSDOF 5
