REMARK  Name = ZINC12735723
REMARK  7 active torsions:
REMARK  status: ('A' for Active; 'I' for Inactive)
REMARK    1  A    between atoms: C_3  and  O_9
REMARK    2  A    between atoms: O_9  and  C_10
REMARK    3  A    between atoms: C_10  and  C_11
REMARK    4  A    between atoms: C_11  and  C_13
REMARK    5  A    between atoms: C_11  and  O_29
REMARK    6  A    between atoms: C_13  and  N_14
REMARK    7  A    between atoms: C_20  and  N_25
REMARK                            x       y       z     vdW  Elec       q    Type
REMARK                         _______ _______ _______ _____ _____    ______ ____
ROOT
ATOM      1  N   UNL     1       1.109   2.057   0.003  0.00  0.00    -0.296 N 
ATOM      2  C   UNL     1      -0.015   1.294   0.009  0.00  0.00    +0.202 A 
ATOM      3  N   UNL     1       0.002  -0.004   0.002  0.00  0.00    -0.237 NA
ATOM      4  C   UNL     1       1.167  -0.699  -0.013  0.00  0.00    +0.079 A 
ATOM      5  C   UNL     1       1.188  -2.095  -0.021  0.00  0.00    +0.050 A 
ATOM      6  C   UNL     1       2.398  -2.756  -0.036  0.00  0.00    +0.073 A 
ATOM      7  C   UNL     1       3.595  -2.049  -0.044  0.00  0.00    +0.145 A 
ATOM      8  C   UNL     1       3.598  -0.682  -0.036  0.00  0.00    +0.049 A 
ATOM      9  C   UNL     1       2.389   0.011  -0.021  0.00  0.00    +0.067 A 
ATOM     10  C   UNL     1       2.333   1.480  -0.012  0.00  0.00    +0.262 A 
ATOM     11  O   UNL     1       3.349   2.151  -0.019  0.00  0.00    -0.267 OA
ATOM     12 CL   UNL     1       2.427  -4.492  -0.046  0.00  0.00    -0.081 Cl
ENDROOT
BRANCH   7  13
ATOM     13  N   UNL     1       4.879  -2.784  -0.061  0.00  0.00    +0.058 N 
ATOM     14  O   UNL     1       5.932  -2.171  -0.068  0.00  0.00    -0.126 OA
ATOM     15  O   UNL     1       4.884  -4.002  -0.068  0.00  0.00    -0.126 OA
ENDBRANCH   7  13
BRANCH   1  16
ATOM     16  C   UNL     1       0.995   3.517   0.011  0.00  0.00    +0.161 C 
BRANCH  16  17
ATOM     17  C   UNL     1       0.970   4.018   1.457  0.00  0.00    +0.172 C 
BRANCH  17  18
ATOM     18  O   UNL     1      -0.150   3.449   2.138  0.00  0.00    -0.387 OA
ATOM     19  H   UNL     1      -1.005   3.671   1.744  0.00  0.00    +0.210 HD
ENDBRANCH  17  18
BRANCH  17  20
ATOM     20  C   UNL     1       0.851   5.543   1.466  0.00  0.00    +0.262 C 
BRANCH  20  21
ATOM     21  O   UNL     1       0.944   6.020   2.810  0.00  0.00    -0.488 OA
BRANCH  21  24
ATOM     22  C   UNL     1       0.596   9.571   2.097  0.00  0.00    +0.023 A 
ATOM     23  C   UNL     1       0.685   8.205   1.907  0.00  0.00    +0.048 A 
ATOM     24  C   UNL     1       0.857   7.364   2.996  0.00  0.00    +0.139 A 
ATOM     25  C   UNL     1       0.933   7.896   4.276  0.00  0.00    +0.084 A 
ATOM     26  C   UNL     1       0.850   9.263   4.462  0.00  0.00    +0.043 A 
ATOM     27  C   UNL     1       0.678  10.100   3.373  0.00  0.00    +0.043 A 
ATOM     28 CL   UNL     1       0.566  11.816   3.609  0.00  0.00    -0.083 Cl
ATOM     29 CL   UNL     1       1.141   6.845   5.642  0.00  0.00    -0.080 Cl
ENDBRANCH  21  24
ENDBRANCH  20  21
ENDBRANCH  17  20
ENDBRANCH  16  17
ENDBRANCH   1  16
TORSDOF 7
