REMARK  Name = ZINC08990673
REMARK  10 active torsions:
REMARK  status: ('A' for Active; 'I' for Inactive)
REMARK    1  A    between atoms: C_1  and  C_2
REMARK    2  A    between atoms: C_2  and  O_3
REMARK    3  A    between atoms: O_3  and  C_4
REMARK    4  A    between atoms: C_7  and  N_10
REMARK    5  A    between atoms: C_11  and  N_28
REMARK    6  A    between atoms: C_12  and  C_15
REMARK    7  A    between atoms: N_17  and  C_18
REMARK    8  A    between atoms: C_18  and  C_19
REMARK    9  A    between atoms: C_19  and  C_21
REMARK   10  A    between atoms: C_19  and  C_22
REMARK                            x       y       z     vdW  Elec       q    Type
REMARK                         _______ _______ _______ _____ _____    ______ ____
ROOT
ATOM      1  N   UNL     1       2.405   1.102  -0.014  0.00  0.00    -0.198 N 
ATOM      2  C   UNL     1       3.543   1.487  -0.654  0.00  0.00    +0.152 A 
ATOM      3  C   UNL     1       4.492   0.508  -0.386  0.00  0.00    +0.188 A 
ATOM      4  N   UNL     1       3.914  -0.432   0.386  0.00  0.00    -0.122 NA
ATOM      5  N   UNL     1       2.691  -0.114   0.623  0.00  0.00    -0.058 NA
ENDROOT
BRANCH   1   9
ATOM      6  C   UNL     1      -1.236   3.137   0.030  0.00  0.00    +0.121 A 
ATOM      7  C   UNL     1      -1.218   1.750   0.017  0.00  0.00    +0.048 A 
ATOM      8  C   UNL     1      -0.013   1.076   0.008  0.00  0.00    +0.031 A 
ATOM      9  C   UNL     1       1.180   1.786   0.000  0.00  0.00    +0.069 A 
ATOM     10  C   UNL     1       1.161   3.174   0.007  0.00  0.00    +0.031 A 
ATOM     11  C   UNL     1      -0.045   3.848   0.022  0.00  0.00    +0.048 A 
BRANCH   6  12
ATOM     12  O   UNL     1      -2.423   3.800   0.045  0.00  0.00    -0.492 OA
BRANCH  12  14
ATOM     13  C   UNL     1      -4.837   3.921   0.068  0.00  0.00    +0.048 C 
ATOM     14  C   UNL     1      -3.610   3.006   0.052  0.00  0.00    +0.225 C 
ENDBRANCH  12  14
ENDBRANCH   6  12
ENDBRANCH   1   9
BRANCH   3  15
ATOM     15  C   UNL     1       5.879   0.496  -0.865  0.00  0.00    +0.268 C 
ATOM     16  O   UNL     1       6.290   1.406  -1.561  0.00  0.00    -0.268 OA
ATOM     17  N   UNL     1       6.698  -0.522  -0.535  0.00  0.00    -0.309 N 
ATOM     18  H   UNL     1       6.371  -1.247   0.020  0.00  0.00    +0.149 HD
BRANCH  17  19
ATOM     19  C   UNL     1       8.083  -0.533  -1.013  0.00  0.00    +0.112 C 
BRANCH  19  20
ATOM     20  C   UNL     1       8.790  -1.789  -0.499  0.00  0.00    +0.033 C 
ATOM     21  C   UNL     1       8.889  -1.730   1.026  0.00  0.00    +0.014 C 
BRANCH  20  22
ATOM     22  C   UNL     1      10.174  -1.863  -1.090  0.00  0.00    -0.043 A 
ATOM     23  C   UNL     1      11.080  -0.846  -0.859  0.00  0.00    +0.004 A 
ATOM     24  C   UNL     1      12.351  -0.916  -1.397  0.00  0.00    +0.000 A 
ATOM     25  C   UNL     1      12.713  -2.000  -2.176  0.00  0.00    +0.000 A 
ATOM     26  C   UNL     1      11.805  -3.015  -2.411  0.00  0.00    +0.000 A 
ATOM     27  C   UNL     1      10.535  -2.947  -1.869  0.00  0.00    +0.004 A 
ENDBRANCH  20  22
ENDBRANCH  19  20
ENDBRANCH  17  19
ENDBRANCH   3  15
BRANCH   2  28
ATOM     28  N   UNL     1       3.721   2.625  -1.415  0.00  0.00    -0.341 N 
ATOM     29  H   UNL     1       2.986   3.247  -1.536  0.00  0.00    +0.144 HD
ATOM     30  H   UNL     1       4.580   2.802  -1.828  0.00  0.00    +0.144 HD
ENDBRANCH   2  28
TORSDOF 8
