REMARK  Name = ZINC50093003
REMARK  8 active torsions:
REMARK  status: ('A' for Active; 'I' for Inactive)
REMARK    1  A    between atoms: C_1  and  C_2
REMARK    2  A    between atoms: C_2  and  C_3
REMARK    3  A    between atoms: C_6  and  C_9
REMARK    4  A    between atoms: C_6  and  N_11
REMARK    5  A    between atoms: C_9  and  N_10
REMARK    6  A    between atoms: N_11  and  C_12
REMARK    7  A    between atoms: N_11  and  S_13
REMARK    8  A    between atoms: S_13  and  C_16
REMARK                            x       y       z     vdW  Elec       q    Type
REMARK                         _______ _______ _______ _____ _____    ______ ____
ROOT
ATOM      1  C   UNL     1      -0.273  -0.674  -0.791  0.00  0.00    -0.011 C 
ATOM      2  C   UNL     1      -0.737  -0.342  -2.211  0.00  0.00    +0.005 C 
ATOM      3  C   UNL     1       0.322  -0.805  -3.215  0.00  0.00    +0.022 C 
ATOM      4  C   UNL     1       0.523  -2.316  -3.084  0.00  0.00    +0.027 C 
ATOM      5  C   UNL     1       0.987  -2.648  -1.664  0.00  0.00    +0.022 C 
ATOM      6  C   UNL     1      -0.072  -2.186  -0.661  0.00  0.00    +0.005 C 
ENDROOT
BRANCH   1   8
ATOM      7  C   UNL     1      -1.425   1.315   0.187  0.00  0.00    +0.004 C 
ATOM      8  C   UNL     1      -1.332  -0.212   0.212  0.00  0.00    -0.000 C 
ENDBRANCH   1   8
BRANCH   4   9
ATOM      9  N   UNL     1      -0.742  -3.002  -3.358  0.00  0.00    -0.175 NA
ATOM     10  C   UNL     1      -1.333  -3.880  -2.345  0.00  0.00    +0.132 C 
BRANCH   9  11
ATOM     11  S   UNL     1      -1.504  -2.786  -4.812  0.00  0.00    +0.064 S 
ATOM     12  O   UNL     1      -2.898  -2.884  -4.559  0.00  0.00    -0.153 OA
ATOM     13  O   UNL     1      -0.917  -1.639  -5.411  0.00  0.00    -0.153 OA
BRANCH  11  14
ATOM     14  C   UNL     1      -1.080  -4.159  -5.832  0.00  0.00    +0.142 A 
ATOM     15  C   UNL     1      -0.081  -4.195  -6.744  0.00  0.00    +0.133 A 
ATOM     16  N   UNL     1      -0.085  -5.420  -7.310  0.00  0.00    -0.283 N 
ATOM     17  H   UNL     1       0.522  -5.732  -8.000  0.00  0.00    +0.188 HD
ATOM     18  N   UNL     1      -1.121  -6.161  -6.726  0.00  0.00    -0.180 NA
ATOM     19  C   UNL     1      -1.712  -5.407  -5.836  0.00  0.00    +0.162 A 
ENDBRANCH  11  14
ENDBRANCH   9  11
ENDBRANCH   4   9
BRANCH   4  20
ATOM     20  C   UNL     1       1.581  -2.778  -4.087  0.00  0.00    -0.062 C 
BRANCH  20  21
ATOM     21  N   UNL     1       1.689  -4.243  -4.046  0.00  0.00    +0.379 N 
ATOM     22  H   UNL     1       0.798  -4.652  -4.284  0.00  0.00    -0.090 HD
ATOM     23  H   UNL     1       2.387  -4.548  -4.708  0.00  0.00    -0.090 HD
ATOM     24  H   UNL     1       1.955  -4.534  -3.118  0.00  0.00    -0.090 HD
ENDBRANCH  20  21
ENDBRANCH   4  20
TORSDOF 6
