REMARK  Name = ZINC16577118
REMARK  9 active torsions:
REMARK  status: ('A' for Active; 'I' for Inactive)
REMARK    1  A    between atoms: C_1  and  C_2
REMARK    2  A    between atoms: C_2  and  N_3
REMARK    3  A    between atoms: N_5  and  C_23
REMARK    4  A    between atoms: C_9  and  C_10
REMARK    5  A    between atoms: C_12  and  N_19
REMARK    6  A    between atoms: C_13  and  O_18
REMARK    7  A    between atoms: C_14  and  O_16
REMARK    8  A    between atoms: O_16  and  C_17
REMARK    9  A    between atoms: C_23  and  C_24
REMARK                            x       y       z     vdW  Elec       q    Type
REMARK                         _______ _______ _______ _____ _____    ______ ____
ROOT
ATOM      1  C   UNL     1       5.358  -2.934   1.621  0.00  0.00    -0.018 A 
ATOM      2  C   UNL     1       4.259  -2.942   2.488  0.00  0.00    +0.044 A 
ATOM      3  C   UNL     1       4.456  -2.863   3.849  0.00  0.00    +0.172 A 
ATOM      4  C   UNL     1       5.743  -2.776   4.364  0.00  0.00    +0.189 A 
ATOM      5  C   UNL     1       6.843  -2.767   3.507  0.00  0.00    +0.164 A 
ATOM      6  C   UNL     1       6.655  -2.852   2.142  0.00  0.00    +0.057 A 
ENDROOT
BRANCH   1  13
ATOM      7  N   UNL     1       0.136  -1.747  -1.055  0.00  0.00    -0.263 NA
ATOM      8  C   UNL     1       1.385  -2.116  -0.985  0.00  0.00    +0.163 C 
ATOM      9  N   UNL     1       2.198  -2.593  -1.993  0.00  0.00    -0.247 N 
ATOM     10  C   UNL     1       3.454  -2.925  -1.745  0.00  0.00    +0.259 C 
ATOM     11  O   UNL     1       4.185  -3.348  -2.622  0.00  0.00    -0.269 OA
ATOM     12  C   UNL     1       3.929  -2.760  -0.358  0.00  0.00    +0.078 C 
ATOM     13  C   UNL     1       5.152  -3.018   0.169  0.00  0.00    +0.028 C 
ATOM     14  S   UNL     1       2.463  -2.120   0.439  0.00  0.00    -0.049 S 
BRANCH   7  16
ATOM     15  C   UNL     1      -0.924   0.214  -0.048  0.00  0.00    +0.029 C 
ATOM     16  C   UNL     1      -0.552  -1.258   0.142  0.00  0.00    +0.141 C 
ENDBRANCH   7  16
BRANCH   9  17
ATOM     17  C   UNL     1       1.664  -2.734  -3.350  0.00  0.00    +0.112 C 
ATOM     18  C   UNL     1       1.893  -1.435  -4.126  0.00  0.00    +0.025 C 
ENDBRANCH   9  17
ENDBRANCH   1  13
BRANCH   3  19
ATOM     19  N   UNL     1       3.293  -2.871   4.765  0.00  0.00    +0.060 N 
ATOM     20  O   UNL     1       2.173  -2.946   4.318  0.00  0.00    -0.126 OA
ATOM     21  O   UNL     1       3.465  -2.801   5.960  0.00  0.00    -0.126 OA
ENDBRANCH   3  19
BRANCH   5  22
ATOM     22  O   UNL     1       8.100  -2.680   4.017  0.00  0.00    -0.491 OA
ATOM     23  C   UNL     1       9.181  -2.677   3.081  0.00  0.00    +0.277 C 
ENDBRANCH   5  22
BRANCH   4  24
ATOM     24  O   UNL     1       5.930  -2.698   5.708  0.00  0.00    -0.502 OA
ATOM     25  H   UNL     1       6.026  -3.557   6.142  0.00  0.00    +0.292 HD
ENDBRANCH   4  24
TORSDOF 6
