REMARK  Name = ZINC06445135
REMARK  10 active torsions:
REMARK  status: ('A' for Active; 'I' for Inactive)
REMARK    1  A    between atoms: C_12  and  C_13
REMARK    2  A    between atoms: C_13  and  N_14
REMARK    3  A    between atoms: N_14  and  C_15
REMARK    4  A    between atoms: N_14  and  C_22
REMARK    5  A    between atoms: C_15  and  C_16
REMARK    6  A    between atoms: C_22  and  N_24
REMARK    7  A    between atoms: N_24  and  C_25
REMARK    8  A    between atoms: C_25  and  C_26
REMARK    9  A    between atoms: C_26  and  C_27
REMARK   10  A    between atoms: C_27  and  N_66
REMARK                            x       y       z     vdW  Elec       q    Type
REMARK                         _______ _______ _______ _____ _____    ______ ____
ROOT
ATOM      1  N   UNL     1      -6.563  -0.998   1.453  0.00  0.00    -0.306 N 
ENDROOT
BRANCH   1   2
ATOM      2  C   UNL     1      -7.391  -0.131   2.069  0.00  0.00    +0.133 C 
ATOM      3  S   UNL     1      -8.062   1.180   1.195  0.00  0.00    -0.019 S 
BRANCH   2   4
ATOM      4  N   UNL     1      -7.691  -0.295   3.372  0.00  0.00    -0.326 N 
ATOM      5  H   UNL     1      -7.311  -1.038   3.867  0.00  0.00    +0.148 HD
BRANCH   4   6
ATOM      6  C   UNL     1      -8.591   0.647   4.042  0.00  0.00    +0.101 C 
BRANCH   6   7
ATOM      7  C   UNL     1      -8.763   0.236   5.505  0.00  0.00    +0.000 C 
BRANCH   7   8
ATOM      8  C   UNL     1      -9.703   1.220   6.204  0.00  0.00    -0.077 C 
BRANCH   8  14
ATOM      9  C   UNL     1     -10.576  -0.459   7.716  0.00  0.00    -0.050 C 
ATOM     10  C   UNL     1     -10.673  -0.861   9.190  0.00  0.00    +0.141 C 
ATOM     11  O   UNL     1     -11.328   0.180   9.920  0.00  0.00    -0.383 OA
ATOM     12  C   UNL     1     -10.666   1.445   9.839  0.00  0.00    +0.141 C 
ATOM     13  C   UNL     1     -10.568   1.870   8.371  0.00  0.00    -0.050 C 
ATOM     14  N   UNL     1      -9.844   0.822   7.622  0.00  0.00    +0.383 N 
ATOM     15  H   UNL     1      -8.910   0.705   8.030  0.00  0.00    -0.082 HD
ENDBRANCH   8  14
ENDBRANCH   7   8
ENDBRANCH   6   7
ENDBRANCH   4   6
ENDBRANCH   2   4
ENDBRANCH   1   2
BRANCH   1  16
ATOM     16  C   UNL     1      -6.151  -0.759   0.068  0.00  0.00    +0.147 C 
BRANCH  16  28
ATOM     17  C   UNL     1      -4.770   1.300  -0.010  0.00  0.00    +0.020 A 
ATOM     18  C   UNL     1      -3.462   1.954  -0.022  0.00  0.00    +0.003 A 
ATOM     19  C   UNL     1      -3.352   3.348  -0.089  0.00  0.00    +0.059 A 
ATOM     20  C   UNL     1      -2.106   3.935  -0.100  0.00  0.00    +0.167 A 
ATOM     21  C   UNL     1      -0.952   3.143  -0.044  0.00  0.00    +0.168 A 
ATOM     22  C   UNL     1      -1.052   1.765   0.019  0.00  0.00    +0.075 A 
ATOM     23  C   UNL     1      -2.301   1.158   0.035  0.00  0.00    +0.053 A 
ATOM     24  N   UNL     1      -2.419  -0.215   0.101  0.00  0.00    -0.322 N 
ATOM     25  H   UNL     1      -1.619  -0.763   0.141  0.00  0.00    +0.169 HD
ATOM     26  C   UNL     1      -3.627  -0.806   0.110  0.00  0.00    +0.254 A 
ATOM     27  O   UNL     1      -3.693  -2.022   0.168  0.00  0.00    -0.268 OA
ATOM     28  C   UNL     1      -4.818  -0.055   0.054  0.00  0.00    +0.035 A 
ATOM     29  O   UNL     1       0.138   3.964  -0.070  0.00  0.00    -0.453 OA
ATOM     30  C   UNL     1      -0.345   5.230  -0.556  0.00  0.00    +0.466 C 
ATOM     31  O   UNL     1      -1.729   5.247  -0.161  0.00  0.00    -0.453 OA
ENDBRANCH  16  28
ENDBRANCH   1  16
BRANCH   1  32
ATOM     32  C   UNL     1      -6.075  -2.179   2.169  0.00  0.00    +0.138 C 
BRANCH  32  33
ATOM     33  C   UNL     1      -4.768  -1.837   2.887  0.00  0.00    +0.136 C 
ATOM     34  C   UNL     1      -4.170  -3.100   3.545  0.00  0.00    +0.035 C 
ATOM     35  C   UNL     1      -3.571  -2.583   4.872  0.00  0.00    +0.031 C 
ATOM     36  C   UNL     1      -3.878  -1.070   4.859  0.00  0.00    +0.160 C 
ATOM     37  O   UNL     1      -5.019  -0.932   3.984  0.00  0.00    -0.375 OA
ENDBRANCH  32  33
ENDBRANCH   1  32
TORSDOF 10
