REMARK  Name = ZINC02126592
REMARK  7 active torsions:
REMARK  status: ('A' for Active; 'I' for Inactive)
REMARK    1  A    between atoms: C_3  and  O_12
REMARK    2  A    between atoms: O_12  and  C_13
REMARK    3  A    between atoms: C_15  and  O_28
REMARK    4  A    between atoms: C_17  and  O_27
REMARK    5  A    between atoms: C_19  and  O_26
REMARK    6  A    between atoms: C_21  and  C_24
REMARK    7  A    between atoms: C_24  and  O_25
REMARK                            x       y       z     vdW  Elec       q    Type
REMARK                         _______ _______ _______ _____ _____    ______ ____
ROOT
ATOM      1  C   UNL     1      -0.756   1.594  -1.230  0.00  0.00    +0.339 C 
ATOM      2  C   UNL     1      -0.013   1.086   0.008  0.00  0.00    +0.214 C 
ATOM      3  C   UNL     1      -0.732   1.581   1.266  0.00  0.00    +0.180 C 
ATOM      4  C   UNL     1      -0.815   3.110   1.225  0.00  0.00    +0.177 C 
ATOM      5  C   UNL     1      -1.529   3.540  -0.059  0.00  0.00    +0.179 C 
ATOM      6  O   UNL     1      -0.826   3.021  -1.190  0.00  0.00    -0.331 OA
ENDROOT
BRANCH   4   7
ATOM      7  O   UNL     1       0.503   3.661   1.247  0.00  0.00    -0.386 OA
ATOM      8  H   UNL     1       1.016   3.424   2.032  0.00  0.00    +0.210 HD
ENDBRANCH   4   7
BRANCH   3   9
ATOM      9  O   UNL     1      -0.003   1.173   2.426  0.00  0.00    -0.386 OA
ATOM     10  H   UNL     1       0.094   0.215   2.512  0.00  0.00    +0.210 HD
ENDBRANCH   3   9
BRANCH   2  11
ATOM     11  O   UNL     1       1.327   1.582  -0.002  0.00  0.00    -0.383 OA
ATOM     12  H   UNL     1       1.842   1.308  -0.774  0.00  0.00    +0.210 HD
ENDBRANCH   2  11
BRANCH   1  13
ATOM     13  O   UNL     1      -0.057   1.183  -2.407  0.00  0.00    -0.461 OA
BRANCH  13  16
ATOM     14  C   UNL     1      -2.482   2.424  -4.807  0.00  0.00    +0.012 A 
ATOM     15  C   UNL     1      -1.872   2.128  -3.628  0.00  0.00    +0.046 A 
ATOM     16  C   UNL     1      -0.642   1.464  -3.601  0.00  0.00    +0.125 A 
ATOM     17  C   UNL     1      -0.017   1.100  -4.760  0.00  0.00    +0.054 A 
ATOM     18  C   UNL     1      -0.622   1.386  -5.995  0.00  0.00    -0.014 A 
ATOM     19  C   UNL     1      -1.870   2.059  -6.019  0.00  0.00    -0.017 A 
ATOM     20  C   UNL     1      -2.471   2.350  -7.255  0.00  0.00    +0.023 A 
ATOM     21  C   UNL     1      -1.850   1.982  -8.410  0.00  0.00    +0.018 A 
ATOM     22  C   UNL     1      -0.623   1.320  -8.386  0.00  0.00    +0.016 A 
ATOM     23  C   UNL     1      -0.011   1.022  -7.207  0.00  0.00    +0.010 A 
ATOM     24 BR   UNL     1      -2.664   2.375 -10.071  0.00  0.00    -0.050 Br
ENDBRANCH  13  16
ENDBRANCH   1  13
BRANCH   5  25
ATOM     25  C   UNL     1      -1.562   5.068  -0.137  0.00  0.00    +0.190 C 
BRANCH  25  26
ATOM     26  O   UNL     1      -2.328   5.470  -1.274  0.00  0.00    -0.392 OA
ATOM     27  H   UNL     1      -2.393   6.428  -1.386  0.00  0.00    +0.210 HD
ENDBRANCH  25  26
ENDBRANCH   5  25
TORSDOF 7
