REMARK  Name = ZINC29581486
REMARK  4 active torsions:
REMARK  status: ('A' for Active; 'I' for Inactive)
REMARK    1  A    between atoms: C_6  and  C_7
REMARK    2  A    between atoms: C_13  and  C_15
REMARK    3  A    between atoms: C_15  and  S_16
REMARK    4  A    between atoms: S_16  and  C_17
REMARK                            x       y       z     vdW  Elec       q    Type
REMARK                         _______ _______ _______ _____ _____    ______ ____
ROOT
ATOM      1  C   UNL     1       2.405   1.166  -0.092  0.00  0.00    +0.106 C 
ATOM      2  C   UNL     1       2.742   0.699   1.340  0.00  0.00    +0.029 C 
ATOM      3  C   UNL     1       3.389  -0.692   1.108  0.00  0.00    +0.021 C 
ATOM      4  C   UNL     1       2.567  -1.221  -0.094  0.00  0.00    +0.108 C 
ATOM      5  N   UNL     1       2.324  -0.036  -0.935  0.00  0.00    -0.294 N 
ATOM      6  C   UNL     1       2.070  -0.051  -2.259  0.00  0.00    +0.226 C 
ATOM      7  O   UNL     1       1.884   0.990  -2.853  0.00  0.00    -0.275 OA
ENDROOT
BRANCH   1  13
ATOM      8  C   UNL     1      -0.097   1.165  -0.083  0.00  0.00    +0.009 A 
ATOM      9  C   UNL     1      -1.313   1.823  -0.096  0.00  0.00    +0.050 A 
ATOM     10  C   UNL     1      -1.353   3.209  -0.113  0.00  0.00    +0.162 A 
ATOM     11  C   UNL     1      -0.167   3.934  -0.126  0.00  0.00    +0.162 A 
ATOM     12  C   UNL     1       1.049   3.269  -0.120  0.00  0.00    +0.055 A 
ATOM     13  C   UNL     1       1.082   1.887  -0.099  0.00  0.00    -0.023 A 
ATOM     14  O   UNL     1      -0.184   5.295  -0.139  0.00  0.00    -0.485 OA
ATOM     15  C   UNL     1      -1.415   5.920  -0.521  0.00  0.00    +0.270 C 
ATOM     16  C   UNL     1      -2.559   5.229   0.232  0.00  0.00    +0.270 C 
ATOM     17  O   UNL     1      -2.558   3.842  -0.126  0.00  0.00    -0.485 OA
ENDBRANCH   1  13
BRANCH   6  18
ATOM     18  C   UNL     1       2.015  -1.362  -3.001  0.00  0.00    +0.173 C 
BRANCH  18  19
ATOM     19  S   UNL     1       1.657  -1.052  -4.748  0.00  0.00    -0.083 S 
BRANCH  19  20
ATOM     20  C   UNL     1       1.652  -2.705  -5.357  0.00  0.00    +0.128 C 
ATOM     21  N   UNL     1       1.876  -3.700  -4.544  0.00  0.00    -0.382 N 
ATOM     22  N   UNL     1       1.411  -2.946  -6.690  0.00  0.00    -0.307 N 
ATOM     23  C   UNL     1       1.261  -1.837  -7.645  0.00  0.00    +0.135 C 
ATOM     24  C   UNL     1       2.190  -2.105  -8.840  0.00  0.00    +0.179 C 
ATOM     25  O   UNL     1       1.936  -3.418  -9.347  0.00  0.00    -0.377 OA
ATOM     26  C   UNL     1       2.212  -4.468  -8.416  0.00  0.00    +0.179 C 
ATOM     27  C   UNL     1       1.290  -4.321  -7.201  0.00  0.00    +0.135 C 
ATOM     28  H   UNL     1       1.873  -4.732  -4.925  0.00  0.00    +0.158 HD
ATOM     29  H   UNL     1       2.068  -3.507  -3.478  0.00  0.00    +0.158 HD
ENDBRANCH  19  20
ENDBRANCH  18  19
ENDBRANCH   6  18
TORSDOF 4
