REMARK  Name = ZINC59304616
REMARK  7 active torsions:
REMARK  status: ('A' for Active; 'I' for Inactive)
REMARK    1  A    between atoms: C_1  and  C_2
REMARK    2  A    between atoms: C_4  and  C_17
REMARK    3  A    between atoms: C_5  and  C_16
REMARK    4  A    between atoms: N_6  and  C_7
REMARK    5  A    between atoms: C_10  and  N_13
REMARK    6  A    between atoms: N_18  and  N_19
REMARK    7  A    between atoms: C_20  and  C_22
REMARK                            x       y       z     vdW  Elec       q    Type
REMARK                         _______ _______ _______ _____ _____    ______ ____
ROOT
ATOM      1  C   UNL     1      -0.018   1.503   0.010  0.00  0.00    +0.064 C 
ATOM      2  C   UNL     1       0.002  -0.004   0.002  0.00  0.00    +0.022 A 
ATOM      3  C   UNL     1       0.008  -0.781  -1.097  0.00  0.00    +0.032 A 
ATOM      4  C   UNL     1       0.030  -2.170  -0.628  0.00  0.00    +0.016 A 
ATOM      5  C   UNL     1       0.035  -2.113   0.736  0.00  0.00    +0.030 A 
ATOM      6  N   UNL     1       0.024  -0.804   1.109  0.00  0.00    -0.317 N 
ATOM      7  C   UNL     1       0.056  -3.296   1.669  0.00  0.00    +0.064 C 
ENDROOT
BRANCH   6   8
ATOM      8  C   UNL     1       0.029  -0.345   2.433  0.00  0.00    +0.047 A 
ATOM      9  C   UNL     1       1.132  -0.576   3.244  0.00  0.00    +0.028 A 
ATOM     10  C   UNL     1       1.135  -0.122   4.548  0.00  0.00    +0.035 A 
ATOM     11  C   UNL     1       0.042   0.562   5.046  0.00  0.00    +0.126 A 
ATOM     12  C   UNL     1      -1.058   0.794   4.241  0.00  0.00    +0.035 A 
ATOM     13  C   UNL     1      -1.065   0.347   2.934  0.00  0.00    +0.028 A 
BRANCH  11  14
ATOM     14  N   UNL     1       0.048   1.047   6.445  0.00  0.00    +0.056 N 
ATOM     15  O   UNL     1       1.009   0.845   7.151  0.00  0.00    -0.126 OA
ATOM     16  O   UNL     1      -0.907   1.645   6.882  0.00  0.00    -0.126 OA
ENDBRANCH  11  14
ENDBRANCH   6   8
BRANCH   4  17
ATOM     17  C   UNL     1       0.043  -3.384  -1.463  0.00  0.00    +0.140 C 
ATOM     18  N   UNL     1       0.062  -4.556  -0.904  0.00  0.00    -0.187 NA
BRANCH  18  19
ATOM     19  N   UNL     1       0.074  -5.711  -1.697  0.00  0.00    -0.200 N 
ATOM     20  C   UNL     1       0.094  -6.927  -1.117  0.00  0.00    +0.299 C 
ATOM     21  O   UNL     1       0.100  -7.022   0.096  0.00  0.00    -0.265 OA
ATOM     22  H   UNL     1       0.070  -5.635  -2.664  0.00  0.00    +0.178 HD
BRANCH  20  23
ATOM     23  C   UNL     1       0.107  -8.138  -1.949  0.00  0.00    +0.192 A 
ATOM     24  C   UNL     1       0.121  -9.411  -1.476  0.00  0.00    +0.063 A 
ATOM     25  C   UNL     1       0.130 -10.280  -2.652  0.00  0.00    +0.021 A 
ATOM     26  C   UNL     1       0.145 -11.664  -2.841  0.00  0.00    +0.011 A 
ATOM     27  C   UNL     1       0.149 -12.175  -4.108  0.00  0.00    +0.001 A 
ATOM     28  C   UNL     1       0.140 -11.329  -5.208  0.00  0.00    +0.004 A 
ATOM     29  C   UNL     1       0.125  -9.960  -5.044  0.00  0.00    +0.047 A 
ATOM     30  C   UNL     1       0.120  -9.417  -3.764  0.00  0.00    +0.136 A 
ATOM     31  O   UNL     1       0.101  -8.153  -3.298  0.00  0.00    -0.450 OA
ENDBRANCH  20  23
ENDBRANCH  18  19
ENDBRANCH   4  17
TORSDOF 5
