REMARK  Name = ZINC59598842
REMARK  9 active torsions:
REMARK  status: ('A' for Active; 'I' for Inactive)
REMARK    1  A    between atoms: C_1  and  C_2
REMARK    2  A    between atoms: C_5  and  N_8
REMARK    3  A    between atoms: N_11  and  N_12
REMARK    4  A    between atoms: C_13  and  C_14
REMARK    5  A    between atoms: C_16  and  O_26
REMARK    6  A    between atoms: C_17  and  O_21
REMARK    7  A    between atoms: O_21  and  C_22
REMARK    8  A    between atoms: C_22  and  C_23
REMARK    9  A    between atoms: O_26  and  C_27
REMARK                            x       y       z     vdW  Elec       q    Type
REMARK                         _______ _______ _______ _____ _____    ______ ____
ROOT
ATOM      1  N   UNL     1       0.297  -6.881  -0.096  0.00  0.00    -0.186 NA
ATOM      2  C   UNL     1       0.412  -8.173  -0.110  0.00  0.00    +0.138 C 
ENDROOT
BRANCH   2   3
ATOM      3  C   UNL     1       0.415  -8.899  -1.394  0.00  0.00    -0.001 A 
ATOM      4  C   UNL     1       0.532 -10.291  -1.411  0.00  0.00    +0.059 A 
ATOM      5  C   UNL     1       0.534 -10.967  -2.616  0.00  0.00    +0.163 A 
ATOM      6  C   UNL     1       0.418 -10.261  -3.811  0.00  0.00    +0.176 A 
ATOM      7  C   UNL     1       0.301  -8.878  -3.796  0.00  0.00    +0.059 A 
ATOM      8  C   UNL     1       0.294  -8.197  -2.595  0.00  0.00    +0.027 A 
ATOM      9  I   UNL     1       0.129  -7.823  -5.597  0.00  0.00    -0.040 I 
BRANCH   5  10
ATOM     10  O   UNL     1       0.649 -12.322  -2.636  0.00  0.00    -0.491 OA
ATOM     11  C   UNL     1       0.764 -12.982  -1.373  0.00  0.00    +0.277 C 
ENDBRANCH   5  10
BRANCH   6  12
ATOM     12  O   UNL     1       0.420 -10.928  -4.996  0.00  0.00    -0.476 OA
BRANCH  12  13
ATOM     13  C   UNL     1      -0.846 -11.354  -5.503  0.00  0.00    +0.354 C 
BRANCH  13  14
ATOM     14  C   UNL     1      -0.647 -12.070  -6.814  0.00  0.00    +0.393 C 
ATOM     15  O   UNL     1       0.475 -12.203  -7.272  0.00  0.00    -0.243 OA
ATOM     16  O   UNL     1      -1.608 -12.516  -7.417  0.00  0.00    -0.243 OA
ENDBRANCH  13  14
ENDBRANCH  12  13
ENDBRANCH   6  12
ENDBRANCH   2   3
BRANCH   1  20
ATOM     17  N   UNL     1       0.059  -4.170  -0.021  0.00  0.00    -0.268 N 
ATOM     18  C   UNL     1       0.175  -4.848   1.138  0.00  0.00    +0.323 C 
ATOM     19  O   UNL     1       0.173  -4.250   2.196  0.00  0.00    -0.251 OA
ATOM     20  N   UNL     1       0.295  -6.191   1.123  0.00  0.00    -0.191 N 
ATOM     21  H   UNL     1      -0.017  -4.651  -0.860  0.00  0.00    +0.156 HD
ATOM     22  H   UNL     1       0.379  -6.679   1.957  0.00  0.00    +0.179 HD
BRANCH  17  27
ATOM     23  C   UNL     1       0.012   1.503   0.007  0.00  0.00    +0.044 C 
ATOM     24  C   UNL     1       0.025  -0.004  -0.001  0.00  0.00    -0.050 A 
ATOM     25  C   UNL     1       0.779  -0.692   0.931  0.00  0.00    +0.005 A 
ATOM     26  C   UNL     1       0.793  -2.073   0.927  0.00  0.00    +0.023 A 
ATOM     27  C   UNL     1       0.047  -2.771  -0.014  0.00  0.00    +0.035 A 
ATOM     28  C   UNL     1      -0.711  -2.076  -0.948  0.00  0.00    +0.023 A 
ATOM     29  C   UNL     1      -0.724  -0.695  -0.936  0.00  0.00    +0.005 A 
ENDBRANCH  17  27
ENDBRANCH   1  20
TORSDOF 7
