REMARK  Name = ZINC15342175
REMARK  11 active torsions:
REMARK  status: ('A' for Active; 'I' for Inactive)
REMARK    1  A    between atoms: C_1  and  S_2
REMARK    2  A    between atoms: S_2  and  C_3
REMARK    3  A    between atoms: C_3  and  C_4
REMARK    4  A    between atoms: C_4  and  C_5
REMARK    5  A    between atoms: C_5  and  C_7
REMARK    6  A    between atoms: C_5  and  N_22
REMARK    7  A    between atoms: N_9  and  N_10
REMARK    8  A    between atoms: C_11  and  C_13
REMARK    9  A    between atoms: C_17  and  N_19
REMARK   10  A    between atoms: C_23  and  C_25
REMARK   11  A    between atoms: C_29  and  N_31
REMARK                            x       y       z     vdW  Elec       q    Type
REMARK                         _______ _______ _______ _____ _____    ______ ____
ROOT
ATOM      1  C   UNL     1      -9.832   1.006   0.054  0.00  0.00    +0.161 C 
ENDROOT
BRANCH   1   2
ATOM      2  C   UNL     1      -8.535   1.773   0.053  0.00  0.00    +0.249 C 
ATOM      3  O   UNL     1      -8.546   2.985   0.060  0.00  0.00    -0.272 OA
ATOM      4  N   UNL     1      -7.361   1.110   0.043  0.00  0.00    -0.233 N 
ATOM      5  H   UNL     1      -7.352   0.140   0.037  0.00  0.00    +0.173 HD
BRANCH   4   6
ATOM      6  N   UNL     1      -6.155   1.823   0.042  0.00  0.00    -0.230 N 
ATOM      7  C   UNL     1      -4.981   1.160   0.032  0.00  0.00    +0.260 C 
ATOM      8  O   UNL     1      -4.969  -0.055   0.025  0.00  0.00    -0.269 OA
ATOM      9  H   UNL     1      -6.164   2.792   0.048  0.00  0.00    +0.173 HD
BRANCH   7  10
ATOM     10  C   UNL     1      -3.708   1.912   0.030  0.00  0.00    +0.040 A 
ATOM     11  C   UNL     1      -3.718   3.308   0.039  0.00  0.00    +0.013 A 
ATOM     12  C   UNL     1      -2.527   4.003   0.037  0.00  0.00    +0.003 A 
ATOM     13  C   UNL     1      -1.323   3.320   0.032  0.00  0.00    +0.033 A 
ATOM     14  C   UNL     1      -1.306   1.936   0.019  0.00  0.00    +0.127 A 
ATOM     15  C   UNL     1      -2.491   1.229   0.021  0.00  0.00    +0.045 A 
BRANCH  14  16
ATOM     16  N   UNL     1      -0.014   1.214   0.009  0.00  0.00    +0.056 N 
ATOM     17  O   UNL     1       0.002  -0.004   0.002  0.00  0.00    -0.126 OA
ATOM     18  O   UNL     1       1.032   1.837   0.002  0.00  0.00    -0.126 OA
ENDBRANCH  14  16
ENDBRANCH   7  10
ENDBRANCH   4   6
ENDBRANCH   1   2
BRANCH   1  19
ATOM     19  N   UNL     1     -10.955   1.947   0.065  0.00  0.00    -0.300 N 
ATOM     20  C   UNL     1     -12.153   1.573  -0.425  0.00  0.00    +0.245 C 
ATOM     21  O   UNL     1     -12.303   0.454  -0.876  0.00  0.00    -0.270 OA
ATOM     22  H   UNL     1     -10.836   2.840   0.425  0.00  0.00    +0.150 HD
BRANCH  20  23
ATOM     23  C   UNL     1     -13.286   2.522  -0.414  0.00  0.00    +0.039 A 
ATOM     24  C   UNL     1     -13.119   3.806   0.109  0.00  0.00    +0.014 A 
ATOM     25  C   UNL     1     -14.178   4.689   0.112  0.00  0.00    +0.023 A 
ATOM     26  C   UNL     1     -15.409   4.301  -0.392  0.00  0.00    +0.071 A 
ATOM     27  C   UNL     1     -15.582   3.027  -0.907  0.00  0.00    +0.145 A 
ATOM     28  C   UNL     1     -14.528   2.137  -0.920  0.00  0.00    +0.047 A 
ATOM     29 CL   UNL     1     -16.739   5.416  -0.379  0.00  0.00    -0.081 Cl
BRANCH  27  30
ATOM     30  N   UNL     1     -16.900   2.620  -1.444  0.00  0.00    +0.058 N 
ATOM     31  O   UNL     1     -17.053   1.500  -1.897  0.00  0.00    -0.126 OA
ATOM     32  O   UNL     1     -17.831   3.405  -1.432  0.00  0.00    -0.126 OA
ENDBRANCH  27  30
ENDBRANCH  20  23
ENDBRANCH   1  19
BRANCH   1  33
ATOM     33  C   UNL     1      -9.899   0.118   1.298  0.00  0.00    +0.042 C 
BRANCH  33  34
ATOM     34  C   UNL     1     -11.156  -0.751   1.238  0.00  0.00    +0.071 C 
BRANCH  34  36
ATOM     35  C   UNL     1     -12.762  -2.758   2.490  0.00  0.00    +0.084 C 
ATOM     36  S   UNL     1     -11.235  -1.804   2.713  0.00  0.00    -0.164 S 
ENDBRANCH  34  36
ENDBRANCH  33  34
ENDBRANCH   1  33
TORSDOF 10
