REMARK  Name = ZINC58357009
REMARK  5 active torsions:
REMARK  status: ('A' for Active; 'I' for Inactive)
REMARK    1  A    between atoms: C_1  and  C_2
REMARK    2  A    between atoms: N_5  and  C_11
REMARK    3  A    between atoms: C_7  and  C_10
REMARK    4  A    between atoms: C_14  and  N_18
REMARK    5  A    between atoms: C_19  and  C_21
REMARK                            x       y       z     vdW  Elec       q    Type
REMARK                         _______ _______ _______ _____ _____    ______ ____
ROOT
ATOM      1  C   UNL     1      -2.138  -2.697  -0.815  0.00  0.00    +0.066 A 
ATOM      2  C   UNL     1      -1.498  -3.404  -1.824  0.00  0.00    +0.028 A 
ATOM      3  C   UNL     1      -2.227  -4.231  -2.657  0.00  0.00    +0.025 A 
ATOM      4  C   UNL     1      -3.599  -4.355  -2.486  0.00  0.00    +0.037 A 
ATOM      5  C   UNL     1      -4.240  -3.648  -1.477  0.00  0.00    +0.063 A 
ATOM      6  C   UNL     1      -3.511  -2.825  -0.639  0.00  0.00    +0.146 A 
ATOM      7  F   UNL     1      -4.133  -2.141   0.346  0.00  0.00    -0.203 F 
ENDROOT
BRANCH   1  11
ATOM      8  C   UNL     1       0.533   1.373  -0.342  0.00  0.00    +0.039 C 
ATOM      9  C   UNL     1       0.308  -0.133  -0.191  0.00  0.00    +0.133 C 
ATOM     10  C   UNL     1      -1.189  -0.441  -0.303  0.00  0.00    +0.136 C 
ATOM     11  N   UNL     1      -1.398  -1.859   0.030  0.00  0.00    -0.323 N 
ATOM     12  C   UNL     1      -0.808  -2.370   1.277  0.00  0.00    +0.136 C 
ATOM     13  C   UNL     1       0.671  -1.969   1.312  0.00  0.00    +0.133 C 
ATOM     14  O   UNL     1       0.783  -0.561   1.087  0.00  0.00    -0.371 OA
ATOM     15  C   UNL     1       1.263  -2.318   2.679  0.00  0.00    +0.039 C 
ENDBRANCH   1  11
BRANCH   4  16
ATOM     16  N   UNL     1      -4.338  -5.192  -3.332  0.00  0.00    -0.281 N 
ATOM     17  C   UNL     1      -5.431  -5.828  -2.865  0.00  0.00    +0.259 C 
ATOM     18  O   UNL     1      -5.842  -5.588  -1.745  0.00  0.00    -0.269 OA
ATOM     19  H   UNL     1      -4.062  -5.315  -4.254  0.00  0.00    +0.155 HD
BRANCH  17  20
ATOM     20  C   UNL     1      -6.125  -6.807  -3.707  0.00  0.00    +0.165 A 
ATOM     21  C   UNL     1      -5.479  -7.392  -4.813  0.00  0.00    +0.270 A 
ATOM     22  O   UNL     1      -4.324  -7.088  -5.089  0.00  0.00    -0.267 OA
ATOM     23  N   UNL     1      -6.151  -8.296  -5.571  0.00  0.00    -0.274 N 
ATOM     24  C   UNL     1      -7.418  -8.634  -5.275  0.00  0.00    +0.329 A 
ATOM     25  O   UNL     1      -7.993  -9.446  -5.973  0.00  0.00    -0.247 OA
ATOM     26  N   UNL     1      -8.064  -8.096  -4.226  0.00  0.00    -0.274 N 
ATOM     27  C   UNL     1      -7.450  -7.190  -3.423  0.00  0.00    +0.270 A 
ATOM     28  O   UNL     1      -8.043  -6.707  -2.466  0.00  0.00    -0.267 OA
ATOM     29  H   UNL     1      -5.712  -8.702  -6.335  0.00  0.00    +0.173 HD
ATOM     30  H   UNL     1      -8.978  -8.361  -4.039  0.00  0.00    +0.173 HD
ENDBRANCH  17  20
ENDBRANCH   4  16
TORSDOF 3
