REMARK  Name = ZINC67247637
REMARK  8 active torsions:
REMARK  status: ('A' for Active; 'I' for Inactive)
REMARK    1  A    between atoms: C_4  and  N_7
REMARK    2  A    between atoms: C_9  and  C_19
REMARK    3  A    between atoms: C_10  and  C_12
REMARK    4  A    between atoms: C_19  and  N_20
REMARK    5  A    between atoms: N_20  and  C_21
REMARK    6  A    between atoms: C_21  and  C_22
REMARK    7  A    between atoms: C_27  and  C_28
REMARK    8  A    between atoms: C_28  and  O_29
REMARK                            x       y       z     vdW  Elec       q    Type
REMARK                         _______ _______ _______ _____ _____    ______ ____
ROOT
ATOM      1  N   UNL     1       3.608  -0.667  -0.023  0.00  0.00    -0.239 N 
ATOM      2  C   UNL     1       3.779  -2.013  -0.096  0.00  0.00    +0.116 A 
ATOM      3  C   UNL     1       5.107  -2.262  -0.108  0.00  0.00    -0.019 A 
ATOM      4  C   UNL     1       5.779  -1.026  -0.040  0.00  0.00    +0.094 A 
ATOM      5  N   UNL     1       4.875  -0.070   0.005  0.00  0.00    -0.166 NA
ENDROOT
BRANCH   4   6
ATOM      6  C   UNL     1       7.251  -0.834  -0.027  0.00  0.00    +0.002 A 
ATOM      7  C   UNL     1       8.059  -1.571  -0.890  0.00  0.00    +0.013 A 
ATOM      8  C   UNL     1       9.427  -1.389  -0.875  0.00  0.00    +0.039 A 
ATOM      9  C   UNL     1       9.997  -0.476  -0.003  0.00  0.00    +0.123 A 
ATOM     10  C   UNL     1       9.197   0.259   0.857  0.00  0.00    +0.039 A 
ATOM     11  C   UNL     1       7.828   0.088   0.845  0.00  0.00    +0.013 A 
ATOM     12  F   UNL     1      11.336  -0.301   0.008  0.00  0.00    -0.205 F 
ENDBRANCH   4   6
BRANCH   1  16
ATOM     13  C   UNL     1      -0.046   1.335   0.080  0.00  0.00    +0.000 A 
ATOM     14  C   UNL     1       1.135   2.053   0.116  0.00  0.00    +0.002 A 
ATOM     15  C   UNL     1       2.348   1.392   0.082  0.00  0.00    +0.028 A 
ATOM     16  C   UNL     1       2.380   0.005   0.012  0.00  0.00    +0.065 A 
ATOM     17  C   UNL     1       1.192  -0.713  -0.023  0.00  0.00    +0.028 A 
ATOM     18  C   UNL     1      -0.018  -0.046   0.011  0.00  0.00    +0.002 A 
ENDBRANCH   1  16
BRANCH   3  19
ATOM     19  C   UNL     1       5.754  -3.621  -0.180  0.00  0.00    -0.043 C 
BRANCH  19  20
ATOM     20  N   UNL     1       6.298  -3.975   1.137  0.00  0.00    +0.384 N 
ATOM     21  H   UNL     1       6.928  -3.250   1.447  0.00  0.00    -0.085 HD
ATOM     22  H   UNL     1       5.543  -4.069   1.799  0.00  0.00    -0.085 HD
BRANCH  20  23
ATOM     23  C   UNL     1       7.026  -5.247   1.041  0.00  0.00    -0.046 C 
BRANCH  23  24
ATOM     24  C   UNL     1       7.585  -5.610   2.393  0.00  0.00    -0.059 A 
ATOM     25  C   UNL     1       8.913  -5.358   2.682  0.00  0.00    +0.002 A 
ATOM     26  C   UNL     1       9.426  -5.691   3.922  0.00  0.00    +0.000 A 
ATOM     27  C   UNL     1       8.610  -6.276   4.872  0.00  0.00    +0.000 A 
ATOM     28  C   UNL     1       7.282  -6.527   4.584  0.00  0.00    +0.006 A 
ATOM     29  C   UNL     1       6.768  -6.190   3.345  0.00  0.00    -0.021 A 
BRANCH  29  30
ATOM     30  C   UNL     1       5.319  -6.458   3.032  0.00  0.00    +0.191 C 
BRANCH  30  31
ATOM     31  O   UNL     1       4.689  -7.057   4.166  0.00  0.00    -0.390 OA
ATOM     32  H   UNL     1       3.752  -7.258   4.036  0.00  0.00    +0.210 HD
ENDBRANCH  30  31
ENDBRANCH  29  30
ENDBRANCH  23  24
ENDBRANCH  20  23
ENDBRANCH  19  20
ENDBRANCH   3  19
TORSDOF 8
