REMARK  Name = ZINC35292684
REMARK  9 active torsions:
REMARK  status: ('A' for Active; 'I' for Inactive)
REMARK    1  A    between atoms: C_1  and  C_2
REMARK    2  A    between atoms: C_2  and  O_3
REMARK    3  A    between atoms: O_3  and  C_4
REMARK    4  A    between atoms: C_7  and  C_10
REMARK    5  A    between atoms: C_10  and  C_12
REMARK    6  A    between atoms: C_10  and  N_13
REMARK    7  A    between atoms: C_14  and  C_16
REMARK    8  A    between atoms: C_19  and  N_23
REMARK    9  A    between atoms: C_20  and  O_22
REMARK                            x       y       z     vdW  Elec       q    Type
REMARK                         _______ _______ _______ _____ _____    ______ ____
ROOT
ATOM      1  N   UNL     1       2.436  -6.365  -2.375  0.00  0.00    -0.305 N 
ATOM      2  C   UNL     1       2.968  -7.584  -2.158  0.00  0.00    +0.245 C 
ATOM      3  O   UNL     1       2.346  -8.414  -1.523  0.00  0.00    -0.270 OA
ATOM      4  H   UNL     1       2.932  -5.703  -2.882  0.00  0.00    +0.150 HD
ENDROOT
BRANCH   2   5
ATOM      5  C   UNL     1       4.308  -7.912  -2.691  0.00  0.00    +0.040 A 
ATOM      6  C   UNL     1       5.026  -6.959  -3.415  0.00  0.00    +0.015 A 
ATOM      7  C   UNL     1       6.276  -7.269  -3.910  0.00  0.00    +0.037 A 
ATOM      8  C   UNL     1       6.820  -8.521  -3.692  0.00  0.00    +0.167 A 
ATOM      9  C   UNL     1       6.113  -9.475  -2.973  0.00  0.00    +0.148 A 
ATOM     10  C   UNL     1       4.860  -9.173  -2.466  0.00  0.00    +0.060 A 
BRANCH   8  11
ATOM     11  N   UNL     1       8.161  -8.846  -4.228  0.00  0.00    +0.060 N 
ATOM     12  O   UNL     1       8.779  -8.017  -4.855  0.00  0.00    -0.126 OA
ATOM     13  O   UNL     1       8.639  -9.940  -4.039  0.00  0.00    -0.126 OA
ENDBRANCH   8  11
BRANCH   9  14
ATOM     14  O   UNL     1       6.653 -10.704  -2.762  0.00  0.00    -0.504 OA
ATOM     15  H   UNL     1       7.178 -10.770  -1.953  0.00  0.00    +0.292 HD
ENDBRANCH   9  14
ENDBRANCH   2   5
BRANCH   1  16
ATOM     16  C   UNL     1       1.109  -6.040  -1.847  0.00  0.00    +0.100 C 
ATOM     17  C   UNL     1       0.038  -6.521  -2.828  0.00  0.00    +0.033 C 
BRANCH  16  21
ATOM     18  C   UNL     1       0.777  -1.810  -1.336  0.00  0.00    +0.121 A 
ATOM     19  C   UNL     1       0.243  -2.669  -0.386  0.00  0.00    +0.046 A 
ATOM     20  C   UNL     1       0.351  -4.036  -0.554  0.00  0.00    +0.009 A 
ATOM     21  C   UNL     1       0.992  -4.548  -1.667  0.00  0.00    -0.027 A 
ATOM     22  C   UNL     1       1.525  -3.694  -2.615  0.00  0.00    +0.009 A 
ATOM     23  C   UNL     1       1.414  -2.327  -2.455  0.00  0.00    +0.046 A 
BRANCH  18  24
ATOM     24  O   UNL     1       0.671  -0.465  -1.174  0.00  0.00    -0.492 OA
BRANCH  24  26
ATOM     25  C   UNL     1      -0.019   1.526   0.010  0.00  0.00    +0.048 C 
ATOM     26  C   UNL     1       0.002  -0.004   0.002  0.00  0.00    +0.225 C 
ENDBRANCH  24  26
ENDBRANCH  18  24
ENDBRANCH  16  21
ENDBRANCH   1  16
TORSDOF 7
