REMARK  Name = ZINC21233586
REMARK  9 active torsions:
REMARK  status: ('A' for Active; 'I' for Inactive)
REMARK    1  A    between atoms: C_1  and  C_2
REMARK    2  A    between atoms: C_2  and  C_3
REMARK    3  A    between atoms: C_3  and  C_4
REMARK    4  A    between atoms: C_4  and  C_6
REMARK    5  A    between atoms: C_4  and  N_7
REMARK    6  A    between atoms: C_8  and  C_10
REMARK    7  A    between atoms: C_10  and  S_11
REMARK    8  A    between atoms: S_11  and  C_12
REMARK    9  A    between atoms: C_22  and  C_26
REMARK                            x       y       z     vdW  Elec       q    Type
REMARK                         _______ _______ _______ _____ _____    ______ ____
ROOT
ATOM      1  C   UNL     1      -7.158   1.275   2.699  0.00  0.00    +0.191 A 
ATOM      2  N   UNL     1      -7.171   0.127   2.031  0.00  0.00    -0.207 NA
ATOM      3  C   UNL     1      -8.101  -0.791   2.231  0.00  0.00    +0.129 A 
ATOM      4  C   UNL     1      -9.130  -0.544   3.183  0.00  0.00    +0.051 A 
ATOM      5  C   UNL     1     -10.252  -1.405   3.561  0.00  0.00    -0.025 A 
ATOM      6  C   UNL     1     -11.097  -0.933   4.499  0.00  0.00    -0.004 A 
ATOM      7  S   UNL     1     -10.460   0.665   4.932  0.00  0.00    -0.073 S 
ATOM      8  C   UNL     1      -9.056   0.695   3.849  0.00  0.00    +0.115 A 
ATOM      9  N   UNL     1      -8.091   1.559   3.597  0.00  0.00    -0.214 NA
ATOM     10  C   UNL     1     -12.311  -1.614   5.054  0.00  0.00    +0.046 C 
ATOM     11  C   UNL     1     -12.253  -3.098   4.666  0.00  0.00    -0.009 C 
ATOM     12  C   UNL     1     -11.923  -3.204   3.174  0.00  0.00    +0.008 C 
ATOM     13  C   UNL     1     -10.474  -2.778   2.933  0.00  0.00    +0.037 C 
ATOM     14  C   UNL     1     -13.609  -3.753   4.939  0.00  0.00    +0.008 C 
ATOM     15  N   UNL     1      -8.077  -1.977   1.520  0.00  0.00    -0.343 N 
ATOM     16  H   UNL     1      -8.854  -2.737   1.691  0.00  0.00    +0.144 HD
ATOM     17  H   UNL     1      -7.281  -2.160   0.782  0.00  0.00    +0.144 HD
ENDROOT
BRANCH   1  18
ATOM     18  S   UNL     1      -5.880   2.445   2.381  0.00  0.00    -0.077 S 
BRANCH  18  19
ATOM     19  C   UNL     1      -4.939   1.549   1.120  0.00  0.00    +0.173 C 
BRANCH  19  21
ATOM     20  N   UNL     1      -2.915   1.915  -0.254  0.00  0.00    -0.312 N 
ATOM     21  C   UNL     1      -3.762   2.383   0.684  0.00  0.00    +0.224 C 
ATOM     22  O   UNL     1      -3.577   3.475   1.177  0.00  0.00    -0.275 OA
ATOM     23  H   UNL     1      -3.083   0.924  -0.701  0.00  0.00    +0.149 HD
BRANCH  20  24
ATOM     24  C   UNL     1      -1.771   2.725  -0.677  0.00  0.00    +0.070 C 
ATOM     25  C   UNL     1      -0.601   2.498   0.282  0.00  0.00    +0.028 C 
BRANCH  24  26
ATOM     26  C   UNL     1      -1.355   2.320  -2.093  0.00  0.00    +0.022 C 
BRANCH  26  28
ATOM     27  C   UNL     1      -2.063   2.257  -4.488  0.00  0.00    +0.004 C 
ATOM     28  C   UNL     1      -2.479   2.663  -3.073  0.00  0.00    -0.002 C 
ENDBRANCH  26  28
ENDBRANCH  24  26
ENDBRANCH  20  24
ENDBRANCH  19  21
ENDBRANCH  18  19
ENDBRANCH   1  18
TORSDOF 6
