REMARK  Name = ZINC21529151
REMARK  10 active torsions:
REMARK  status: ('A' for Active; 'I' for Inactive)
REMARK    1  A    between atoms: C_1  and  C_2
REMARK    2  A    between atoms: C_2  and  C_3
REMARK    3  A    between atoms: C_7  and  N_9
REMARK    4  A    between atoms: N_13  and  S_28
REMARK    5  A    between atoms: C_15  and  C_16
REMARK    6  A    between atoms: C_15  and  C_17
REMARK    7  A    between atoms: N_19  and  C_20
REMARK    8  A    between atoms: C_20  and  C_21
REMARK    9  A    between atoms: C_24  and  C_27
REMARK   10  A    between atoms: S_28  and  C_31
REMARK                            x       y       z     vdW  Elec       q    Type
REMARK                         _______ _______ _______ _____ _____    ______ ____
ROOT
ATOM      1  N   UNL     1       1.652  -2.443   2.982  0.00  0.00    -0.255 N 
ATOM      2  C   UNL     1       2.337  -1.924   1.962  0.00  0.00    +0.236 C 
ATOM      3  O   UNL     1       3.415  -2.406   1.685  0.00  0.00    -0.274 OA
ATOM      4  C   UNL     1       1.835  -0.773   1.141  0.00  0.00    +0.205 C 
ATOM      5  N   UNL     1       0.413  -0.550   1.444  0.00  0.00    -0.170 NA
ATOM      6  C   UNL     1       0.006  -0.622   2.858  0.00  0.00    +0.145 C 
ATOM      7  C   UNL     1       0.311  -2.030   3.372  0.00  0.00    +0.129 C 
ATOM      8  C   UNL     1      -0.708  -3.011   2.788  0.00  0.00    +0.043 C 
ENDROOT
BRANCH   1  13
ATOM      9  C   UNL     1       2.403  -5.760   4.380  0.00  0.00    -0.046 A 
ATOM     10  C   UNL     1       3.473  -5.460   5.204  0.00  0.00    +0.004 A 
ATOM     11  C   UNL     1       3.939  -4.162   5.291  0.00  0.00    +0.002 A 
ATOM     12  C   UNL     1       3.341  -3.160   4.552  0.00  0.00    +0.023 A 
ATOM     13  C   UNL     1       2.263  -3.457   3.728  0.00  0.00    +0.038 A 
ATOM     14  C   UNL     1       1.797  -4.762   3.642  0.00  0.00    +0.027 A 
BRANCH   9  16
ATOM     15  C   UNL     1       2.637  -7.910   3.166  0.00  0.00    +0.009 C 
ATOM     16  C   UNL     1       1.898  -7.177   4.287  0.00  0.00    +0.032 C 
ENDBRANCH   9  16
ENDBRANCH   1  13
BRANCH   7  17
ATOM     17  C   UNL     1       0.205  -2.043   4.875  0.00  0.00    +0.238 C 
ATOM     18  O   UNL     1      -0.796  -2.470   5.409  0.00  0.00    -0.273 OA
ATOM     19  N   UNL     1       1.224  -1.580   5.626  0.00  0.00    -0.309 N 
ATOM     20  H   UNL     1       2.166  -1.274   5.147  0.00  0.00    +0.149 HD
BRANCH  19  21
ATOM     21  C   UNL     1       1.078  -1.485   7.080  0.00  0.00    +0.139 C 
BRANCH  21  22
ATOM     22  C   UNL     1       2.299  -0.823   7.666  0.00  0.00    -0.030 A 
ATOM     23  C   UNL     1       3.414  -1.580   7.973  0.00  0.00    +0.005 A 
ATOM     24  C   UNL     1       4.536  -0.973   8.506  0.00  0.00    +0.003 A 
ATOM     25  C   UNL     1       4.538   0.390   8.741  0.00  0.00    -0.050 A 
ATOM     26  C   UNL     1       3.421   1.145   8.438  0.00  0.00    +0.003 A 
ATOM     27  C   UNL     1       2.301   0.539   7.901  0.00  0.00    +0.005 A 
ATOM     28  C   UNL     1       5.759   1.051   9.326  0.00  0.00    +0.044 C 
ENDBRANCH  21  22
ENDBRANCH  19  21
ENDBRANCH   7  17
BRANCH   5  29
ATOM     29  S   UNL     1      -0.685  -0.237   0.245  0.00  0.00    +0.029 S 
ATOM     30  O   UNL     1      -1.928  -0.688   0.766  0.00  0.00    -0.158 OA
ATOM     31  O   UNL     1      -0.129  -0.831  -0.920  0.00  0.00    -0.158 OA
ATOM     32  C   UNL     1      -0.695   1.569   0.082  0.00  0.00    +0.215 C 
ENDBRANCH   5  29
TORSDOF 6
