REMARK  Name = ZINC08158032
REMARK  6 active torsions:
REMARK  status: ('A' for Active; 'I' for Inactive)
REMARK    1  A    between atoms: C_1  and  C_2
REMARK    2  A    between atoms: C_2  and  C_3
REMARK    3  A    between atoms: C_3  and  C_22
REMARK    4  A    between atoms: N_6  and  N_10
REMARK    5  A    between atoms: C_11  and  C_13
REMARK    6  A    between atoms: C_17  and  N_19
REMARK                            x       y       z     vdW  Elec       q    Type
REMARK                         _______ _______ _______ _____ _____    ______ ____
ROOT
ATOM      1  C   UNL     1       6.853   0.173  -0.671  0.00  0.00    +0.139 C 
ATOM      2  C   UNL     1       5.651   0.980  -1.121  0.00  0.00    +0.268 C 
ATOM      3  O   UNL     1       5.446   1.433  -2.227  0.00  0.00    -0.271 OA
ATOM      4  N   UNL     1       4.859   1.089  -0.036  0.00  0.00    -0.137 N 
ATOM      5  C   UNL     1       5.390   0.474   1.026  0.00  0.00    +0.327 C 
ATOM      6  O   UNL     1       4.862   0.440   2.121  0.00  0.00    -0.251 OA
ATOM      7  N   UNL     1       6.572  -0.105   0.748  0.00  0.00    -0.280 N 
ATOM      8  H   UNL     1       7.131  -0.605   1.362  0.00  0.00    +0.152 HD
ENDROOT
BRANCH   1   9
ATOM      9  C   UNL     1       8.117   0.980  -0.814  0.00  0.00    -0.015 A 
ATOM     10  C   UNL     1       8.847   0.921  -1.986  0.00  0.00    +0.006 A 
ATOM     11  C   UNL     1      10.005   1.665  -2.118  0.00  0.00    +0.000 A 
ATOM     12  C   UNL     1      10.437   2.461  -1.074  0.00  0.00    +0.000 A 
ATOM     13  C   UNL     1       9.710   2.516   0.100  0.00  0.00    +0.000 A 
ATOM     14  C   UNL     1       8.550   1.776   0.231  0.00  0.00    +0.006 A 
ENDBRANCH   1   9
BRANCH   4  15
ATOM     15  N   UNL     1       3.634   1.769  -0.022  0.00  0.00    -0.220 N 
ATOM     16  C   UNL     1       2.478   1.075  -0.015  0.00  0.00    +0.261 C 
ATOM     17  O   UNL     1       2.500  -0.141  -0.021  0.00  0.00    -0.269 OA
ATOM     18  H   UNL     1       3.617   2.739  -0.017  0.00  0.00    +0.174 HD
BRANCH  16  19
ATOM     19  C   UNL     1       1.185   1.792   0.000  0.00  0.00    +0.040 A 
ATOM     20  C   UNL     1       1.158   3.187   0.008  0.00  0.00    +0.013 A 
ATOM     21  C   UNL     1      -0.052   3.850   0.022  0.00  0.00    +0.003 A 
ATOM     22  C   UNL     1      -1.236   3.134   0.030  0.00  0.00    +0.033 A 
ATOM     23  C   UNL     1      -1.216   1.751   0.017  0.00  0.00    +0.127 A 
ATOM     24  C   UNL     1      -0.013   1.076   0.008  0.00  0.00    +0.045 A 
BRANCH  23  25
ATOM     25  N   UNL     1      -2.488   0.994   0.019  0.00  0.00    +0.056 N 
ATOM     26  O   UNL     1      -2.471  -0.224   0.013  0.00  0.00    -0.126 OA
ATOM     27  O   UNL     1      -3.550   1.588   0.028  0.00  0.00    -0.126 OA
ENDBRANCH  23  25
ENDBRANCH  16  19
ENDBRANCH   4  15
BRANCH   1  29
ATOM     28  C   UNL     1       5.682  -1.954  -1.264  0.00  0.00    +0.007 C 
ATOM     29  C   UNL     1       6.955  -1.130  -1.468  0.00  0.00    +0.037 C 
ENDBRANCH   1  29
TORSDOF 5
