REMARK  Name = ZINC43750497
REMARK  7 active torsions:
REMARK  status: ('A' for Active; 'I' for Inactive)
REMARK    1  A    between atoms: C_4  and  C_7
REMARK    2  A    between atoms: C_7  and  N_8
REMARK    3  A    between atoms: C_15  and  C_27
REMARK    4  A    between atoms: C_17  and  C_23
REMARK    5  A    between atoms: C_17  and  C_25
REMARK    6  A    between atoms: C_18  and  N_22
REMARK    7  A    between atoms: C_19  and  C_20
REMARK                            x       y       z     vdW  Elec       q    Type
REMARK                         _______ _______ _______ _____ _____    ______ ____
ROOT
ATOM      1  N   UNL     1       4.081  -0.411   1.398  0.00  0.00    -0.294 NA
ATOM      2  C   UNL     1       3.093  -1.327   1.996  0.00  0.00    +0.112 C 
ATOM      3  C   UNL     1       3.530  -1.606   3.413  0.00  0.00    -0.006 C 
ATOM      4  C   UNL     1       4.815  -1.648   3.711  0.00  0.00    -0.026 C 
ATOM      5  C   UNL     1       5.898  -1.481   2.684  0.00  0.00    +0.044 C 
ATOM      6  C   UNL     1       5.393  -1.060   1.323  0.00  0.00    +0.094 C 
ATOM      7  C   UNL     1       6.935  -0.504   3.241  0.00  0.00    +0.068 C 
ATOM      8  C   UNL     1       7.567  -1.114   4.493  0.00  0.00    +0.188 C 
ATOM      9  C   UNL     1       6.530  -1.597   5.462  0.00  0.00    +0.054 C 
ATOM     10  C   UNL     1       5.245  -1.863   5.115  0.00  0.00    +0.074 C 
ENDROOT
BRANCH   7  11
ATOM     11  C   UNL     1       8.001  -0.254   2.205  0.00  0.00    -0.038 A 
ATOM     12  C   UNL     1       8.448   1.033   1.971  0.00  0.00    +0.007 A 
ATOM     13  C   UNL     1       9.425   1.264   1.022  0.00  0.00    +0.041 A 
ATOM     14  C   UNL     1       9.957   0.207   0.304  0.00  0.00    +0.158 A 
ATOM     15  C   UNL     1       9.509  -1.084   0.539  0.00  0.00    +0.159 A 
ATOM     16  C   UNL     1       8.534  -1.313   1.494  0.00  0.00    +0.045 A 
ATOM     17  F   UNL     1      10.026  -2.117  -0.161  0.00  0.00    -0.202 F 
ATOM     18  F   UNL     1      10.912   0.433  -0.625  0.00  0.00    -0.202 F 
ENDBRANCH   7  11
BRANCH   9  19
ATOM     19  N   UNL     1       6.900  -1.778   6.765  0.00  0.00    -0.358 N 
ATOM     20  H   UNL     1       7.812  -1.596   7.041  0.00  0.00    +0.142 HD
ATOM     21  H   UNL     1       6.250  -2.090   7.414  0.00  0.00    +0.142 HD
ENDBRANCH   9  19
BRANCH  10  22
ATOM     22  C   UNL     1       4.316  -2.345   6.093  0.00  0.00    +0.101 C 
ATOM     23  N   UNL     1       3.579  -2.727   6.868  0.00  0.00    -0.191 NA
ENDBRANCH  10  22
BRANCH   8  24
ATOM     24  C   UNL     1       8.403  -0.098   5.151  0.00  0.00    +0.091 C 
ATOM     25  N   UNL     1       9.049   0.687   5.660  0.00  0.00    -0.194 NA
ENDBRANCH   8  24
BRANCH   8  26
ATOM     26  C   UNL     1       8.417  -2.248   4.096  0.00  0.00    +0.091 C 
ATOM     27  N   UNL     1       9.074  -3.124   3.790  0.00  0.00    -0.194 NA
ENDBRANCH   8  26
BRANCH   1  28
ATOM     28  C   UNL     1       3.642   0.044   0.073  0.00  0.00    +0.120 C 
BRANCH  28  32
ATOM     29  C   UNL     1       0.181   2.513   0.487  0.00  0.00    +0.000 A 
ATOM     30  C   UNL     1       1.442   3.079   0.520  0.00  0.00    +0.000 A 
ATOM     31  C   UNL     1       2.562   2.280   0.386  0.00  0.00    +0.005 A 
ATOM     32  C   UNL     1       2.421   0.915   0.219  0.00  0.00    -0.033 A 
ATOM     33  C   UNL     1       1.160   0.349   0.187  0.00  0.00    +0.005 A 
ATOM     34  C   UNL     1       0.040   1.148   0.319  0.00  0.00    +0.000 A 
ENDBRANCH  28  32
ENDBRANCH   1  28
TORSDOF 7
