REMARK  Name = ZINC08382606
REMARK  7 active torsions:
REMARK  status: ('A' for Active; 'I' for Inactive)
REMARK    1  A    between atoms: C_1  and  O_2
REMARK    2  A    between atoms: O_2  and  C_3
REMARK    3  A    between atoms: C_5  and  C_10
REMARK    4  A    between atoms: C_8  and  O_9
REMARK    5  A    between atoms: C_13  and  C_24
REMARK    6  A    between atoms: C_19  and  N_23
REMARK    7  A    between atoms: C_20  and  C_21
REMARK                            x       y       z     vdW  Elec       q    Type
REMARK                         _______ _______ _______ _____ _____    ______ ____
ROOT
ATOM      1  C   UNL     1      -4.687  -0.038  -0.045  0.00  0.00    +0.102 C 
ATOM      2  C   UNL     1      -5.557  -0.118  -1.272  0.00  0.00    +0.054 A 
ATOM      3  C   UNL     1      -5.360   0.451  -2.535  0.00  0.00    +0.102 A 
ATOM      4  N   UNL     1      -6.383   0.112  -3.296  0.00  0.00    -0.171 NA
ATOM      5  N   UNL     1      -7.257  -0.680  -2.536  0.00  0.00    -0.246 N 
ATOM      6  H   UNL     1      -8.091  -1.068  -2.846  0.00  0.00    +0.192 HD
ATOM      7  C   UNL     1      -6.733  -0.809  -1.299  0.00  0.00    +0.223 A 
ATOM      8  O   UNL     1      -7.215  -1.478  -0.222  0.00  0.00    -0.423 OA
ATOM      9  C   UNL     1      -6.645  -1.226   0.975  0.00  0.00    +0.200 C 
ATOM     10  C   UNL     1      -5.477  -0.562   1.128  0.00  0.00    +0.098 C 
ENDROOT
BRANCH   3  11
ATOM     11  C   UNL     1      -4.204   1.287  -2.945  0.00  0.00    +0.021 A 
ATOM     12  C   UNL     1      -3.778   2.336  -2.134  0.00  0.00    +0.011 A 
ATOM     13  C   UNL     1      -2.703   3.111  -2.520  0.00  0.00    +0.001 A 
ATOM     14  C   UNL     1      -2.048   2.846  -3.710  0.00  0.00    +0.001 A 
ATOM     15  C   UNL     1      -2.466   1.806  -4.520  0.00  0.00    +0.020 A 
ATOM     16  C   UNL     1      -3.538   1.021  -4.140  0.00  0.00    +0.050 A 
ATOM     17 CL   UNL     1      -4.058  -0.289  -5.154  0.00  0.00    -0.083 Cl
ENDBRANCH   3  11
BRANCH   1  20
ATOM     18  C   UNL     1      -1.063  -1.077  -0.294  0.00  0.00    +0.162 A 
ATOM     19  C   UNL     1      -2.200  -0.306  -0.113  0.00  0.00    +0.054 A 
ATOM     20  C   UNL     1      -3.451  -0.879  -0.242  0.00  0.00    -0.031 A 
ATOM     21  C   UNL     1      -3.572  -2.221  -0.550  0.00  0.00    +0.008 A 
ATOM     22  C   UNL     1      -2.442  -2.997  -0.731  0.00  0.00    +0.049 A 
ATOM     23  C   UNL     1      -1.185  -2.427  -0.610  0.00  0.00    +0.158 A 
BRANCH  18  25
ATOM     24  C   UNL     1       0.217   0.875   0.157  0.00  0.00    +0.277 C 
ATOM     25  O   UNL     1       0.169  -0.515  -0.169  0.00  0.00    -0.491 OA
ENDBRANCH  18  25
BRANCH  23  26
ATOM     26  O   UNL     1      -0.072  -3.187  -0.794  0.00  0.00    -0.503 OA
ATOM     27  H   UNL     1       0.254  -3.609   0.013  0.00  0.00    +0.292 HD
ENDBRANCH  23  26
ENDBRANCH   1  20
BRANCH   9  28
ATOM     28  N   UNL     1      -7.290  -1.669   2.103  0.00  0.00    -0.328 N 
ATOM     29  H   UNL     1      -8.130  -2.148   2.025  0.00  0.00    +0.145 HD
ATOM     30  H   UNL     1      -6.905  -1.504   2.978  0.00  0.00    +0.145 HD
ENDBRANCH   9  28
BRANCH  10  31
ATOM     31  C   UNL     1      -4.971  -0.350   2.451  0.00  0.00    +0.101 C 
ATOM     32  N   UNL     1      -4.570  -0.182   3.500  0.00  0.00    -0.191 NA
ENDBRANCH  10  31
TORSDOF 6
