REMARK  Name = ZINC40732119
REMARK  5 active torsions:
REMARK  status: ('A' for Active; 'I' for Inactive)
REMARK    1  A    between atoms: C_1  and  C_2
REMARK    2  A    between atoms: C_3  and  C_23
REMARK    3  A    between atoms: C_9  and  N_22
REMARK    4  A    between atoms: C_10  and  N_14
REMARK    5  A    between atoms: C_19  and  C_21
REMARK                            x       y       z     vdW  Elec       q    Type
REMARK                         _______ _______ _______ _____ _____    ______ ____
ROOT
ATOM      1  C   UNL     1       0.128   1.407  -0.059  0.00  0.00    +0.066 C 
ATOM      2  C   UNL     1       0.249  -0.095  -0.035  0.00  0.00    +0.050 A 
ATOM      3  C   UNL     1       0.391  -0.812  -1.177  0.00  0.00    +0.011 A 
ATOM      4  S   UNL     1       0.479  -2.470  -0.520  0.00  0.00    -0.057 S 
ATOM      5  C   UNL     1       0.330  -2.083   1.111  0.00  0.00    +0.164 A 
ATOM      6  N   UNL     1       0.228  -0.771   1.099  0.00  0.00    -0.230 NA
ATOM      7  N   UNL     1       0.321  -2.939   2.203  0.00  0.00    -0.277 N 
ATOM      8  C   UNL     1       0.185  -2.425   3.488  0.00  0.00    +0.150 A 
ATOM      9  C   UNL     1       0.181  -3.276   4.595  0.00  0.00    +0.106 A 
ATOM     10  C   UNL     1       0.043  -2.708   5.862  0.00  0.00    +0.147 A 
ATOM     11  N   UNL     1      -0.078  -1.386   5.967  0.00  0.00    -0.219 NA
ATOM     12  C   UNL     1      -0.069  -0.619   4.896  0.00  0.00    +0.225 A 
ATOM     13  N   UNL     1       0.064  -1.114   3.683  0.00  0.00    -0.219 NA
ATOM     14  C   UNL     1       0.455  -0.339  -2.606  0.00  0.00    +0.053 C 
ATOM     15  H   UNL     1       0.409  -3.896   2.069  0.00  0.00    +0.156 HD
ENDROOT
BRANCH  10  16
ATOM     16  N   UNL     1       0.032  -3.509   6.998  0.00  0.00    -0.311 N 
ATOM     17  C   UNL     1       1.283  -3.835   7.697  0.00  0.00    +0.107 C 
ATOM     18  C   UNL     1       1.133  -3.459   9.174  0.00  0.00    +0.019 C 
ATOM     19  C   UNL     1      -0.106  -4.149   9.749  0.00  0.00    +0.003 C 
ATOM     20  C   UNL     1      -1.352  -3.670   9.001  0.00  0.00    +0.022 C 
ATOM     21  C   UNL     1      -1.231  -4.043   7.525  0.00  0.00    +0.072 C 
ATOM     22  C   UNL     1      -2.405  -3.442   6.749  0.00  0.00    +0.028 C 
ENDBRANCH  10  16
BRANCH   9  23
ATOM     23  N   UNL     1       0.311  -4.665   4.437  0.00  0.00    -0.353 N 
ATOM     24  H   UNL     1       0.315  -5.054   3.548  0.00  0.00    +0.143 HD
ATOM     25  H   UNL     1       0.398  -5.235   5.217  0.00  0.00    +0.143 HD
ENDBRANCH   9  23
TORSDOF 2
