REMARK  Name = ZINC05480169
REMARK  6 active torsions:
REMARK  status: ('A' for Active; 'I' for Inactive)
REMARK    1  A    between atoms: C_1  and  C_2
REMARK    2  A    between atoms: C_2  and  N_3
REMARK    3  A    between atoms: N_3  and  N_4
REMARK    4  A    between atoms: C_5  and  C_7
REMARK    5  A    between atoms: C_13  and  C_14
REMARK    6  A    between atoms: N_16  and  C_17
REMARK                            x       y       z     vdW  Elec       q    Type
REMARK                         _______ _______ _______ _____ _____    ______ ____
ROOT
ATOM      1  C   UNL     1      -0.021   1.854   0.157  0.00  0.00    +0.062 C 
ATOM      2  C   UNL     1      -0.743   1.814  -1.165  0.00  0.00    +0.024 C 
ATOM      3  C   UNL     1      -2.086   1.696  -1.198  0.00  0.00    +0.087 C 
ENDROOT
BRANCH   3   4
ATOM      4  C   UNL     1      -2.803   1.445  -0.004  0.00  0.00    +0.239 C 
ATOM      5  O   UNL     1      -2.202   1.218   1.030  0.00  0.00    -0.271 OA
ATOM      6  N   UNL     1      -4.150   1.456  -0.013  0.00  0.00    -0.308 N 
ATOM      7  H   UNL     1      -4.629   1.637  -0.837  0.00  0.00    +0.149 HD
BRANCH   6   8
ATOM      8  C   UNL     1      -4.893   1.196   1.223  0.00  0.00    +0.079 C 
ATOM      9  C   UNL     1      -5.053  -0.313   1.414  0.00  0.00    +0.010 C 
ATOM     10  C   UNL     1      -5.828  -0.585   2.705  0.00  0.00    +0.009 C 
ATOM     11  C   UNL     1      -7.209   0.068   2.617  0.00  0.00    -0.010 C 
ATOM     12  C   UNL     1      -7.975  -0.518   1.429  0.00  0.00    +0.007 C 
ATOM     13  C   UNL     1      -7.200  -0.247   0.138  0.00  0.00    -0.010 C 
ATOM     14  C   UNL     1      -5.819  -0.899   0.226  0.00  0.00    +0.009 C 
ATOM     15  C   UNL     1      -7.040   1.263  -0.053  0.00  0.00    +0.009 C 
ATOM     16  C   UNL     1      -6.274   1.849   1.135  0.00  0.00    +0.010 C 
ATOM     17  C   UNL     1      -7.049   1.577   2.426  0.00  0.00    +0.009 C 
ENDBRANCH   6   8
ENDBRANCH   3   4
BRANCH   2  18
ATOM     18  N   UNL     1      -0.036   1.899  -2.332  0.00  0.00    -0.268 N 
ATOM     19  H   UNL     1       0.930   1.984  -2.309  0.00  0.00    +0.170 HD
BRANCH  18  20
ATOM     20  N   UNL     1      -0.706   1.862  -3.562  0.00  0.00    -0.233 N 
ATOM     21  C   UNL     1      -0.009   1.946  -4.712  0.00  0.00    +0.260 C 
ATOM     22  O   UNL     1       1.201   2.053  -4.683  0.00  0.00    -0.269 OA
ATOM     23  H   UNL     1      -1.672   1.777  -3.585  0.00  0.00    +0.173 HD
BRANCH  21  24
ATOM     24  C   UNL     1      -0.718   1.907  -6.012  0.00  0.00    +0.041 A 
ATOM     25  C   UNL     1      -2.110   1.790  -6.068  0.00  0.00    +0.033 A 
ATOM     26  C   UNL     1      -2.731   1.758  -7.302  0.00  0.00    +0.111 A 
ATOM     27  N   UNL     1      -2.029   1.836  -8.415  0.00  0.00    -0.263 NA
ATOM     28  C   UNL     1      -0.715   1.947  -8.407  0.00  0.00    +0.111 A 
ATOM     29  C   UNL     1      -0.014   1.992  -7.217  0.00  0.00    +0.033 A 
ENDBRANCH  21  24
ENDBRANCH  18  20
ENDBRANCH   2  18
TORSDOF 5
