REMARK  Name = ZINC14677770
REMARK  6 active torsions:
REMARK  status: ('A' for Active; 'I' for Inactive)
REMARK    1  A    between atoms: C_1  and  C_2
REMARK    2  A    between atoms: N_11  and  C_15
REMARK    3  A    between atoms: C_15  and  C_16
REMARK    4  A    between atoms: C_16  and  O_18
REMARK    5  A    between atoms: O_18  and  C_19
REMARK    6  A    between atoms: C_19  and  C_20
REMARK                            x       y       z     vdW  Elec       q    Type
REMARK                         _______ _______ _______ _____ _____    ______ ____
ROOT
ATOM      1  C   UNL     1      -0.002   1.056   2.507  0.00  0.00    +0.010 C 
ATOM      2  C   UNL     1      -0.730   1.580   1.267  0.00  0.00    +0.018 C 
ATOM      3  C   UNL     1      -0.013   1.086   0.008  0.00  0.00    +0.006 C 
ATOM      4  C   UNL     1      -0.753   1.593  -1.231  0.00  0.00    +0.000 C 
ATOM      5  C   UNL     1      -2.186   1.056  -1.227  0.00  0.00    +0.003 C 
ATOM      6  C   UNL     1      -2.911   1.550   0.027  0.00  0.00    +0.035 C 
ATOM      7  C   UNL     1      -2.167   1.069   1.268  0.00  0.00    +0.115 C 
ATOM      8  C   UNL     1      -2.885   1.517   2.521  0.00  0.00    +0.247 C 
ATOM      9  O   UNL     1      -3.102   2.655   2.875  0.00  0.00    -0.273 OA
ATOM     10  N   UNL     1      -3.233   0.381   3.161  0.00  0.00    -0.213 N 
ATOM     11  C   UNL     1      -2.836  -0.706   2.489  0.00  0.00    +0.310 C 
ATOM     12  O   UNL     1      -3.035  -1.844   2.866  0.00  0.00    -0.252 OA
ATOM     13  N   UNL     1      -2.191  -0.397   1.347  0.00  0.00    -0.285 N 
ATOM     14  H   UNL     1      -1.817  -1.020   0.705  0.00  0.00    +0.151 HD
ENDROOT
BRANCH  10  15
ATOM     15  C   UNL     1      -3.956   0.343   4.435  0.00  0.00    +0.238 C 
BRANCH  15  16
ATOM     16  C   UNL     1      -2.969   0.347   5.573  0.00  0.00    +0.326 C 
ATOM     17  O   UNL     1      -1.783   0.378   5.344  0.00  0.00    -0.249 OA
BRANCH  16  18
ATOM     18  O   UNL     1      -3.407   0.315   6.841  0.00  0.00    -0.458 OA
BRANCH  18  19
ATOM     19  C   UNL     1      -2.399   0.321   7.887  0.00  0.00    +0.279 C 
BRANCH  19  20
ATOM     20  C   UNL     1      -3.073   0.283   9.234  0.00  0.00    +0.049 C 
ATOM     21  C   UNL     1      -2.914  -0.757  10.018  0.00  0.00    +0.028 C 
ATOM     22 CL   UNL     1      -4.061   1.614   9.749  0.00  0.00    -0.085 Cl
ENDBRANCH  19  20
ENDBRANCH  18  19
ENDBRANCH  16  18
ENDBRANCH  15  16
ENDBRANCH  10  15
TORSDOF 5
