REMARK  Name = ZINC05084779
REMARK  15 active torsions:
REMARK  status: ('A' for Active; 'I' for Inactive)
REMARK    1  A    between atoms: C_1  and  C_2
REMARK    2  A    between atoms: C_2  and  C_3
REMARK    3  A    between atoms: C_2  and  C_4
REMARK    4  A    between atoms: C_4  and  C_6
REMARK    5  A    between atoms: C_4  and  N_10
REMARK    6  A    between atoms: C_6  and  O_8
REMARK    7  A    between atoms: O_8  and  C_9
REMARK    8  A    between atoms: C_11  and  C_13
REMARK    9  A    between atoms: C_13  and  C_15
REMARK   10  A    between atoms: C_13  and  N_66
REMARK   11  A    between atoms: C_15  and  S_16
REMARK   12  A    between atoms: S_16  and  C_17
REMARK   13  A    between atoms: C_17  and  C_18
REMARK   14  A    between atoms: C_17  and  C_24
REMARK   15  A    between atoms: C_17  and  C_30
REMARK                            x       y       z     vdW  Elec       q    Type
REMARK                         _______ _______ _______ _____ _____    ______ ____
ROOT
ATOM      1  S   UNL     1       1.518   1.877  -2.692  0.00  0.00    -0.141 S 
ENDROOT
BRANCH   1   2
ATOM      2  C   UNL     1      -0.201   1.321  -2.522  0.00  0.00    +0.063 C 
BRANCH   2   3
ATOM      3  C   UNL     1      -0.835   1.991  -1.301  0.00  0.00    +0.023 C 
BRANCH   3   5
ATOM      4  N   UNL     1      -3.228   2.080  -1.923  0.00  0.00    -0.304 N 
ATOM      5  C   UNL     1      -2.263   1.528  -1.161  0.00  0.00    +0.200 C 
ATOM      6  O   UNL     1      -2.543   0.660  -0.361  0.00  0.00    -0.278 OA
ATOM      7  H   UNL     1      -3.004   2.774  -2.562  0.00  0.00    +0.149 HD
BRANCH   4   8
ATOM      8  C   UNL     1      -4.615   1.631  -1.786  0.00  0.00    +0.184 C 
BRANCH   8  10
ATOM      9  C   UNL     1      -4.533   2.124   0.662  0.00  0.00    +0.009 C 
ATOM     10  C   UNL     1      -5.287   2.393  -0.641  0.00  0.00    +0.014 C 
ATOM     11  C   UNL     1      -5.264   3.892  -0.944  0.00  0.00    +0.009 C 
ENDBRANCH   8  10
BRANCH   8  12
ATOM     12  C   UNL     1      -5.358   1.895  -3.070  0.00  0.00    +0.328 C 
ATOM     13  O   UNL     1      -4.787   2.406  -4.004  0.00  0.00    -0.249 OA
BRANCH  12  14
ATOM     14  O   UNL     1      -6.654   1.563  -3.176  0.00  0.00    -0.467 OA
ATOM     15  C   UNL     1      -7.306   1.847  -4.442  0.00  0.00    +0.280 C 
ENDBRANCH  12  14
ENDBRANCH   8  12
ENDBRANCH   4   8
ENDBRANCH   3   5
BRANCH   3  18
ATOM     16  H   UNL     1      -0.085   0.626   0.045  0.00  0.00    -0.089 HD
ATOM     17  H   UNL     1       0.863   1.980  -0.137  0.00  0.00    -0.089 HD
ATOM     18  N   UNL     1      -0.094   1.637  -0.078  0.00  0.00    +0.386 N 
ATOM     19  H   UNL     1      -0.555   2.068   0.732  0.00  0.00    -0.089 HD
ENDBRANCH   3  18
ENDBRANCH   2   3
ENDBRANCH   1   2
BRANCH   1  20
ATOM     20  C   UNL     1       2.164   0.892  -4.071  0.00  0.00    +0.091 C 
BRANCH  20  21
ATOM     21  C   UNL     1       1.467   1.294  -5.345  0.00  0.00    -0.023 A 
ATOM     22  C   UNL     1       1.832   0.714  -6.546  0.00  0.00    +0.005 A 
ATOM     23  C   UNL     1       1.189   1.079  -7.714  0.00  0.00    +0.000 A 
ATOM     24  C   UNL     1       0.188   2.031  -7.683  0.00  0.00    +0.000 A 
ATOM     25  C   UNL     1      -0.173   2.616  -6.484  0.00  0.00    +0.000 A 
ATOM     26  C   UNL     1       0.466   2.247  -5.315  0.00  0.00    +0.005 A 
ENDBRANCH  20  21
BRANCH  20  27
ATOM     27  C   UNL     1       3.645   1.134  -4.211  0.00  0.00    -0.023 A 
ATOM     28  C   UNL     1       4.156   2.407  -4.042  0.00  0.00    +0.005 A 
ATOM     29  C   UNL     1       5.515   2.628  -4.165  0.00  0.00    +0.000 A 
ATOM     30  C   UNL     1       6.361   1.578  -4.468  0.00  0.00    +0.000 A 
ATOM     31  C   UNL     1       5.849   0.306  -4.643  0.00  0.00    +0.000 A 
ATOM     32  C   UNL     1       4.491   0.084  -4.514  0.00  0.00    +0.005 A 
ENDBRANCH  20  27
BRANCH  20  33
ATOM     33  C   UNL     1       1.917  -0.570  -3.803  0.00  0.00    -0.023 A 
ATOM     34  C   UNL     1       1.141  -1.311  -4.675  0.00  0.00    +0.005 A 
ATOM     35  C   UNL     1       0.919  -2.654  -4.431  0.00  0.00    +0.000 A 
ATOM     36  C   UNL     1       1.464  -3.252  -3.311  0.00  0.00    +0.000 A 
ATOM     37  C   UNL     1       2.234  -2.510  -2.436  0.00  0.00    +0.000 A 
ATOM     38  C   UNL     1       2.461  -1.169  -2.682  0.00  0.00    +0.005 A 
ENDBRANCH  20  33
ENDBRANCH   1  20
TORSDOF 12
