REMARK  Name = ZINC62497166
REMARK  7 active torsions:
REMARK  status: ('A' for Active; 'I' for Inactive)
REMARK    1  A    between atoms: C_1  and  C_2
REMARK    2  A    between atoms: C_2  and  C_3
REMARK    3  A    between atoms: C_2  and  C_4
REMARK    4  A    between atoms: C_4  and  N_5
REMARK    5  A    between atoms: C_8  and  N_25
REMARK    6  A    between atoms: C_13  and  C_17
REMARK    7  A    between atoms: C_17  and  C_18
REMARK                            x       y       z     vdW  Elec       q    Type
REMARK                         _______ _______ _______ _____ _____    ______ ____
ROOT
ATOM      1  N   UNL     1       2.125  -0.091  -1.209  0.00  0.00    -0.265 N 
ATOM      2  C   UNL     1       2.525   1.141  -1.745  0.00  0.00    +0.080 A 
ATOM      3  C   UNL     1       1.654   1.885  -2.523  0.00  0.00    +0.050 A 
ATOM      4  C   UNL     1       2.070   3.098  -3.057  0.00  0.00    +0.027 A 
ATOM      5  C   UNL     1       3.357   3.560  -2.812  0.00  0.00    +0.026 A 
ATOM      6  C   UNL     1       4.224   2.819  -2.032  0.00  0.00    +0.049 A 
ATOM      7  C   UNL     1       3.812   1.613  -1.492  0.00  0.00    +0.143 A 
ATOM      8  O   UNL     1       4.649   0.892  -0.697  0.00  0.00    -0.477 OA
ATOM      9  C   UNL     1       4.510  -0.530  -0.728  0.00  0.00    +0.263 C 
ATOM     10  C   UNL     1       3.049  -0.896  -0.645  0.00  0.00    +0.261 C 
ATOM     11  O   UNL     1       2.707  -1.911  -0.076  0.00  0.00    -0.271 OA
ENDROOT
BRANCH   4  12
ATOM     12  N   UNL     1       1.193   3.853  -3.843  0.00  0.00    -0.358 N 
ATOM     13  H   UNL     1       0.295   3.530  -4.014  0.00  0.00    +0.142 HD
ATOM     14  H   UNL     1       1.484   4.700  -4.217  0.00  0.00    +0.142 HD
ENDBRANCH   4  12
BRANCH   1  15
ATOM     15  C   UNL     1       0.718  -0.497  -1.257  0.00  0.00    +0.117 C 
BRANCH  15  17
ATOM     16  C   UNL     1      -0.019   1.526   0.010  0.00  0.00    +0.009 C 
ATOM     17  C   UNL     1       0.002  -0.004   0.002  0.00  0.00    +0.001 C 
ATOM     18  C   UNL     1      -1.433  -0.534   0.013  0.00  0.00    +0.009 C 
ENDBRANCH  15  17
ENDBRANCH   1  15
BRANCH   9  19
ATOM     19  C   UNL     1       5.101  -1.070  -2.032  0.00  0.00    +0.089 C 
BRANCH  19  20
ATOM     20  C   UNL     1       6.586  -0.814  -2.054  0.00  0.00    -0.041 A 
ATOM     21  C   UNL     1       7.076   0.365  -2.585  0.00  0.00    +0.004 A 
ATOM     22  C   UNL     1       8.438   0.601  -2.606  0.00  0.00    +0.003 A 
ATOM     23  C   UNL     1       9.312  -0.341  -2.096  0.00  0.00    +0.038 A 
ATOM     24  C   UNL     1       8.822  -1.522  -1.565  0.00  0.00    +0.124 A 
ATOM     25  C   UNL     1       7.457  -1.755  -1.538  0.00  0.00    +0.042 A 
ATOM     26  F   UNL     1       9.675  -2.444  -1.067  0.00  0.00    -0.205 F 
ENDBRANCH  19  20
ENDBRANCH   9  19
TORSDOF 5
