REMARK  Name = ZINC08749683
REMARK  5 active torsions:
REMARK  status: ('A' for Active; 'I' for Inactive)
REMARK    1  A    between atoms: C_10  and  C_13
REMARK    2  A    between atoms: C_13  and  C_14
REMARK    3  A    between atoms: N_16  and  C_17
REMARK    4  A    between atoms: C_17  and  C_18
REMARK    5  A    between atoms: C_18  and  N_57
REMARK                            x       y       z     vdW  Elec       q    Type
REMARK                         _______ _______ _______ _____ _____    ______ ____
ROOT
ATOM      1  C   UNL     1      -1.478   1.451  -1.393  0.00  0.00    +0.215 C 
ATOM      2  O   UNL     1      -2.594   1.919  -1.486  0.00  0.00    -0.276 OA
ATOM      3  N   UNL     1      -0.704   1.333  -2.490  0.00  0.00    -0.317 N 
ATOM      4  H   UNL     1       0.188   0.959  -2.416  0.00  0.00    +0.149 HD
ENDROOT
BRANCH   1   5
ATOM      5  C   UNL     1      -0.959   1.002  -0.052  0.00  0.00    +0.119 C 
BRANCH   5  15
ATOM      6  C   UNL     1       1.319   4.341   3.595  0.00  0.00    +0.002 A 
ATOM      7  C   UNL     1       0.720   5.224   2.714  0.00  0.00    +0.001 A 
ATOM      8  C   UNL     1      -0.380   4.823   1.979  0.00  0.00    +0.016 A 
ATOM      9  C   UNL     1      -0.877   3.539   2.123  0.00  0.00    +0.030 A 
ATOM     10  C   UNL     1      -0.265   2.635   2.992  0.00  0.00    +0.047 A 
ATOM     11  C   UNL     1       0.831   3.057   3.738  0.00  0.00    +0.024 A 
ATOM     12  N   UNL     1      -0.737   1.335   3.149  0.00  0.00    -0.284 N 
ATOM     13  C   UNL     1      -1.562   0.686   2.336  0.00  0.00    +0.231 C 
ATOM     14  O   UNL     1      -1.961  -0.410   2.671  0.00  0.00    -0.274 OA
ATOM     15  C   UNL     1      -2.028   1.244   1.016  0.00  0.00    +0.146 C 
ATOM     16  S   UNL     1      -2.303   3.032   1.213  0.00  0.00    -0.110 S 
ATOM     17  H   UNL     1      -0.431   0.853   3.934  0.00  0.00    +0.155 HD
ENDBRANCH   5  15
ENDBRANCH   1   5
BRANCH   3  18
ATOM     18  C   UNL     1      -1.208   1.769  -3.794  0.00  0.00    +0.092 C 
BRANCH  18  19
ATOM     19  C   UNL     1      -0.213   1.370  -4.886  0.00  0.00    -0.049 C 
ATOM     20  C   UNL     1       1.183   1.870  -4.510  0.00  0.00    -0.010 C 
ATOM     21  C   UNL     1       1.160   3.393  -4.373  0.00  0.00    -0.001 C 
ATOM     22  C   UNL     1       0.736   4.019  -5.703  0.00  0.00    -0.000 C 
ATOM     23  C   UNL     1      -0.661   3.519  -6.079  0.00  0.00    -0.001 C 
ATOM     24  C   UNL     1      -0.638   1.996  -6.216  0.00  0.00    -0.010 C 
BRANCH  19  30
ATOM     25  C   UNL     1      -1.530  -0.614  -5.332  0.00  0.00    -0.049 C 
ATOM     26  C   UNL     1      -1.450  -2.131  -5.519  0.00  0.00    +0.141 C 
ATOM     27  O   UNL     1      -0.901  -2.724  -4.338  0.00  0.00    -0.383 OA
ATOM     28  C   UNL     1       0.402  -2.239  -4.003  0.00  0.00    +0.141 C 
ATOM     29  C   UNL     1       0.341  -0.723  -3.800  0.00  0.00    -0.049 C 
ATOM     30  N   UNL     1      -0.175  -0.100  -5.037  0.00  0.00    +0.387 N 
ATOM     31  H   UNL     1       0.449  -0.339  -5.817  0.00  0.00    -0.081 HD
ENDBRANCH  19  30
ENDBRANCH  18  19
ENDBRANCH   3  18
TORSDOF 5
