REMARK  Name = ZINC22941992
REMARK  10 active torsions:
REMARK  status: ('A' for Active; 'I' for Inactive)
REMARK    1  A    between atoms: C_1  and  C_2
REMARK    2  A    between atoms: C_2  and  N_3
REMARK    3  A    between atoms: N_6  and  C_9
REMARK    4  A    between atoms: C_9  and  C_11
REMARK    5  A    between atoms: C_9  and  C_16
REMARK    6  A    between atoms: C_16  and  C_18
REMARK    7  A    between atoms: C_16  and  N_19
REMARK    8  A    between atoms: N_21  and  C_22
REMARK    9  A    between atoms: C_24  and  C_29
REMARK   10  A    between atoms: C_27  and  C_28
REMARK                            x       y       z     vdW  Elec       q    Type
REMARK                         _______ _______ _______ _____ _____    ______ ____
ROOT
ATOM      1  C   UNL     1      -4.917  -4.615  -1.023  0.00  0.00    +0.100 C 
ATOM      2  C   UNL     1      -4.686  -4.546   0.488  0.00  0.00    +0.032 C 
ENDROOT
BRANCH   1   3
ATOM      3  N   UNL     1      -6.279  -5.083  -1.288  0.00  0.00    -0.363 N 
ATOM      4  C   UNL     1      -6.548  -6.423  -1.318  0.00  0.00    +0.143 C 
ATOM      5  N   UNL     1      -7.821  -6.860  -1.566  0.00  0.00    -0.295 N 
ATOM      6  S   UNL     1      -5.330  -7.519  -1.054  0.00  0.00    -0.016 SA
ATOM      7  H   UNL     1      -8.569  -6.247  -1.483  0.00  0.00    +0.154 HD
ATOM      8  H   UNL     1      -6.991  -4.442  -1.442  0.00  0.00    +0.162 HD
BRANCH   5   9
ATOM      9  C   UNL     1      -8.044  -8.190  -1.938  0.00  0.00    +0.036 A 
ATOM     10  C   UNL     1      -7.173  -8.822  -2.817  0.00  0.00    +0.027 A 
ATOM     11  C   UNL     1      -7.396 -10.135  -3.182  0.00  0.00    -0.049 A 
ATOM     12  C   UNL     1      -8.485 -10.820  -2.674  0.00  0.00    +0.004 A 
ATOM     13  C   UNL     1      -9.353 -10.194  -1.799  0.00  0.00    +0.005 A 
ATOM     14  C   UNL     1      -9.132  -8.883  -1.424  0.00  0.00    -0.029 A 
ATOM     15  C   UNL     1     -10.075  -8.203  -0.466  0.00  0.00    +0.045 C 
ATOM     16  C   UNL     1      -6.453 -10.821  -4.136  0.00  0.00    +0.044 C 
ENDBRANCH   5   9
ENDBRANCH   1   3
BRANCH   1  17
ATOM     17  C   UNL     1      -4.728  -3.224  -1.632  0.00  0.00    +0.115 C 
BRANCH  17  21
ATOM     18  N   UNL     1      -0.771  -1.781  -1.988  0.00  0.00    +0.381 N 
ATOM     19  C   UNL     1      -0.967  -3.128  -1.438  0.00  0.00    -0.063 C 
ATOM     20  C   UNL     1      -2.352  -3.645  -1.836  0.00  0.00    +0.066 C 
ATOM     21  N   UNL     1      -3.380  -2.731  -1.319  0.00  0.00    -0.297 NA
ATOM     22  C   UNL     1      -3.181  -1.372  -1.841  0.00  0.00    +0.066 C 
ATOM     23  C   UNL     1      -1.790  -0.874  -1.443  0.00  0.00    -0.063 C 
ATOM     24  H   UNL     1      -0.853  -1.813  -2.993  0.00  0.00    -0.082 HD
BRANCH  18  26
ATOM     25  C   UNL     1       1.629  -2.164  -2.292  0.00  0.00    -0.017 C 
ATOM     26  C   UNL     1       0.565  -1.292  -1.621  0.00  0.00    -0.082 C 
ENDBRANCH  18  26
ENDBRANCH  17  21
BRANCH  17  27
ATOM     27  C   UNL     1      -5.753  -2.281  -1.058  0.00  0.00    +0.009 A 
ATOM     28  C   UNL     1      -6.931  -1.872  -1.592  0.00  0.00    +0.013 A 
ATOM     29  C   UNL     1      -7.721  -0.992  -0.876  0.00  0.00    +0.008 A 
ATOM     30  C   UNL     1      -7.296  -0.564   0.337  0.00  0.00    +0.045 A 
ATOM     31  S   UNL     1      -5.737  -1.418   0.505  0.00  0.00    -0.100 S 
ENDBRANCH  17  27
ENDBRANCH   1  17
TORSDOF 6
