REMARK  Name = ZINC43409507
REMARK  4 active torsions:
REMARK  status: ('A' for Active; 'I' for Inactive)
REMARK    1  A    between atoms: C_1  and  C_2
REMARK    2  A    between atoms: C_4  and  C_7
REMARK    3  A    between atoms: C_7  and  N_8
REMARK    4  A    between atoms: C_10  and  C_19
REMARK                            x       y       z     vdW  Elec       q    Type
REMARK                         _______ _______ _______ _____ _____    ______ ____
ROOT
ATOM      1  N   UNL     1       1.423  -3.567  -2.011  0.00  0.00    -0.319 N 
ATOM      2  C   UNL     1       1.686  -4.622  -2.868  0.00  0.00    +0.137 A 
ATOM      3  C   UNL     1       3.016  -4.970  -3.163  0.00  0.00    +0.092 A 
ATOM      4  C   UNL     1       3.246  -6.036  -4.035  0.00  0.00    +0.027 A 
ATOM      5  C   UNL     1       2.156  -6.711  -4.573  0.00  0.00    -0.025 A 
ATOM      6  C   UNL     1       0.880  -6.318  -4.234  0.00  0.00    +0.047 A 
ATOM      7  N   UNL     1       0.688  -5.301  -3.401  0.00  0.00    -0.236 NA
ATOM      8  C   UNL     1      -0.346  -7.016  -4.766  0.00  0.00    +0.056 C 
ATOM      9  C   UNL     1       0.001  -7.844  -6.002  0.00  0.00    +0.006 C 
ATOM     10  C   UNL     1       1.200  -8.738  -5.665  0.00  0.00    +0.005 C 
ATOM     11  C   UNL     1       2.435  -7.851  -5.516  0.00  0.00    +0.037 C 
ATOM     12  H   UNL     1       2.155  -3.067  -1.618  0.00  0.00    +0.148 HD
ENDROOT
BRANCH   3  13
ATOM     13  C   UNL     1       4.108  -4.249  -2.583  0.00  0.00    +0.103 C 
ATOM     14  N   UNL     1       4.975  -3.676  -2.123  0.00  0.00    -0.191 NA
ENDBRANCH   3  13
BRANCH   1  15
ATOM     15  C   UNL     1       0.038  -3.206  -1.697  0.00  0.00    +0.201 C 
BRANCH  15  19
ATOM     16  C   UNL     1      -0.018   1.503   0.010  0.00  0.00    +0.091 C 
ATOM     17  C   UNL     1       0.002  -0.004   0.002  0.00  0.00    +0.169 A 
ATOM     18  N   UNL     1       0.008  -0.776  -1.091  0.00  0.00    -0.195 NA
ATOM     19  C   UNL     1       0.026  -2.034  -0.750  0.00  0.00    +0.244 A 
ATOM     20  O   UNL     1       0.033  -2.107   0.587  0.00  0.00    -0.336 OA
ATOM     21  N   UNL     1       0.023  -0.767   1.057  0.00  0.00    -0.062 NA
ENDBRANCH  15  19
ENDBRANCH   1  15
TORSDOF 3
