REMARK  Name = ZINC02309949
REMARK  9 active torsions:
REMARK  status: ('A' for Active; 'I' for Inactive)
REMARK    1  A    between atoms: C_1  and  C_2
REMARK    2  A    between atoms: C_2  and  O_3
REMARK    3  A    between atoms: O_3  and  C_4
REMARK    4  A    between atoms: C_4  and  C_6
REMARK    5  A    between atoms: C_7  and  N_17
REMARK    6  A    between atoms: N_18  and  N_19
REMARK    7  A    between atoms: C_21  and  C_30
REMARK    8  A    between atoms: C_26  and  C_28
REMARK    9  A    between atoms: C_26  and  C_29
REMARK                            x       y       z     vdW  Elec       q    Type
REMARK                         _______ _______ _______ _____ _____    ______ ____
ROOT
ATOM      1  C   UNL     1       1.461  -2.343  -2.507  0.00  0.00    +0.153 A 
ATOM      2  C   UNL     1       1.702  -3.687  -2.751  0.00  0.00    +0.127 A 
ATOM      3  C   UNL     1       2.376  -3.759  -4.055  0.00  0.00    +0.030 A 
ATOM      4  C   UNL     1       2.864  -4.816  -4.827  0.00  0.00    +0.050 A 
ATOM      5  C   UNL     1       3.462  -4.554  -6.040  0.00  0.00    +0.124 A 
ATOM      6  C   UNL     1       3.582  -3.246  -6.496  0.00  0.00    +0.040 A 
ATOM      7  C   UNL     1       3.107  -2.195  -5.745  0.00  0.00    +0.029 A 
ATOM      8  C   UNL     1       2.497  -2.436  -4.516  0.00  0.00    +0.049 A 
ATOM      9  N   UNL     1       1.936  -1.603  -3.574  0.00  0.00    -0.347 N 
ATOM     10  H   UNL     1       1.884  -0.637  -3.647  0.00  0.00    +0.166 HD
ATOM     11  F   UNL     1       3.936  -5.574  -6.790  0.00  0.00    -0.205 F 
ENDROOT
BRANCH   1  12
ATOM     12  C   UNL     1       0.806  -1.798  -1.320  0.00  0.00    +0.358 C 
ATOM     13  O   UNL     1       0.335  -2.549  -0.486  0.00  0.00    -0.243 OA
BRANCH  12  14
ATOM     14  O   UNL     1       0.723  -0.462  -1.148  0.00  0.00    -0.460 OA
BRANCH  14  16
ATOM     15  C   UNL     1       0.072   1.530   0.056  0.00  0.00    +0.048 C 
ATOM     16  C   UNL     1       0.069   0.000   0.036  0.00  0.00    +0.229 C 
ENDBRANCH  14  16
ENDBRANCH  12  14
ENDBRANCH   1  12
BRANCH   2  17
ATOM     17  N   UNL     1       1.378  -4.735  -1.940  0.00  0.00    -0.131 NA
ATOM     18  N   UNL     1       0.686  -4.533  -0.870  0.00  0.00    -0.078 NA
BRANCH  18  19
ATOM     19  N   UNL     1       0.354  -5.610  -0.037  0.00  0.00    -0.234 N 
ATOM     20  C   UNL     1       0.730  -7.015  -0.255  0.00  0.00    +0.134 C 
ATOM     21  C   UNL     1       0.043  -7.826   0.869  0.00  0.00    -0.013 C 
ATOM     22  C   UNL     1      -0.026  -6.788   2.021  0.00  0.00    +0.032 C 
ATOM     23  C   UNL     1      -0.428  -5.529   1.213  0.00  0.00    +0.095 C 
ATOM     24  C   UNL     1      -1.912  -5.666   0.878  0.00  0.00    +0.030 C 
ATOM     25  C   UNL     1      -2.249  -6.941   0.124  0.00  0.00    -0.033 C 
ATOM     26  C   UNL     1      -1.388  -8.147   0.447  0.00  0.00    +0.014 C 
ATOM     27  C   UNL     1      -3.710  -7.310   0.482  0.00  0.00    +0.011 C 
ATOM     28  C   UNL     1      -2.228  -6.668  -1.387  0.00  0.00    +0.011 C 
ATOM     29  C   UNL     1       0.844  -9.079   1.256  0.00  0.00    +0.013 C 
ENDBRANCH  18  19
ENDBRANCH   2  17
TORSDOF 5
