REMARK  Name = ZINC49399120
REMARK  7 active torsions:
REMARK  status: ('A' for Active; 'I' for Inactive)
REMARK    1  A    between atoms: C_1  and  C_2
REMARK    2  A    between atoms: C_5  and  C_25
REMARK    3  A    between atoms: C_6  and  O_8
REMARK    4  A    between atoms: O_8  and  C_9
REMARK    5  A    between atoms: C_9  and  C_11
REMARK    6  A    between atoms: C_11  and  N_12
REMARK    7  A    between atoms: C_13  and  C_15
REMARK                            x       y       z     vdW  Elec       q    Type
REMARK                         _______ _______ _______ _____ _____    ______ ____
ROOT
ATOM      1  C   UNL     1       0.151  -2.060   3.507  0.00  0.00    +0.330 C 
ATOM      2  O   UNL     1       0.133  -0.853   3.473  0.00  0.00    -0.249 OA
ENDROOT
BRANCH   1   3
ATOM      3  O   UNL     1       0.052  -2.766   2.369  0.00  0.00    -0.424 OA
BRANCH   3   9
ATOM      4  C   UNL     1      -2.486  -0.627  -1.205  0.00  0.00    +0.044 C 
ATOM      5  C   UNL     1      -1.174  -1.023  -0.580  0.00  0.00    -0.047 A 
ATOM      6  C   UNL     1       0.016  -0.689  -1.206  0.00  0.00    +0.004 A 
ATOM      7  C   UNL     1       1.222  -1.046  -0.642  0.00  0.00    +0.017 A 
ATOM      8  C   UNL     1       1.246  -1.748   0.565  0.00  0.00    +0.079 A 
ATOM      9  C   UNL     1       0.041  -2.084   1.195  0.00  0.00    +0.144 A 
ATOM     10  C   UNL     1      -1.164  -1.712   0.617  0.00  0.00    +0.050 A 
BRANCH   8  11
ATOM     11  C   UNL     1       2.534  -2.134   1.173  0.00  0.00    +0.245 C 
ATOM     12  O   UNL     1       2.551  -2.745   2.225  0.00  0.00    -0.270 OA
ATOM     13  N   UNL     1       3.691  -1.810   0.564  0.00  0.00    -0.325 N 
ATOM     14  H   UNL     1       3.678  -1.322  -0.275  0.00  0.00    +0.145 HD
ATOM     15  H   UNL     1       4.538  -2.063   0.964  0.00  0.00    +0.145 HD
ENDBRANCH   8  11
ENDBRANCH   3   9
ENDBRANCH   1   3
BRANCH   1  16
ATOM     16  C   UNL     1       0.285  -2.775   4.827  0.00  0.00    +0.225 C 
BRANCH  16  17
ATOM     17  N   UNL     1       0.376  -1.790   5.908  0.00  0.00    -0.304 N 
ATOM     18  C   UNL     1       0.502  -2.202   7.186  0.00  0.00    +0.220 C 
ATOM     19  O   UNL     1       0.541  -3.387   7.440  0.00  0.00    -0.275 OA
ATOM     20  H   UNL     1       0.345  -0.843   5.705  0.00  0.00    +0.149 HD
BRANCH  18  21
ATOM     21  C   UNL     1       0.596  -1.189   8.298  0.00  0.00    +0.048 C 
ATOM     22  C   UNL     1       1.818  -0.297   8.074  0.00  0.00    +0.019 C 
ATOM     23  C   UNL     1       1.913   0.731   9.203  0.00  0.00    -0.009 C 
ATOM     24  C   UNL     1       2.049   0.005  10.543  0.00  0.00    +0.007 C 
ATOM     25  C   UNL     1       0.826  -0.887  10.767  0.00  0.00    -0.009 C 
ATOM     26  C   UNL     1       0.732  -1.915   9.638  0.00  0.00    +0.019 C 
ATOM     27  C   UNL     1      -0.438  -0.025  10.780  0.00  0.00    +0.007 C 
ATOM     28  C   UNL     1      -0.574   0.700   9.439  0.00  0.00    -0.009 C 
ATOM     29  C   UNL     1       0.649   1.592   9.216  0.00  0.00    +0.007 C 
ATOM     30  C   UNL     1      -0.669  -0.328   8.310  0.00  0.00    +0.019 C 
ENDBRANCH  18  21
ENDBRANCH  16  17
ENDBRANCH   1  16
TORSDOF 6
