REMARK  Name = ZINC39396742
REMARK  3 active torsions:
REMARK  status: ('A' for Active; 'I' for Inactive)
REMARK    1  A    between atoms: C_1  and  C_2
REMARK    2  A    between atoms: C_9  and  C_14
REMARK    3  A    between atoms: N_16  and  C_17
REMARK                            x       y       z     vdW  Elec       q    Type
REMARK                         _______ _______ _______ _____ _____    ______ ____
ROOT
ATOM      1  C   UNL     1      -0.018   1.503   0.010  0.00  0.00    +0.044 C 
ATOM      2  C   UNL     1       0.002  -0.004   0.002  0.00  0.00    -0.049 A 
ATOM      3  C   UNL     1       0.006  -0.699  -1.194  0.00  0.00    +0.004 A 
ATOM      4  C   UNL     1       0.033  -2.075  -1.211  0.00  0.00    +0.006 A 
ATOM      5  C   UNL     1       0.055  -2.812  -0.024  0.00  0.00    -0.015 A 
ATOM      6  C   UNL     1       0.035  -2.093   1.169  0.00  0.00    +0.014 A 
ATOM      7  C   UNL     1       0.023  -0.711   1.189  0.00  0.00    +0.018 A 
ATOM      8  S   UNL     1       0.019  -3.293   2.483  0.00  0.00    -0.110 S 
ATOM      9  C   UNL     1      -0.378  -4.791   1.490  0.00  0.00    +0.159 C 
ATOM     10  C   UNL     1       0.107  -4.314   0.102  0.00  0.00    +0.133 C 
ATOM     11 CL   UNL     1       1.805  -4.866  -0.148  0.00  0.00    -0.115 Cl
ENDROOT
BRANCH   9  12
ATOM     12  C   UNL     1      -1.859  -5.072   1.488  0.00  0.00    +0.231 C 
ATOM     13  O   UNL     1      -2.571  -4.567   0.647  0.00  0.00    -0.274 OA
ATOM     14  N   UNL     1      -2.391  -5.886   2.422  0.00  0.00    -0.272 N 
ATOM     15  H   UNL     1      -1.821  -6.291   3.094  0.00  0.00    +0.153 HD
BRANCH  14  16
ATOM     16  C   UNL     1      -3.830  -6.160   2.420  0.00  0.00    +0.358 C 
ATOM     17  N   UNL     1      -4.567  -5.055   3.055  0.00  0.00    -0.117 NA
ATOM     18  N   UNL     1      -5.141  -5.543   4.039  0.00  0.00    -0.024 NA
ATOM     19  N   UNL     1      -4.882  -6.905   4.168  0.00  0.00    -0.024 NA
ATOM     20  N   UNL     1      -4.136  -7.322   3.271  0.00  0.00    -0.117 NA
ENDBRANCH  14  16
ENDBRANCH   9  12
TORSDOF 2
