REMARK  Name = ZINC35709911
REMARK  11 active torsions:
REMARK  status: ('A' for Active; 'I' for Inactive)
REMARK    1  A    between atoms: C_1  and  C_2
REMARK    2  A    between atoms: C_2  and  N_3
REMARK    3  A    between atoms: N_3  and  C_4
REMARK    4  A    between atoms: C_6  and  C_7
REMARK    5  A    between atoms: C_12  and  C_31
REMARK    6  A    between atoms: C_13  and  C_24
REMARK    7  A    between atoms: C_14  and  C_17
REMARK    8  A    between atoms: N_26  and  C_27
REMARK    9  A    between atoms: C_27  and  C_28
REMARK   10  A    between atoms: C_27  and  C_29
REMARK   11  A    between atoms: C_27  and  C_30
REMARK                            x       y       z     vdW  Elec       q    Type
REMARK                         _______ _______ _______ _____ _____    ______ ____
ROOT
ATOM      1  C   UNL     1       1.306  -4.598  -3.267  0.00  0.00    +0.048 C 
ATOM      2  C   UNL     1       1.999  -5.432  -4.072  0.00  0.00    +0.072 C 
ATOM      3  S   UNL     1       2.060  -6.921  -3.096  0.00  0.00    -0.060 S 
ATOM      4  C   UNL     1       1.211  -6.383  -1.752  0.00  0.00    +0.166 C 
ATOM      5  N   UNL     1       0.882  -6.986  -0.629  0.00  0.00    -0.230 NA
ATOM      6  C   UNL     1       0.200  -6.425   0.358  0.00  0.00    +0.051 C 
ATOM      7  C   UNL     1      -0.224  -5.115   0.259  0.00  0.00    +0.060 C 
ATOM      8  C   UNL     1       0.117  -4.356  -1.004  0.00  0.00    +0.148 C 
ATOM      9  N   UNL     1       0.891  -5.085  -2.043  0.00  0.00    -0.267 N 
ATOM     10  C   UNL     1      -0.116  -7.222   1.597  0.00  0.00    +0.066 C 
ENDROOT
BRANCH   8  11
ATOM     11  C   UNL     1      -1.173  -3.887  -1.626  0.00  0.00    -0.022 A 
ATOM     12  C   UNL     1      -1.501  -2.544  -1.607  0.00  0.00    +0.007 A 
ATOM     13  C   UNL     1      -2.684  -2.113  -2.177  0.00  0.00    +0.020 A 
ATOM     14  C   UNL     1      -3.540  -3.026  -2.767  0.00  0.00    +0.041 A 
ATOM     15  C   UNL     1      -3.211  -4.370  -2.786  0.00  0.00    +0.020 A 
ATOM     16  C   UNL     1      -2.026  -4.799  -2.221  0.00  0.00    +0.007 A 
ATOM     17 CL   UNL     1      -5.027  -2.485  -3.483  0.00  0.00    -0.084 Cl
ENDBRANCH   8  11
BRANCH   7  18
ATOM     18  C   UNL     1      -0.948  -4.508   1.296  0.00  0.00    +0.244 C 
ATOM     19  O   UNL     1      -1.317  -5.170   2.251  0.00  0.00    -0.270 OA
ATOM     20  N   UNL     1      -1.237  -3.192   1.236  0.00  0.00    -0.307 N 
ATOM     21  H   UNL     1      -1.022  -2.685   0.438  0.00  0.00    +0.150 HD
BRANCH  20  22
ATOM     22  C   UNL     1      -1.875  -2.530   2.376  0.00  0.00    +0.026 C 
ATOM     23  C   UNL     1      -0.976  -2.655   3.608  0.00  0.00    +0.031 C 
ATOM     24  C   UNL     1      -2.091  -1.051   2.051  0.00  0.00    +0.031 C 
ATOM     25  C   UNL     1      -3.225  -3.192   2.660  0.00  0.00    +0.031 C 
ENDBRANCH  20  22
ENDBRANCH   7  18
BRANCH   1  28
ATOM     26  C   UNL     1       1.535  -2.724  -4.813  0.00  0.00    +0.239 C 
ATOM     27  O   UNL     1       2.241  -3.533  -5.640  0.00  0.00    -0.271 OA
ATOM     28  C   UNL     1       1.008  -3.217  -3.676  0.00  0.00    +0.091 C 
BRANCH  26  29
ATOM     29  N   UNL     1       1.354  -1.390  -5.138  0.00  0.00    -0.312 N 
ATOM     30  H   UNL     1       0.914  -0.794  -4.512  0.00  0.00    +0.149 HD
BRANCH  29  32
ATOM     31  C   UNL     1       1.399   0.581  -6.585  0.00  0.00    +0.024 C 
ATOM     32  C   UNL     1       1.829  -0.878  -6.426  0.00  0.00    +0.101 C 
ENDBRANCH  29  32
ENDBRANCH  26  29
ENDBRANCH   1  28
TORSDOF 6
