REMARK  Name = ZINC37129193
REMARK  5 active torsions:
REMARK  status: ('A' for Active; 'I' for Inactive)
REMARK    1  A    between atoms: C_1  and  C_2
REMARK    2  A    between atoms: C_5  and  C_7
REMARK    3  A    between atoms: C_7  and  C_9
REMARK    4  A    between atoms: C_7  and  N_10
REMARK    5  A    between atoms: N_10  and  C_11
REMARK                            x       y       z     vdW  Elec       q    Type
REMARK                         _______ _______ _______ _____ _____    ______ ____
ROOT
ATOM      1  C   UNL     1       2.505  -5.345   1.508  0.00  0.00    +0.075 A 
ATOM      2  C   UNL     1       3.300  -5.340   2.613  0.00  0.00    +0.065 A 
ATOM      3  C   UNL     1       3.613  -6.519   3.288  0.00  0.00    +0.044 A 
ATOM      4  C   UNL     1       3.140  -7.720   2.875  0.00  0.00    +0.071 A 
ATOM      5  C   UNL     1       2.303  -7.804   1.728  0.00  0.00    +0.120 A 
ATOM      6  C   UNL     1       1.968  -6.574   1.021  0.00  0.00    +0.123 A 
ATOM      7  N   UNL     1       1.175  -6.773  -0.032  0.00  0.00    -0.189 NA
ATOM      8  S   UNL     1       0.904  -8.358  -0.078  0.00  0.00    +0.117 S 
ATOM      9  N   UNL     1       1.752  -8.889   1.181  0.00  0.00    -0.189 NA
ATOM     10 CL   UNL     1       3.558  -9.161   3.748  0.00  0.00    -0.081 Cl
ATOM     11 CL   UNL     1       3.938  -3.834   3.194  0.00  0.00    -0.082 Cl
ENDROOT
BRANCH   1  12
ATOM     12  N   UNL     1       2.210  -4.147   0.855  0.00  0.00    -0.334 N 
ATOM     13  H   UNL     1       2.758  -3.362   1.010  0.00  0.00    +0.147 HD
BRANCH  12  14
ATOM     14  C   UNL     1       1.072  -4.075  -0.065  0.00  0.00    +0.104 C 
ATOM     15  C   UNL     1       1.558  -4.315  -1.496  0.00  0.00    +0.033 C 
BRANCH  14  20
ATOM     16  C   UNL     1      -0.390   1.382   0.341  0.00  0.00    +0.051 C 
ATOM     17  C   UNL     1      -0.260  -0.114   0.222  0.00  0.00    -0.013 A 
ATOM     18  C   UNL     1      -1.235  -1.050   0.114  0.00  0.00    +0.011 A 
ATOM     19  C   UNL     1      -0.879  -2.381   0.015  0.00  0.00    +0.013 A 
ATOM     20  C   UNL     1       0.436  -2.713   0.028  0.00  0.00    +0.010 A 
ATOM     21  S   UNL     1       1.218  -1.115   0.177  0.00  0.00    -0.097 S 
ENDBRANCH  14  20
ENDBRANCH  12  14
ENDBRANCH   1  12
TORSDOF 3
