REMARK  Name = ZINC12918838
REMARK  11 active torsions:
REMARK  status: ('A' for Active; 'I' for Inactive)
REMARK    1  A    between atoms: C_1  and  C_2
REMARK    2  A    between atoms: C_4  and  C_28
REMARK    3  A    between atoms: C_5  and  N_9
REMARK    4  A    between atoms: C_6  and  C_8
REMARK    5  A    between atoms: C_10  and  C_12
REMARK    6  A    between atoms: C_12  and  N_13
REMARK    7  A    between atoms: N_13  and  C_14
REMARK    8  A    between atoms: N_17  and  C_18
REMARK    9  A    between atoms: C_23  and  C_24
REMARK   10  A    between atoms: C_24  and  O_26
REMARK   11  A    between atoms: O_26  and  C_27
REMARK                            x       y       z     vdW  Elec       q    Type
REMARK                         _______ _______ _______ _____ _____    ______ ____
ROOT
ATOM      1  N   UNL     1      -5.998   3.991  -1.084  0.00  0.00    -0.280 N 
ATOM      2  C   UNL     1      -6.279   3.721  -2.497  0.00  0.00    +0.134 C 
ATOM      3  C   UNL     1      -6.844   3.548  -0.133  0.00  0.00    +0.307 C 
ATOM      4  O   UNL     1      -6.611   3.772   1.039  0.00  0.00    -0.252 OA
ATOM      5  N   UNL     1      -7.947   2.857  -0.480  0.00  0.00    -0.269 N 
ATOM      6  H   UNL     1      -8.168   2.735  -1.417  0.00  0.00    +0.156 HD
ENDROOT
BRANCH   5   7
ATOM      7  C   UNL     1      -8.770   2.317   0.505  0.00  0.00    +0.049 A 
ATOM      8  C   UNL     1      -8.971   3.000   1.697  0.00  0.00    +0.024 A 
ATOM      9  C   UNL     1      -9.791   2.466   2.670  0.00  0.00    +0.002 A 
ATOM     10  C   UNL     1     -10.411   1.242   2.471  0.00  0.00    +0.001 A 
ATOM     11  C   UNL     1     -10.219   0.547   1.297  0.00  0.00    +0.017 A 
ATOM     12  C   UNL     1      -9.395   1.078   0.300  0.00  0.00    +0.080 A 
BRANCH  12  13
ATOM     13  C   UNL     1      -9.185   0.340  -0.958  0.00  0.00    +0.341 C 
ATOM     14  O   UNL     1      -8.391   0.753  -1.780  0.00  0.00    -0.245 OA
BRANCH  13  15
ATOM     15  O   UNL     1      -9.873  -0.794  -1.197  0.00  0.00    -0.464 OA
ATOM     16  C   UNL     1      -9.615  -1.468  -2.457  0.00  0.00    +0.280 C 
ENDBRANCH  13  15
ENDBRANCH  12  13
ENDBRANCH   5   7
BRANCH   1  17
ATOM     17  C   UNL     1      -4.799   4.743  -0.706  0.00  0.00    +0.205 C 
BRANCH  17  19
ATOM     18  N   UNL     1      -2.442   4.256  -0.133  0.00  0.00    -0.284 N 
ATOM     19  C   UNL     1      -3.654   3.787  -0.490  0.00  0.00    +0.235 C 
ATOM     20  O   UNL     1      -3.824   2.595  -0.638  0.00  0.00    -0.274 OA
ATOM     21  H   UNL     1      -2.321   5.202   0.044  0.00  0.00    +0.155 HD
BRANCH  18  26
ATOM     22  C   UNL     1       1.952   0.699   0.334  0.00  0.00    +0.044 C 
ATOM     23  C   UNL     1       0.785   1.644   0.209  0.00  0.00    -0.050 A 
ATOM     24  C   UNL     1       0.044   1.676  -0.958  0.00  0.00    +0.008 A 
ATOM     25  C   UNL     1      -1.023   2.545  -1.077  0.00  0.00    -0.029 A 
ATOM     26  C   UNL     1      -1.358   3.379  -0.018  0.00  0.00    +0.039 A 
ATOM     27  C   UNL     1      -0.613   3.343   1.153  0.00  0.00    -0.029 A 
ATOM     28  C   UNL     1       0.456   2.476   1.264  0.00  0.00    +0.008 A 
ATOM     29  C   UNL     1      -0.970   4.251   2.302  0.00  0.00    +0.045 C 
ATOM     30  C   UNL     1      -1.825   2.584  -2.352  0.00  0.00    +0.045 C 
ENDBRANCH  18  26
ENDBRANCH  17  19
ENDBRANCH   1  17
TORSDOF 6
