REMARK  Name = ZINC43928746
REMARK  6 active torsions:
REMARK  status: ('A' for Active; 'I' for Inactive)
REMARK    1  A    between atoms: C_1  and  C_2
REMARK    2  A    between atoms: C_2  and  C_4
REMARK    3  A    between atoms: C_2  and  N_14
REMARK    4  A    between atoms: N_17  and  C_18
REMARK    5  A    between atoms: C_23  and  S_24
REMARK    6  A    between atoms: S_24  and  C_27
REMARK                            x       y       z     vdW  Elec       q    Type
REMARK                         _______ _______ _______ _____ _____    ______ ____
ROOT
ATOM      1  N   UNL     1      -1.367  -0.526   0.013  0.00  0.00    -0.293 N 
ATOM      2  C   UNL     1      -2.027  -0.659   1.181  0.00  0.00    +0.304 C 
ATOM      3  O   UNL     1      -1.481  -0.360   2.225  0.00  0.00    -0.252 OA
ATOM      4  N   UNL     1      -3.293  -1.122   1.190  0.00  0.00    -0.268 N 
ATOM      5  H   UNL     1      -1.803  -0.765  -0.820  0.00  0.00    +0.151 HD
ATOM      6  H   UNL     1      -3.757  -1.283   0.354  0.00  0.00    +0.156 HD
ENDROOT
BRANCH   4   7
ATOM      7  C   UNL     1      -3.938  -1.370   2.407  0.00  0.00    +0.060 A 
ATOM      8  C   UNL     1      -3.193  -1.647   3.546  0.00  0.00    +0.025 A 
ATOM      9  C   UNL     1      -3.832  -1.891   4.745  0.00  0.00    +0.002 A 
ATOM     10  C   UNL     1      -5.213  -1.862   4.813  0.00  0.00    +0.002 A 
ATOM     11  C   UNL     1      -5.958  -1.587   3.681  0.00  0.00    +0.029 A 
ATOM     12  C   UNL     1      -5.324  -1.335   2.480  0.00  0.00    +0.109 A 
BRANCH  12  13
ATOM     13  S   UNL     1      -6.274  -0.978   1.039  0.00  0.00    -0.004 S 
ATOM     14  O   UNL     1      -5.781  -1.871   0.049  0.00  0.00    -0.170 OA
ATOM     15  O   UNL     1      -7.626  -1.050   1.470  0.00  0.00    -0.170 OA
ATOM     16  C   UNL     1      -5.845   0.731   0.610  0.00  0.00    +0.200 C 
ENDBRANCH  12  13
ENDBRANCH   4   7
BRANCH   1  18
ATOM     17  C   UNL     1      -0.008   1.507  -0.002  0.00  0.00    +0.033 C 
ATOM     18  C   UNL     1       0.009  -0.023   0.003  0.00  0.00    +0.102 C 
BRANCH  18  19
ATOM     19  C   UNL     1       0.717  -0.522  -1.230  0.00  0.00    -0.027 A 
ATOM     20  C   UNL     1       0.053  -0.563  -2.443  0.00  0.00    +0.006 A 
ATOM     21  C   UNL     1       0.707  -1.023  -3.566  0.00  0.00    +0.004 A 
ATOM     22  C   UNL     1       2.028  -1.445  -3.491  0.00  0.00    -0.044 A 
ATOM     23  C   UNL     1       2.691  -1.399  -2.285  0.00  0.00    -0.044 A 
ATOM     24  C   UNL     1       2.031  -0.933  -1.155  0.00  0.00    +0.009 A 
ATOM     25  C   UNL     1       4.128  -1.825  -2.133  0.00  0.00    +0.035 C 
ATOM     26  C   UNL     1       4.562  -2.685  -3.318  0.00  0.00    +0.005 C 
ATOM     27  C   UNL     1       4.199  -1.946  -4.612  0.00  0.00    +0.005 C 
ATOM     28  C   UNL     1       2.679  -1.943  -4.755  0.00  0.00    +0.035 C 
ENDBRANCH  18  19
ENDBRANCH   1  18
TORSDOF 4
