REMARK  Name = ZINC35479122
REMARK  6 active torsions:
REMARK  status: ('A' for Active; 'I' for Inactive)
REMARK    1  A    between atoms: C_1  and  C_2
REMARK    2  A    between atoms: C_2  and  C_3
REMARK    3  A    between atoms: C_7  and  C_12
REMARK    4  A    between atoms: N_13  and  C_14
REMARK    5  A    between atoms: C_14  and  C_15
REMARK    6  A    between atoms: C_15  and  C_16
REMARK                            x       y       z     vdW  Elec       q    Type
REMARK                         _______ _______ _______ _____ _____    ______ ____
ROOT
ATOM      1  C   UNL     1       0.707  -0.490  -1.238  0.00  0.00    +0.096 A 
ATOM      2  C   UNL     1       0.089  -0.774  -2.530  0.00  0.00    +0.103 A 
ATOM      3  C   UNL     1      -1.220  -0.711  -3.038  0.00  0.00    +0.135 A 
ATOM      4  N   UNL     1      -1.422  -1.057  -4.306  0.00  0.00    -0.217 NA
ATOM      5  C   UNL     1      -0.421  -1.449  -5.072  0.00  0.00    +0.132 A 
ATOM      6  N   UNL     1       0.820  -1.523  -4.638  0.00  0.00    -0.195 NA
ATOM      7  C   UNL     1       1.122  -1.198  -3.384  0.00  0.00    +0.263 A 
ATOM      8  O   UNL     1       2.259  -1.172  -2.670  0.00  0.00    -0.334 OA
ATOM      9  N   UNL     1       1.979  -0.729  -1.357  0.00  0.00    -0.080 NA
ATOM     10  C   UNL     1      -0.711  -1.828  -6.501  0.00  0.00    +0.088 C 
ATOM     11  N   UNL     1      -2.269  -0.302  -2.240  0.00  0.00    -0.328 N 
ATOM     12  H   UNL     1      -2.108  -0.053  -1.316  0.00  0.00    +0.147 HD
ENDROOT
BRANCH   1  14
ATOM     13  C   UNL     1      -0.019   1.526   0.010  0.00  0.00    +0.010 C 
ATOM     14  C   UNL     1       0.002  -0.004   0.002  0.00  0.00    +0.056 C 
ENDBRANCH   1  14
BRANCH  11  15
ATOM     15  C   UNL     1      -3.627  -0.243  -2.788  0.00  0.00    +0.107 C 
BRANCH  15  16
ATOM     16  C   UNL     1      -4.594   0.238  -1.704  0.00  0.00    +0.049 C 
BRANCH  16  17
ATOM     17  C   UNL     1      -5.990   0.299  -2.268  0.00  0.00    -0.072 C 
ATOM     18  C   UNL     1      -6.765  -0.721  -2.082  0.00  0.00    -0.028 C 
ATOM     19  C   UNL     1      -8.173  -0.811  -2.591  0.00  0.00    +0.027 C 
ATOM     20  C   UNL     1      -8.689   0.580  -2.965  0.00  0.00    +0.004 C 
ATOM     21  C   UNL     1      -7.642   1.263  -3.854  0.00  0.00    +0.005 C 
ATOM     22  C   UNL     1      -6.397   1.541  -3.006  0.00  0.00    +0.030 C 
ENDBRANCH  16  17
ENDBRANCH  15  16
ENDBRANCH  11  15
TORSDOF 4
