REMARK  Name = ZINC01819352
REMARK  5 active torsions:
REMARK  status: ('A' for Active; 'I' for Inactive)
REMARK    1  A    between atoms: C_1  and  C_2
REMARK    2  A    between atoms: C_2  and  C_3
REMARK    3  A    between atoms: C_2  and  N_4
REMARK    4  A    between atoms: C_8  and  C_9
REMARK    5  A    between atoms: C_14  and  C_15
REMARK                            x       y       z     vdW  Elec       q    Type
REMARK                         _______ _______ _______ _____ _____    ______ ____
ROOT
ATOM      1  C   UNL     1      -5.264  -2.893  -1.505  0.00  0.00    +0.021 A 
ATOM      2  C   UNL     1      -6.016  -2.500  -0.413  0.00  0.00    +0.113 A 
ATOM      3  N   UNL     1      -7.240  -3.039  -0.541  0.00  0.00    -0.284 N 
ATOM      4  H   UNL     1      -7.970  -2.924   0.088  0.00  0.00    +0.188 HD
ATOM      5  N   UNL     1      -7.303  -3.791  -1.718  0.00  0.00    -0.173 NA
ATOM      6  C   UNL     1      -6.143  -3.727  -2.332  0.00  0.00    +0.100 A 
ENDROOT
BRANCH   1  11
ATOM      7  N   UNL     1      -1.372  -0.511   0.012  0.00  0.00    -0.253 N 
ATOM      8  C   UNL     1      -1.787  -1.275  -0.984  0.00  0.00    +0.259 C 
ATOM      9  O   UNL     1      -1.055  -1.568  -1.912  0.00  0.00    -0.269 OA
ATOM     10  C   UNL     1      -3.180  -1.754  -0.916  0.00  0.00    +0.077 C 
ATOM     11  C   UNL     1      -3.868  -2.541  -1.784  0.00  0.00    +0.032 C 
ATOM     12  S   UNL     1      -3.713  -1.015   0.622  0.00  0.00    -0.061 S 
ATOM     13  C   UNL     1      -2.185  -0.193   1.041  0.00  0.00    +0.121 C 
ATOM     14  S   UNL     1      -1.835   0.767   2.415  0.00  0.00    -0.027 S 
BRANCH   7  16
ATOM     15  C   UNL     1      -0.019   1.526   0.010  0.00  0.00    +0.028 C 
ATOM     16  C   UNL     1       0.002  -0.004   0.002  0.00  0.00    +0.077 C 
ATOM     17  C   UNL     1       0.742  -0.511   1.242  0.00  0.00    +0.028 C 
ENDBRANCH   7  16
ENDBRANCH   1  11
BRANCH   6  18
ATOM     18  C   UNL     1      -5.789  -4.379  -3.615  0.00  0.00    +0.003 A 
ATOM     19  C   UNL     1      -4.916  -3.749  -4.502  0.00  0.00    +0.010 A 
ATOM     20  C   UNL     1      -4.590  -4.361  -5.696  0.00  0.00    +0.001 A 
ATOM     21  C   UNL     1      -5.127  -5.596  -6.013  0.00  0.00    +0.000 A 
ATOM     22  C   UNL     1      -5.993  -6.225  -5.137  0.00  0.00    +0.001 A 
ATOM     23  C   UNL     1      -6.322  -5.626  -3.938  0.00  0.00    +0.010 A 
ENDBRANCH   6  18
TORSDOF 3
