REMARK  Name = ZINC67197045
REMARK  6 active torsions:
REMARK  status: ('A' for Active; 'I' for Inactive)
REMARK    1  A    between atoms: C_1  and  C_2
REMARK    2  A    between atoms: C_3  and  C_7
REMARK    3  A    between atoms: N_9  and  N_10
REMARK    4  A    between atoms: C_11  and  C_12
REMARK    5  A    between atoms: C_15  and  C_17
REMARK    6  A    between atoms: C_21  and  C_23
REMARK                            x       y       z     vdW  Elec       q    Type
REMARK                         _______ _______ _______ _____ _____    ______ ____
ROOT
ATOM      1  C   UNL     1      -7.173  -1.438   0.029  0.00  0.00    +0.148 A 
ATOM      2  C   UNL     1      -8.261  -2.283   0.035  0.00  0.00    +0.051 A 
ATOM      3  C   UNL     1      -9.403  -1.471   0.043  0.00  0.00    +0.050 A 
ATOM      4  C   UNL     1      -8.974  -0.177   0.042  0.00  0.00    +0.136 A 
ATOM      5  O   UNL     1      -7.628  -0.169   0.040  0.00  0.00    -0.454 OA
ENDROOT
BRANCH   4   6
ATOM      6  C   UNL     1      -9.842   1.017   0.049  0.00  0.00    +0.018 A 
ATOM      7  C   UNL     1     -11.232   0.874   0.063  0.00  0.00    +0.011 A 
ATOM      8  C   UNL     1     -12.037   1.994   0.069  0.00  0.00    +0.001 A 
ATOM      9  C   UNL     1     -11.471   3.257   0.060  0.00  0.00    +0.012 A 
ATOM     10  C   UNL     1     -10.095   3.406   0.046  0.00  0.00    +0.055 A 
ATOM     11  C   UNL     1      -9.278   2.295   0.047  0.00  0.00    +0.024 A 
BRANCH  10  12
ATOM     12  C   UNL     1      -9.489   4.785   0.036  0.00  0.00    +0.417 C 
ATOM     13  F   UNL     1     -10.508   5.743   0.044  0.00  0.00    -0.166 F 
ATOM     14  F   UNL     1      -8.685   4.950   1.170  0.00  0.00    -0.166 F 
ATOM     15  F   UNL     1      -8.709   4.943  -1.115  0.00  0.00    -0.166 F 
ENDBRANCH  10  12
ENDBRANCH   4   6
BRANCH   1  17
ATOM     16  N   UNL     1      -4.827  -0.947   0.021  0.00  0.00    -0.184 NA
ATOM     17  C   UNL     1      -5.767  -1.847   0.020  0.00  0.00    +0.176 C 
BRANCH  16  20
ATOM     18  C   UNL     1      -2.508  -0.406   0.012  0.00  0.00    +0.267 C 
ATOM     19  O   UNL     1      -2.798   0.776   0.021  0.00  0.00    -0.268 OA
ATOM     20  N   UNL     1      -3.482  -1.338   0.011  0.00  0.00    -0.203 N 
ATOM     21  H   UNL     1      -3.251  -2.280   0.005  0.00  0.00    +0.178 HD
BRANCH  18  24
ATOM     22  C   UNL     1      -0.018   1.503   0.010  0.00  0.00    +0.087 C 
ATOM     23  C   UNL     1       0.002  -0.004   0.002  0.00  0.00    +0.114 A 
ATOM     24  C   UNL     1      -1.093  -0.817   0.003  0.00  0.00    +0.079 A 
ATOM     25  C   UNL     1      -0.567  -2.190  -0.007  0.00  0.00    +0.054 A 
ATOM     26  C   UNL     1       0.769  -2.073  -0.013  0.00  0.00    +0.196 A 
ATOM     27  O   UNL     1       1.097  -0.771  -0.013  0.00  0.00    -0.467 OA
ENDBRANCH  18  24
ENDBRANCH  16  20
ENDBRANCH   1  17
TORSDOF 5
