REMARK  Name = ZINC64940136
REMARK  5 active torsions:
REMARK  status: ('A' for Active; 'I' for Inactive)
REMARK    1  A    between atoms: C_1  and  C_2
REMARK    2  A    between atoms: C_2  and  N_3
REMARK    3  A    between atoms: N_6  and  N_7
REMARK    4  A    between atoms: N_7  and  S_8
REMARK    5  A    between atoms: S_8  and  C_11
REMARK                            x       y       z     vdW  Elec       q    Type
REMARK                         _______ _______ _______ _____ _____    ______ ____
ROOT
ATOM      1  S   UNL     1      -5.116  -1.507  -1.132  0.00  0.00    +0.074 S 
ATOM      2  O   UNL     1      -6.127  -0.577  -0.767  0.00  0.00    -0.152 OA
ATOM      3  O   UNL     1      -4.449  -1.455  -2.386  0.00  0.00    -0.152 OA
ENDROOT
BRANCH   1   4
ATOM      4  C   UNL     1      -5.838  -3.110  -1.012  0.00  0.00    +0.108 A 
ATOM      5  C   UNL     1      -5.305  -4.161  -1.744  0.00  0.00    +0.032 A 
ATOM      6  C   UNL     1      -5.855  -5.424  -1.663  0.00  0.00    +0.049 A 
ATOM      7  C   UNL     1      -6.954  -5.648  -0.843  0.00  0.00    +0.139 A 
ATOM      8  C   UNL     1      -7.490  -4.580  -0.103  0.00  0.00    +0.019 A 
ATOM      9  C   UNL     1      -6.915  -3.308  -0.195  0.00  0.00    +0.040 A 
ATOM     10  C   UNL     1      -8.650  -4.825   0.760  0.00  0.00    +0.018 A 
ATOM     11  C   UNL     1      -9.158  -6.082   0.808  0.00  0.00    +0.092 A 
ATOM     12  C   UNL     1      -8.568  -7.108   0.038  0.00  0.00    +0.337 A 
ATOM     13  O   UNL     1      -9.034  -8.232   0.090  0.00  0.00    -0.245 OA
ATOM     14  O   UNL     1      -7.507  -6.875  -0.750  0.00  0.00    -0.422 OA
ENDBRANCH   1   4
BRANCH   1  15
ATOM     15  N   UNL     1      -3.942  -1.410   0.032  0.00  0.00    -0.107 NA
ATOM     16  H   UNL     1      -4.000  -0.733   0.725  0.00  0.00    +0.172 HD
BRANCH  15  20
ATOM     17  N   UNL     1      -1.372  -0.511   0.012  0.00  0.00    -0.299 N 
ATOM     18  C   UNL     1      -1.601  -1.839   0.007  0.00  0.00    +0.315 C 
ATOM     19  O   UNL     1      -0.666  -2.617  -0.006  0.00  0.00    -0.251 OA
ATOM     20  N   UNL     1      -2.865  -2.306   0.017  0.00  0.00    -0.216 N 
ATOM     21  H   UNL     1      -2.118   0.109   0.023  0.00  0.00    +0.150 HD
ATOM     22  H   UNL     1      -3.029  -3.262   0.013  0.00  0.00    +0.172 HD
BRANCH  17  24
ATOM     23  C   UNL     1      -0.019   1.526   0.010  0.00  0.00    +0.024 C 
ATOM     24  C   UNL     1       0.002  -0.004   0.002  0.00  0.00    +0.102 C 
ENDBRANCH  17  24
ENDBRANCH  15  20
ENDBRANCH   1  15
TORSDOF 4
