REMARK  Name = ZINC19789301
REMARK  8 active torsions:
REMARK  status: ('A' for Active; 'I' for Inactive)
REMARK    1  A    between atoms: C_4  and  C_32
REMARK    2  A    between atoms: C_5  and  C_7
REMARK    3  A    between atoms: C_7  and  N_8
REMARK    4  A    between atoms: N_8  and  C_9
REMARK    5  A    between atoms: C_9  and  C_10
REMARK    6  A    between atoms: C_19  and  N_20
REMARK    7  A    between atoms: C_24  and  C_27
REMARK    8  A    between atoms: C_27  and  O_28
REMARK                            x       y       z     vdW  Elec       q    Type
REMARK                         _______ _______ _______ _____ _____    ______ ____
ROOT
ATOM      1  C   UNL     1       2.837   6.148  -0.214  0.00  0.00    -0.024 A 
ATOM      2  C   UNL     1       3.979   6.480  -0.882  0.00  0.00    +0.015 A 
ATOM      3  C   UNL     1       5.007   5.520  -0.965  0.00  0.00    +0.004 A 
ATOM      4  C   UNL     1       6.208   5.798  -1.636  0.00  0.00    +0.059 A 
ATOM      5  C   UNL     1       7.186   4.847  -1.700  0.00  0.00    +0.167 A 
ATOM      6  C   UNL     1       7.002   3.591  -1.099  0.00  0.00    +0.168 A 
ATOM      7  C   UNL     1       5.843   3.296  -0.439  0.00  0.00    +0.078 A 
ATOM      8  C   UNL     1       4.820   4.255  -0.356  0.00  0.00    +0.077 A 
ATOM      9  N   UNL     1       3.679   3.988   0.291  0.00  0.00    -0.232 NA
ATOM     10  C   UNL     1       2.712   4.880   0.368  0.00  0.00    +0.123 A 
ATOM     11  O   UNL     1       8.123   2.842  -1.313  0.00  0.00    -0.453 OA
ATOM     12  C   UNL     1       9.149   3.782  -1.684  0.00  0.00    +0.466 C 
ATOM     13  O   UNL     1       8.422   4.870  -2.282  0.00  0.00    -0.453 OA
ENDROOT
BRANCH  10  14
ATOM     14  N   UNL     1       1.545   4.558   1.046  0.00  0.00    -0.315 N 
ATOM     15  C   UNL     1       1.819   4.278   2.462  0.00  0.00    +0.106 C 
ATOM     16  C   UNL     1       0.499   4.070   3.207  0.00  0.00    +0.019 C 
ATOM     17  C   UNL     1      -0.261   2.901   2.574  0.00  0.00    +0.009 C 
ATOM     18  C   UNL     1      -0.491   3.196   1.089  0.00  0.00    +0.032 C 
ATOM     19  C   UNL     1       0.859   3.429   0.405  0.00  0.00    +0.112 C 
BRANCH  18  20
ATOM     20  C   UNL     1      -1.196   2.006   0.435  0.00  0.00    +0.160 C 
BRANCH  20  21
ATOM     21  O   UNL     1      -2.503   1.861   0.994  0.00  0.00    -0.395 OA
ATOM     22  H   UNL     1      -3.164   1.054   0.645  0.00  0.00    +0.209 HD
ENDBRANCH  20  21
ENDBRANCH  18  20
ENDBRANCH  10  14
BRANCH   1  23
ATOM     23  C   UNL     1       1.712   7.144  -0.102  0.00  0.00    -0.043 C 
BRANCH  23  24
ATOM     24  N   UNL     1       1.759   7.790   1.216  0.00  0.00    +0.384 N 
ATOM     25  H   UNL     1       2.728   8.298   1.326  0.00  0.00    -0.085 HD
ATOM     26  H   UNL     1       1.660   7.016   1.992  0.00  0.00    -0.085 HD
BRANCH  24  27
ATOM     27  C   UNL     1       0.674   8.770   1.361  0.00  0.00    -0.046 C 
BRANCH  27  32
ATOM     28  C   UNL     1       1.521   9.267   5.007  0.00  0.00    +0.000 A 
ATOM     29  C   UNL     1       0.617  10.248   5.369  0.00  0.00    +0.001 A 
ATOM     30  C   UNL     1      -0.269  10.750   4.434  0.00  0.00    +0.012 A 
ATOM     31  C   UNL     1      -0.251  10.271   3.138  0.00  0.00    +0.056 A 
ATOM     32  C   UNL     1       0.654   9.291   2.775  0.00  0.00    -0.053 A 
ATOM     33  C   UNL     1       1.537   8.786   3.711  0.00  0.00    +0.002 A 
BRANCH  31  34
ATOM     34  C   UNL     1      -1.217  10.819   2.119  0.00  0.00    +0.418 C 
ATOM     35  F   UNL     1      -2.091  11.717   2.740  0.00  0.00    -0.166 F 
ATOM     36  F   UNL     1      -0.507  11.480   1.111  0.00  0.00    -0.166 F 
ATOM     37  F   UNL     1      -1.950   9.766   1.559  0.00  0.00    -0.166 F 
ENDBRANCH  31  34
ENDBRANCH  27  32
ENDBRANCH  24  27
ENDBRANCH  23  24
ENDBRANCH   1  23
TORSDOF 8
