REMARK  Name = ZINC45848105
REMARK  10 active torsions:
REMARK  status: ('A' for Active; 'I' for Inactive)
REMARK    1  A    between atoms: C_1  and  C_2
REMARK    2  A    between atoms: C_7  and  C_10
REMARK    3  A    between atoms: C_14  and  C_17
REMARK    4  A    between atoms: C_17  and  N_18
REMARK    5  A    between atoms: N_21  and  N_22
REMARK    6  A    between atoms: C_23  and  O_25
REMARK    7  A    between atoms: O_25  and  C_26
REMARK    8  A    between atoms: C_26  and  C_27
REMARK    9  A    between atoms: C_26  and  C_28
REMARK   10  A    between atoms: C_26  and  C_29
REMARK                            x       y       z     vdW  Elec       q    Type
REMARK                         _______ _______ _______ _____ _____    ______ ____
ROOT
ATOM      1  C   UNL     1      -4.185  -5.503  -3.188  0.00  0.00    +0.142 C 
ENDROOT
BRANCH   1  13
ATOM      2  C   UNL     1       0.024   1.508  -0.007  0.00  0.00    +0.039 C 
ATOM      3  C   UNL     1       0.027  -0.022  -0.001  0.00  0.00    +0.133 C 
ATOM      4  C   UNL     1      -1.417  -0.537   0.001  0.00  0.00    +0.137 C 
ATOM      5  N   UNL     1      -1.389  -1.995   0.196  0.00  0.00    -0.312 N 
ATOM      6  C   UNL     1      -0.598  -2.529   1.316  0.00  0.00    +0.137 C 
ATOM      7  C   UNL     1       0.806  -1.917   1.250  0.00  0.00    +0.133 C 
ATOM      8  O   UNL     1       0.698  -0.493   1.171  0.00  0.00    -0.371 OA
ATOM      9  C   UNL     1       1.591  -2.301   2.506  0.00  0.00    +0.039 C 
ATOM     10  C   UNL     1      -2.091  -2.844  -0.652  0.00  0.00    +0.099 A 
ATOM     11  C   UNL     1      -2.927  -2.308  -1.627  0.00  0.00    +0.042 A 
ATOM     12  C   UNL     1      -3.619  -3.164  -2.464  0.00  0.00    +0.010 A 
ATOM     13  C   UNL     1      -3.451  -4.533  -2.299  0.00  0.00    -0.014 A 
ATOM     14  C   UNL     1      -2.604  -4.995  -1.311  0.00  0.00    +0.089 A 
ATOM     15  N   UNL     1      -1.953  -4.155  -0.530  0.00  0.00    -0.349 N 
ATOM     16  H   UNL     1      -1.361  -4.507   0.154  0.00  0.00    +0.167 HD
ENDBRANCH   1  13
BRANCH   1  17
ATOM     17  N   UNL     1      -3.369  -5.796  -4.369  0.00  0.00    -0.294 N 
ATOM     18  C   UNL     1      -3.827  -6.645  -5.310  0.00  0.00    +0.316 C 
ATOM     19  O   UNL     1      -4.917  -7.168  -5.179  0.00  0.00    -0.251 OA
ATOM     20  N   UNL     1      -3.077  -6.914  -6.397  0.00  0.00    -0.216 N 
ATOM     21  H   UNL     1      -2.500  -5.378  -4.474  0.00  0.00    +0.151 HD
ATOM     22  H   UNL     1      -3.407  -7.525  -7.075  0.00  0.00    +0.174 HD
BRANCH  20  23
ATOM     23  N   UNL     1      -1.821  -6.312  -6.549  0.00  0.00    -0.198 N 
ATOM     24  C   UNL     1      -1.071  -6.581  -7.635  0.00  0.00    +0.417 C 
ATOM     25  O   UNL     1       0.018  -6.058  -7.767  0.00  0.00    -0.225 OA
ATOM     26  H   UNL     1      -1.492  -5.700  -5.871  0.00  0.00    +0.176 HD
BRANCH  24  27
ATOM     27  O   UNL     1      -1.529  -7.429  -8.576  0.00  0.00    -0.444 OA
BRANCH  27  28
ATOM     28  C   UNL     1      -0.681  -7.669  -9.701  0.00  0.00    +0.107 C 
ATOM     29  C   UNL     1       0.646  -8.261  -9.223  0.00  0.00    +0.055 C 
ATOM     30  C   UNL     1      -1.364  -8.651 -10.654  0.00  0.00    +0.055 C 
ATOM     31  C   UNL     1      -0.417  -6.350 -10.430  0.00  0.00    +0.055 C 
ENDBRANCH  27  28
ENDBRANCH  24  27
ENDBRANCH  20  23
ENDBRANCH   1  17
TORSDOF 5
