REMARK  Name = ZINC61459572
REMARK  3 active torsions:
REMARK  status: ('A' for Active; 'I' for Inactive)
REMARK    1  A    between atoms: C_3  and  C_21
REMARK    2  A    between atoms: C_5  and  N_7
REMARK    3  A    between atoms: C_8  and  C_10
REMARK                            x       y       z     vdW  Elec       q    Type
REMARK                         _______ _______ _______ _____ _____    ______ ____
ROOT
ATOM      1  N   UNL     1       1.228  -2.085  -0.021  0.00  0.00    -0.280 N 
ATOM      2  C   UNL     1       2.298  -2.750   0.458  0.00  0.00    +0.265 C 
ATOM      3  O   UNL     1       3.211  -2.138   0.980  0.00  0.00    -0.268 OA
ATOM      4  H   UNL     1       0.467  -2.576  -0.368  0.00  0.00    +0.155 HD
ENDROOT
BRANCH   2   5
ATOM      5  C   UNL     1       2.362  -4.215   0.349  0.00  0.00    +0.103 A 
ATOM      6  C   UNL     1       3.380  -4.994   0.798  0.00  0.00    +0.041 A 
ATOM      7  C   UNL     1       3.056  -6.340   0.502  0.00  0.00    +0.002 A 
ATOM      8  C   UNL     1       3.712  -7.559   0.721  0.00  0.00    +0.030 A 
ATOM      9  C   UNL     1       3.134  -8.725   0.311  0.00  0.00    +0.042 A 
ATOM     10  C   UNL     1       1.897  -8.716  -0.325  0.00  0.00    +0.022 A 
ATOM     11  C   UNL     1       1.234  -7.531  -0.552  0.00  0.00    +0.027 A 
ATOM     12  C   UNL     1       1.803  -6.329  -0.142  0.00  0.00    +0.047 A 
ATOM     13  N   UNL     1       1.393  -5.019  -0.220  0.00  0.00    -0.351 N 
ATOM     14  H   UNL     1       0.561  -4.709  -0.612  0.00  0.00    +0.166 HD
ATOM     15 CL   UNL     1       3.950 -10.233   0.584  0.00  0.00    -0.084 Cl
ENDBRANCH   2   5
BRANCH   1  20
ATOM     16  C   UNL     1       0.004   1.379   0.175  0.00  0.00    +0.002 A 
ATOM     17  C   UNL     1       1.175   2.088  -0.011  0.00  0.00    +0.010 A 
ATOM     18  C   UNL     1       2.377   1.411  -0.204  0.00  0.00    +0.004 A 
ATOM     19  C   UNL     1       2.395   0.018  -0.207  0.00  0.00    +0.033 A 
ATOM     20  C   UNL     1       1.215  -0.686  -0.018  0.00  0.00    +0.034 A 
ATOM     21  C   UNL     1       0.021  -0.002   0.172  0.00  0.00    +0.023 A 
BRANCH  18  22
ATOM     22  C   UNL     1       3.635   2.171  -0.405  0.00  0.00    +0.091 A 
ATOM     23  C   UNL     1       3.613   3.585  -0.396  0.00  0.00    +0.035 A 
ATOM     24  C   UNL     1       4.788   4.250  -0.584  0.00  0.00    +0.073 A 
ATOM     25  C   UNL     1       5.959   3.483  -0.777  0.00  0.00    +0.265 A 
ATOM     26  O   UNL     1       7.034   4.035  -0.949  0.00  0.00    -0.266 OA
ATOM     27  N   UNL     1       5.880   2.139  -0.769  0.00  0.00    -0.243 N 
ATOM     28  H   UNL     1       6.687   1.619  -0.902  0.00  0.00    +0.192 HD
ATOM     29  N   UNL     1       4.765   1.529  -0.585  0.00  0.00    -0.171 NA
ENDBRANCH  18  22
ENDBRANCH   1  20
TORSDOF 3
