REMARK  Name = ZINC39657685
REMARK  11 active torsions:
REMARK  status: ('A' for Active; 'I' for Inactive)
REMARK    1  A    between atoms: C_1  and  C_2
REMARK    2  A    between atoms: C_2  and  C_3
REMARK    3  A    between atoms: C_3  and  C_4
REMARK    4  A    between atoms: C_4  and  C_5
REMARK    5  A    between atoms: C_9  and  C_18
REMARK    6  A    between atoms: N_20  and  C_21
REMARK    7  A    between atoms: C_21  and  C_22
REMARK    8  A    between atoms: C_27  and  S_28
REMARK    9  A    between atoms: S_28  and  C_29
REMARK   10  A    between atoms: C_34  and  C_35
REMARK   11  A    between atoms: C_35  and  O_36
REMARK                            x       y       z     vdW  Elec       q    Type
REMARK                         _______ _______ _______ _____ _____    ______ ____
ROOT
ATOM      1  C   UNL     1      -3.489  -8.067   0.792  0.00  0.00    +0.218 C 
ATOM      2  O   UNL     1      -3.756  -8.719  -0.195  0.00  0.00    -0.275 OA
ATOM      3  N   UNL     1      -2.221  -8.021   1.246  0.00  0.00    -0.311 N 
ATOM      4  H   UNL     1      -2.008  -7.500   2.036  0.00  0.00    +0.149 HD
ENDROOT
BRANCH   1   9
ATOM      5  C   UNL     1      -7.905  -5.935   1.135  0.00  0.00    +0.216 C 
ATOM      6  O   UNL     1      -8.937  -6.186   1.721  0.00  0.00    -0.276 OA
ATOM      7  N   UNL     1      -6.893  -6.825   1.141  0.00  0.00    -0.300 N 
ATOM      8  C   UNL     1      -5.566  -6.696   0.494  0.00  0.00    +0.121 C 
ATOM      9  C   UNL     1      -4.575  -7.308   1.510  0.00  0.00    +0.100 C 
ATOM     10  C   UNL     1      -5.427  -8.264   2.362  0.00  0.00    -0.004 C 
ATOM     11  C   UNL     1      -6.853  -8.151   1.804  0.00  0.00    +0.115 C 
ATOM     12  C   UNL     1      -5.403  -7.832   3.825  0.00  0.00    -0.010 C 
ATOM     13  C   UNL     1      -6.209  -8.831   4.660  0.00  0.00    -0.082 C 
ATOM     14  N   UNL     1      -5.631 -10.172   4.515  0.00  0.00    +0.379 N 
ATOM     15  C   UNL     1      -5.742 -10.618   3.121  0.00  0.00    -0.082 C 
ATOM     16  C   UNL     1      -4.916  -9.695   2.221  0.00  0.00    -0.010 C 
ATOM     17  H   UNL     1      -4.659 -10.148   4.783  0.00  0.00    -0.086 HD
ATOM     18  H   UNL     1      -6.126 -10.817   5.113  0.00  0.00    -0.086 HD
BRANCH   5  19
ATOM     19  C   UNL     1      -7.755  -4.629   0.398  0.00  0.00    +0.096 C 
BRANCH  19  20
ATOM     20  C   UNL     1      -9.038  -3.809   0.547  0.00  0.00    +0.009 C 
BRANCH  20  22
ATOM     21  C   UNL     1     -10.169  -1.663  -0.052  0.00  0.00    +0.004 C 
ATOM     22  C   UNL     1      -8.886  -2.483  -0.201  0.00  0.00    -0.003 C 
ENDBRANCH  20  22
ENDBRANCH  19  20
ENDBRANCH   5  19
ENDBRANCH   1   9
BRANCH   3  23
ATOM     23  C   UNL     1      -1.166  -8.759   0.548  0.00  0.00    +0.140 C 
BRANCH  23  24
ATOM     24  C   UNL     1       0.149  -8.543   1.253  0.00  0.00    -0.017 A 
ATOM     25  C   UNL     1       1.053  -7.621   0.763  0.00  0.00    +0.006 A 
ATOM     26  C   UNL     1       2.259  -7.423   1.409  0.00  0.00    +0.000 A 
ATOM     27  C   UNL     1       2.565  -8.146   2.549  0.00  0.00    +0.001 A 
ATOM     28  C   UNL     1       1.666  -9.069   3.044  0.00  0.00    +0.015 A 
ATOM     29  C   UNL     1       0.450  -9.267   2.401  0.00  0.00    +0.017 A 
BRANCH  29  30
ATOM     30  S   UNL     1      -0.704 -10.439   3.034  0.00  0.00    -0.089 S 
BRANCH  30  31
ATOM     31  C   UNL     1       0.015 -10.967   4.553  0.00  0.00    +0.018 A 
ATOM     32  C   UNL     1       0.078 -10.096   5.634  0.00  0.00    +0.015 A 
ATOM     33  C   UNL     1       0.642 -10.513   6.823  0.00  0.00    +0.001 A 
ATOM     34  C   UNL     1       1.145 -11.797   6.939  0.00  0.00    +0.000 A 
ATOM     35  C   UNL     1       1.084 -12.666   5.865  0.00  0.00    +0.007 A 
ATOM     36  C   UNL     1       0.516 -12.258   4.675  0.00  0.00    -0.008 A 
BRANCH  36  37
ATOM     37  C   UNL     1       0.444 -13.208   3.508  0.00  0.00    +0.192 C 
BRANCH  37  38
ATOM     38  O   UNL     1       1.019 -14.463   3.879  0.00  0.00    -0.390 OA
ATOM     39  H   UNL     1       1.007 -15.125   3.174  0.00  0.00    +0.210 HD
ENDBRANCH  37  38
ENDBRANCH  36  37
ENDBRANCH  30  31
ENDBRANCH  29  30
ENDBRANCH  23  24
ENDBRANCH   3  23
TORSDOF 10
