REMARK  Name = ZINC00814372
REMARK  3 active torsions:
REMARK  status: ('A' for Active; 'I' for Inactive)
REMARK    1  A    between atoms: C_1  and  C_2
REMARK    2  A    between atoms: C_4  and  C_27
REMARK    3  A    between atoms: C_4  and  C_28
REMARK                            x       y       z     vdW  Elec       q    Type
REMARK                         _______ _______ _______ _____ _____    ______ ____
ROOT
ATOM      1  C   UNL     1      -2.738  -0.337   0.028  0.00  0.00    +0.044 C 
ATOM      2  C   UNL     1      -2.570   1.161   0.034  0.00  0.00    -0.043 C 
ATOM      3  C   UNL     1      -3.636   1.945   0.047  0.00  0.00    +0.002 C 
ATOM      4  C   UNL     1      -3.641   3.444   0.055  0.00  0.00    +0.055 C 
ATOM      5  N   UNL     1      -2.277   3.988   0.048  0.00  0.00    -0.262 N 
ATOM      6  C   UNL     1      -1.167   3.155   0.031  0.00  0.00    +0.047 A 
ATOM      7  C   UNL     1      -1.223   1.748   0.017  0.00  0.00    -0.001 A 
ATOM      8  C   UNL     1      -0.013   1.076   0.008  0.00  0.00    +0.010 A 
ATOM      9  C   UNL     1       1.180   1.781   0.000  0.00  0.00    +0.001 A 
ATOM     10  C   UNL     1       1.230   3.175   0.008  0.00  0.00    +0.005 A 
ATOM     11  C   UNL     1       0.029   3.854   0.024  0.00  0.00    -0.022 A 
ATOM     12  C   UNL     1      -0.367   5.293   0.040  0.00  0.00    +0.079 C 
ATOM     13  C   UNL     1      -1.886   5.276   0.055  0.00  0.00    +0.220 C 
ATOM     14  O   UNL     1      -2.613   6.247   0.072  0.00  0.00    -0.276 OA
ATOM     15  C   UNL     1       0.148   5.985   1.274  0.00  0.00    +0.022 A 
ATOM     16  C   UNL     1       0.656   7.240   1.250  0.00  0.00    -0.021 A 
ATOM     17  C   UNL     1       1.050   7.567   2.602  0.00  0.00    +0.003 A 
ATOM     18  C   UNL     1       1.627   8.705   3.175  0.00  0.00    +0.010 A 
ATOM     19  C   UNL     1       1.868   8.665   4.527  0.00  0.00    +0.001 A 
ATOM     20  C   UNL     1       1.559   7.556   5.297  0.00  0.00    +0.002 A 
ATOM     21  C   UNL     1       0.988   6.417   4.757  0.00  0.00    +0.026 A 
ATOM     22  C   UNL     1       0.732   6.429   3.387  0.00  0.00    +0.047 A 
ATOM     23  N   UNL     1       0.188   5.495   2.551  0.00  0.00    -0.358 N 
ATOM     24  H   UNL     1      -0.122   4.617   2.821  0.00  0.00    +0.166 HD
ATOM     25  C   UNL     1       0.756   8.069  -0.005  0.00  0.00    +0.018 C 
ATOM     26  C   UNL     1      -0.152   7.440  -1.070  0.00  0.00    -0.075 C 
ATOM     27  C   UNL     1      -4.368   3.934   1.309  0.00  0.00    +0.036 C 
ATOM     28  C   UNL     1      -4.387   3.947  -1.182  0.00  0.00    +0.036 C 
ATOM     29  N   UNL     1       0.119   5.990  -1.164  0.00  0.00    +0.395 N 
ATOM     30  H   UNL     1      -0.359   5.610  -1.990  0.00  0.00    -0.083 HD
ATOM     31  H   UNL     1       1.131   5.841  -1.255  0.00  0.00    -0.083 HD
ENDROOT
TORSDOF 0
