REMARK  Name = ZINC44716736
REMARK  7 active torsions:
REMARK  status: ('A' for Active; 'I' for Inactive)
REMARK    1  A    between atoms: C_1  and  C_2
REMARK    2  A    between atoms: C_2  and  C_21
REMARK    3  A    between atoms: C_3  and  C_4
REMARK    4  A    between atoms: C_6  and  C_11
REMARK    5  A    between atoms: C_8  and  C_9
REMARK    6  A    between atoms: C_8  and  C_10
REMARK    7  A    between atoms: N_13  and  N_14
REMARK                            x       y       z     vdW  Elec       q    Type
REMARK                         _______ _______ _______ _____ _____    ______ ____
ROOT
ATOM      1  C   UNL     1      -0.087  -2.248   3.603  0.00  0.00    +0.233 C 
ATOM      2  O   UNL     1       0.811  -2.929   4.050  0.00  0.00    -0.274 OA
ATOM      3  N   UNL     1      -1.134  -2.832   2.988  0.00  0.00    -0.234 N 
ATOM      4  H   UNL     1      -1.853  -2.287   2.631  0.00  0.00    +0.173 HD
ENDROOT
BRANCH   3   5
ATOM      5  N   UNL     1      -1.185  -4.227   2.865  0.00  0.00    -0.233 N 
ATOM      6  C   UNL     1      -2.260  -4.827   2.234  0.00  0.00    +0.232 A 
ATOM      7  N   UNL     1      -3.231  -4.068   1.747  0.00  0.00    -0.222 NA
ATOM      8  C   UNL     1      -4.272  -4.610   1.137  0.00  0.00    +0.116 A 
ATOM      9  C   UNL     1      -4.340  -5.989   1.012  0.00  0.00    +0.039 A 
ATOM     10  C   UNL     1      -3.308  -6.753   1.533  0.00  0.00    +0.116 A 
ATOM     11  N   UNL     1      -2.292  -6.147   2.126  0.00  0.00    -0.222 NA
ATOM     12  H   UNL     1      -0.466  -4.772   3.223  0.00  0.00    +0.173 HD
ENDBRANCH   3   5
BRANCH   1  14
ATOM     13  C   UNL     1       0.005   0.075   2.446  0.00  0.00    +0.030 C 
ATOM     14  C   UNL     1      -0.033  -0.747   3.736  0.00  0.00    +0.090 C 
ATOM     15  C   UNL     1       1.260  -0.046   3.312  0.00  0.00    -0.016 C 
ATOM     16  C   UNL     1       1.689   1.187   4.110  0.00  0.00    +0.012 C 
ATOM     17  C   UNL     1       2.400  -0.922   2.786  0.00  0.00    +0.012 C 
BRANCH  13  20
ATOM     18  C   UNL     1      -0.301   1.472   0.019  0.00  0.00    +0.038 C 
ATOM     19  C   UNL     1      -0.157  -0.028   0.012  0.00  0.00    -0.079 C 
ATOM     20  C   UNL     1      -0.015  -0.678   1.140  0.00  0.00    -0.023 C 
ATOM     21  C   UNL     1      -0.177  -0.780  -1.294  0.00  0.00    +0.038 C 
ENDBRANCH  13  20
ENDBRANCH   1  14
TORSDOF 3
