REMARK  Name = ZINC19213707
REMARK  6 active torsions:
REMARK  status: ('A' for Active; 'I' for Inactive)
REMARK    1  A    between atoms: C_1  and  C_2
REMARK    2  A    between atoms: C_5  and  C_9
REMARK    3  A    between atoms: C_7  and  C_8
REMARK    4  A    between atoms: C_15  and  C_17
REMARK    5  A    between atoms: C_17  and  C_18
REMARK    6  A    between atoms: N_22  and  C_26
REMARK                            x       y       z     vdW  Elec       q    Type
REMARK                         _______ _______ _______ _____ _____    ______ ____
ROOT
ATOM      1  C   UNL     1      -0.018   1.466   0.010  0.00  0.00    +0.106 C 
ATOM      2  C   UNL     1       1.449   1.944  -0.001  0.00  0.00    +0.029 C 
ATOM      3  C   UNL     1       2.208   0.724  -0.586  0.00  0.00    +0.021 C 
ATOM      4  C   UNL     1       1.405  -0.458   0.012  0.00  0.00    +0.108 C 
ATOM      5  N   UNL     1       0.002  -0.004   0.002  0.00  0.00    -0.294 N 
ATOM      6  C   UNL     1      -1.082  -0.804  -0.013  0.00  0.00    +0.218 C 
ATOM      7  O   UNL     1      -2.194  -0.319  -0.021  0.00  0.00    -0.276 OA
ENDROOT
BRANCH   1  12
ATOM      8  C   UNL     1      -2.668   3.369   4.779  0.00  0.00    +0.044 C 
ATOM      9  C   UNL     1      -1.977   2.873   3.536  0.00  0.00    -0.048 A 
ATOM     10  C   UNL     1      -1.125   1.786   3.605  0.00  0.00    +0.004 A 
ATOM     11  C   UNL     1      -0.495   1.328   2.463  0.00  0.00    +0.006 A 
ATOM     12  C   UNL     1      -0.709   1.962   1.254  0.00  0.00    -0.027 A 
ATOM     13  C   UNL     1      -1.561   3.049   1.184  0.00  0.00    +0.009 A 
ATOM     14  C   UNL     1      -2.195   3.504   2.325  0.00  0.00    -0.047 A 
ATOM     15  C   UNL     1      -3.124   4.688   2.250  0.00  0.00    +0.044 C 
ENDBRANCH   1  12
BRANCH   6  16
ATOM     16  C   UNL     1      -0.914  -2.302  -0.020  0.00  0.00    +0.127 C 
BRANCH  16  17
ATOM     17  C   UNL     1      -2.290  -2.970  -0.037  0.00  0.00    +0.170 C 
ATOM     18  C   UNL     1      -2.150  -4.479  -0.059  0.00  0.00    +0.244 C 
ATOM     19  O   UNL     1      -1.619  -5.152  -0.916  0.00  0.00    -0.273 OA
ATOM     20  N   UNL     1      -2.739  -4.917   1.071  0.00  0.00    -0.221 N 
ATOM     21  C   UNL     1      -3.226  -3.904   1.798  0.00  0.00    +0.309 C 
ATOM     22  O   UNL     1      -3.801  -4.049   2.858  0.00  0.00    -0.252 OA
ATOM     23  N   UNL     1      -3.009  -2.708   1.222  0.00  0.00    -0.287 N 
ATOM     24  H   UNL     1      -3.256  -1.675   1.510  0.00  0.00    +0.151 HD
BRANCH  20  25
ATOM     25  C   UNL     1      -2.833  -6.327   1.458  0.00  0.00    +0.086 C 
ATOM     26  C   UNL     1      -4.305  -6.722   1.591  0.00  0.00    +0.023 C 
ATOM     27  C   UNL     1      -4.403  -8.194   1.995  0.00  0.00    +0.002 C 
ATOM     28  C   UNL     1      -3.695  -8.404   3.335  0.00  0.00    +0.000 C 
ATOM     29  C   UNL     1      -2.223  -8.009   3.201  0.00  0.00    +0.002 C 
ATOM     30  C   UNL     1      -2.125  -6.537   2.798  0.00  0.00    +0.023 C 
ENDBRANCH  20  25
ENDBRANCH  16  17
ENDBRANCH   6  16
TORSDOF 4
