REMARK  Name = ZINC48770188
REMARK  5 active torsions:
REMARK  status: ('A' for Active; 'I' for Inactive)
REMARK    1  A    between atoms: C_1  and  C_2
REMARK    2  A    between atoms: C_2  and  C_3
REMARK    3  A    between atoms: C_3  and  C_4
REMARK    4  A    between atoms: C_4  and  C_5
REMARK    5  A    between atoms: C_5  and  C_6
REMARK                            x       y       z     vdW  Elec       q    Type
REMARK                         _______ _______ _______ _____ _____    ______ ____
ROOT
ATOM      1  C   UNL     1       1.476  -4.028  -2.532  0.00  0.00    +0.104 A 
ATOM      2  N   UNL     1       0.610  -4.882  -3.039  0.00  0.00    -0.145 NA
ATOM      3  N   UNL     1       0.832  -6.121  -2.929  0.00  0.00    -0.126 NA
ATOM      4  C   UNL     1       1.906  -6.585  -2.321  0.00  0.00    +0.189 A 
ATOM      5  S   UNL     1       2.685  -5.161  -1.864  0.00  0.00    -0.035 S 
ATOM      6  N   UNL     1       2.297  -7.904  -2.116  0.00  0.00    -0.247 N 
ATOM      7  C   UNL     1       1.527  -8.913  -2.570  0.00  0.00    +0.308 C 
ATOM      8  O   UNL     1       0.492  -8.671  -3.159  0.00  0.00    -0.252 OA
ATOM      9  N   UNL     1       1.906 -10.191  -2.370  0.00  0.00    -0.282 N 
ATOM     10  C   UNL     1       3.124 -10.652  -1.672  0.00  0.00    +0.113 C 
ATOM     11  C   UNL     1       3.054 -12.210  -1.710  0.00  0.00    +0.008 C 
ATOM     12  C   UNL     1       3.334 -12.563  -3.204  0.00  0.00    +0.007 C 
ATOM     13  C   UNL     1       2.099 -12.018  -3.959  0.00  0.00    +0.023 C 
ATOM     14  C   UNL     1       1.173 -11.415  -2.806  0.00  0.00    +0.078 C 
ATOM     15  C   UNL     1       1.496 -12.400  -1.633  0.00  0.00    +0.027 C 
ATOM     16  H   UNL     1       3.123  -8.097  -1.646  0.00  0.00    +0.158 HD
ENDROOT
BRANCH   1  17
ATOM     17  C   UNL     1       1.455  -2.521  -2.524  0.00  0.00    +0.065 C 
BRANCH  17  18
ATOM     18  C   UNL     1       0.739  -2.027  -1.265  0.00  0.00    +0.007 C 
BRANCH  18  19
ATOM     19  C   UNL     1       0.718  -0.497  -1.257  0.00  0.00    +0.000 C 
BRANCH  19  21
ATOM     20  C   UNL     1      -0.019   1.526   0.010  0.00  0.00    +0.004 C 
ATOM     21  C   UNL     1       0.002  -0.004   0.002  0.00  0.00    -0.003 C 
ENDBRANCH  19  21
ENDBRANCH  18  19
ENDBRANCH  17  18
ENDBRANCH   1  17
TORSDOF 4
