REMARK  Name = ZINC44783392
REMARK  4 active torsions:
REMARK  status: ('A' for Active; 'I' for Inactive)
REMARK    1  A    between atoms: C_4  and  C_7
REMARK    2  A    between atoms: C_4  and  C_11
REMARK    3  A    between atoms: N_8  and  O_9
REMARK    4  A    between atoms: N_13  and  C_14
REMARK                            x       y       z     vdW  Elec       q    Type
REMARK                         _______ _______ _______ _____ _____    ______ ____
ROOT
ATOM      1  C   UNL     1      -0.016   1.389  -0.145  0.00  0.00    +0.000 C 
ATOM      2  C   UNL     1       1.399   1.970  -0.122  0.00  0.00    +0.001 C 
ATOM      3  C   UNL     1       2.103   1.548   1.168  0.00  0.00    +0.024 C 
ATOM      4  C   UNL     1       2.178   0.021   1.232  0.00  0.00    +0.105 C 
ATOM      5  C   UNL     1       0.763  -0.561   1.209  0.00  0.00    +0.024 C 
ATOM      6  C   UNL     1       0.059  -0.138  -0.081  0.00  0.00    +0.001 C 
ENDROOT
BRANCH   4   7
ATOM      7  C   UNL     1       2.873  -0.396   2.503  0.00  0.00    +0.147 C 
ATOM      8  N   UNL     1       4.119  -0.107   2.683  0.00  0.00    -0.076 NA
ATOM      9  N   UNL     1       2.178  -1.083   3.474  0.00  0.00    -0.343 N 
ATOM     10  H   UNL     1       1.225  -1.235   3.372  0.00  0.00    +0.144 HD
ATOM     11  H   UNL     1       2.642  -1.416   4.258  0.00  0.00    +0.144 HD
BRANCH   8  12
ATOM     12  O   UNL     1       4.805   0.688   1.734  0.00  0.00    -0.408 OA
ATOM     13  H   UNL     1       5.733   0.850   1.954  0.00  0.00    +0.328 HD
ENDBRANCH   8  12
ENDBRANCH   4   7
BRANCH   4  14
ATOM     14  C   UNL     1       2.952  -0.494   0.045  0.00  0.00    +0.227 C 
ATOM     15  O   UNL     1       3.502   0.285  -0.704  0.00  0.00    -0.275 OA
ATOM     16  N   UNL     1       3.033  -1.820  -0.183  0.00  0.00    -0.312 N 
ATOM     17  H   UNL     1       2.534  -2.439   0.373  0.00  0.00    +0.149 HD
BRANCH  16  18
ATOM     18  C   UNL     1       3.875  -2.326  -1.269  0.00  0.00    +0.073 C 
ATOM     19  C   UNL     1       3.297  -3.433  -2.154  0.00  0.00    +0.024 C 
ATOM     20  C   UNL     1       4.402  -3.757  -1.146  0.00  0.00    +0.024 C 
ENDBRANCH  16  18
ENDBRANCH   4  14
TORSDOF 4
