REMARK  Name = ZINC67296615
REMARK  4 active torsions:
REMARK  status: ('A' for Active; 'I' for Inactive)
REMARK    1  A    between atoms: C_1  and  C_2
REMARK    2  A    between atoms: C_9  and  C_11
REMARK    3  A    between atoms: N_21  and  C_22
REMARK    4  A    between atoms: C_26  and  C_28
REMARK                            x       y       z     vdW  Elec       q    Type
REMARK                         _______ _______ _______ _____ _____    ______ ____
ROOT
ATOM      1  C   UNL     1      -0.171  -6.284  -0.944  0.00  0.00    +0.098 A 
ATOM      2  C   UNL     1      -0.157  -7.044  -2.106  0.00  0.00    +0.030 A 
ATOM      3  C   UNL     1      -0.206  -8.501  -1.958  0.00  0.00    +0.018 A 
ATOM      4  C   UNL     1       0.070  -9.341  -3.043  0.00  0.00    +0.011 A 
ATOM      5  C   UNL     1       0.021 -10.697  -2.879  0.00  0.00    +0.001 A 
ATOM      6  C   UNL     1      -0.298 -11.247  -1.647  0.00  0.00    +0.004 A 
ATOM      7  C   UNL     1      -0.576 -10.436  -0.564  0.00  0.00    +0.047 A 
ATOM      8  C   UNL     1      -0.534  -9.057  -0.708  0.00  0.00    +0.137 A 
ATOM      9  O   UNL     1      -0.810  -8.245   0.341  0.00  0.00    -0.439 OA
ATOM     10  C   UNL     1      -0.228  -7.015   0.337  0.00  0.00    +0.212 A 
ATOM     11  N   UNL     1       0.265  -6.492   1.439  0.00  0.00    -0.325 N 
ATOM     12  H   UNL     1       0.763  -5.661   1.400  0.00  0.00    +0.169 HD
ENDROOT
BRANCH   1  21
ATOM     13  C   UNL     1      -0.428   1.518   0.026  0.00  0.00    +0.045 C 
ATOM     14  C   UNL     1      -0.370   0.013   0.024  0.00  0.00    -0.032 A 
ATOM     15  C   UNL     1       0.211  -0.666  -1.039  0.00  0.00    +0.008 A 
ATOM     16  C   UNL     1       0.243  -2.049  -1.001  0.00  0.00    +0.044 A 
ATOM     17  C   UNL     1      -0.305  -2.708   0.094  0.00  0.00    +0.125 A 
ATOM     18  N   UNL     1      -0.850  -2.025   1.088  0.00  0.00    -0.240 NA
ATOM     19  C   UNL     1      -0.890  -0.706   1.082  0.00  0.00    +0.116 A 
ATOM     20  N   UNL     1      -0.280  -4.100   0.145  0.00  0.00    -0.266 N 
ATOM     21  C   UNL     1      -0.124  -4.813  -0.988  0.00  0.00    +0.254 C 
ATOM     22  O   UNL     1       0.054  -4.241  -2.046  0.00  0.00    -0.270 OA
ATOM     23  H   UNL     1      -0.374  -4.556   0.996  0.00  0.00    +0.157 HD
ENDBRANCH   1  21
BRANCH  11  24
ATOM     24  C   UNL     1       0.074  -7.120   2.639  0.00  0.00    +0.042 A 
ATOM     25  C   UNL     1      -1.184  -7.627   2.974  0.00  0.00    +0.028 A 
ATOM     26  C   UNL     1      -1.370  -8.259   4.185  0.00  0.00    +0.040 A 
ATOM     27  C   UNL     1      -0.312  -8.392   5.070  0.00  0.00    +0.126 A 
ATOM     28  C   UNL     1       0.938  -7.891   4.744  0.00  0.00    -0.013 A 
ATOM     29  C   UNL     1       1.138  -7.262   3.533  0.00  0.00    +0.031 A 
ATOM     30  C   UNL     1       2.083  -8.040   5.712  0.00  0.00    +0.047 C 
ATOM     31  F   UNL     1      -0.500  -9.013   6.255  0.00  0.00    -0.205 F 
ENDBRANCH  11  24
TORSDOF 2
