REMARK  Name = ZINC13425722
REMARK  4 active torsions:
REMARK  status: ('A' for Active; 'I' for Inactive)
REMARK    1  A    between atoms: C_6  and  N_7
REMARK    2  A    between atoms: C_9  and  C_14
REMARK    3  A    between atoms: N_16  and  C_17
REMARK    4  A    between atoms: C_22  and  C_23
REMARK                            x       y       z     vdW  Elec       q    Type
REMARK                         _______ _______ _______ _____ _____    ______ ____
ROOT
ATOM      1  N   UNL     1      -3.013   6.583  -1.959  0.00  0.00    -0.271 N 
ATOM      2  C   UNL     1      -3.367   7.542  -3.012  0.00  0.00    +0.127 C 
ATOM      3  C   UNL     1      -3.764   8.838  -2.269  0.00  0.00    +0.102 C 
ATOM      4  C   UNL     1      -2.974   8.697  -0.948  0.00  0.00    +0.110 C 
ATOM      5  C   UNL     1      -2.778   7.205  -0.791  0.00  0.00    +0.221 C 
ATOM      6  O   UNL     1      -2.454   6.651   0.238  0.00  0.00    -0.275 OA
ENDROOT
BRANCH   1  12
ATOM      7  C   UNL     1      -3.302   4.637  -3.361  0.00  0.00    +0.027 A 
ATOM      8  C   UNL     1      -3.216   3.270  -3.548  0.00  0.00    +0.051 A 
ATOM      9  C   UNL     1      -2.754   2.455  -2.526  0.00  0.00    +0.162 A 
ATOM     10  C   UNL     1      -2.374   3.014  -1.311  0.00  0.00    +0.164 A 
ATOM     11  C   UNL     1      -2.461   4.385  -1.124  0.00  0.00    +0.073 A 
ATOM     12  C   UNL     1      -2.925   5.197  -2.149  0.00  0.00    +0.040 A 
ATOM     13  O   UNL     1      -1.910   2.231  -0.299  0.00  0.00    -0.485 OA
ATOM     14  C   UNL     1      -2.185   0.829  -0.391  0.00  0.00    +0.270 C 
ATOM     15  C   UNL     1      -1.860   0.368  -1.818  0.00  0.00    +0.270 C 
ATOM     16  O   UNL     1      -2.680   1.110  -2.727  0.00  0.00    -0.485 OA
ENDBRANCH   1  12
BRANCH   3  17
ATOM     17  C   UNL     1      -3.316  10.055  -3.038  0.00  0.00    +0.222 C 
ATOM     18  O   UNL     1      -2.832   9.929  -4.143  0.00  0.00    -0.275 OA
ATOM     19  N   UNL     1      -3.453  11.282  -2.498  0.00  0.00    -0.284 N 
ATOM     20  H   UNL     1      -3.763  11.377  -1.584  0.00  0.00    +0.155 HD
BRANCH  19  21
ATOM     21  C   UNL     1      -3.148  12.412  -3.251  0.00  0.00    +0.049 A 
ATOM     22  C   UNL     1      -2.030  12.422  -4.074  0.00  0.00    +0.044 A 
ATOM     23  C   UNL     1      -1.733  13.543  -4.824  0.00  0.00    +0.043 A 
ATOM     24  C   UNL     1      -2.541  14.669  -4.754  0.00  0.00    +0.021 A 
ATOM     25  C   UNL     1      -3.651  14.679  -3.940  0.00  0.00    +0.018 A 
ATOM     26  C   UNL     1      -3.967  13.550  -3.179  0.00  0.00    +0.084 A 
ATOM     27 CL   UNL     1      -0.337  13.546  -5.856  0.00  0.00    -0.083 Cl
BRANCH  26  28
ATOM     28  C   UNL     1      -5.154  13.554  -2.305  0.00  0.00    +0.388 C 
ATOM     29  O   UNL     1      -5.441  12.562  -1.666  0.00  0.00    -0.241 OA
ATOM     30  O   UNL     1      -5.921  14.658  -2.216  0.00  0.00    -0.241 OA
ENDBRANCH  26  28
ENDBRANCH  19  21
ENDBRANCH   3  17
TORSDOF 4
