REMARK  Name = ZINC31823562
REMARK  11 active torsions:
REMARK  status: ('A' for Active; 'I' for Inactive)
REMARK    1  A    between atoms: C_1  and  C_2
REMARK    2  A    between atoms: C_3  and  C_27
REMARK    3  A    between atoms: C_7  and  N_26
REMARK    4  A    between atoms: C_9  and  S_11
REMARK    5  A    between atoms: S_11  and  C_12
REMARK    6  A    between atoms: C_12  and  C_14
REMARK    7  A    between atoms: C_12  and  C_15
REMARK    8  A    between atoms: N_17  and  C_18
REMARK    9  A    between atoms: N_17  and  C_19
REMARK   10  A    between atoms: C_19  and  C_20
REMARK   11  A    between atoms: N_22  and  C_23
REMARK                            x       y       z     vdW  Elec       q    Type
REMARK                         _______ _______ _______ _____ _____    ______ ____
ROOT
ATOM      1  S   UNL     1       1.002   3.852   0.711  0.00  0.00    -0.073 S 
ENDROOT
BRANCH   1  10
ATOM      2  C   UNL     1       0.391  -3.050   0.893  0.00  0.00    +0.045 C 
ATOM      3  C   UNL     1       1.521  -2.057   0.800  0.00  0.00    -0.028 A 
ATOM      4  C   UNL     1       2.791  -2.480   0.729  0.00  0.00    -0.008 A 
ATOM      5  S   UNL     1       3.730  -0.966   0.639  0.00  0.00    -0.073 S 
ATOM      6  C   UNL     1       2.390   0.194   0.699  0.00  0.00    +0.115 A 
ATOM      7  C   UNL     1       1.246  -0.630   0.788  0.00  0.00    +0.050 A 
ATOM      8  C   UNL     1       0.001   0.056   0.853  0.00  0.00    +0.129 A 
ATOM      9  N   UNL     1      -0.012   1.377   0.826  0.00  0.00    -0.207 NA
ATOM     10  C   UNL     1       1.103   2.093   0.741  0.00  0.00    +0.192 A 
ATOM     11  N   UNL     1       2.292   1.508   0.677  0.00  0.00    -0.214 NA
ATOM     12  C   UNL     1       3.304  -3.897   0.727  0.00  0.00    +0.052 C 
BRANCH   8  13
ATOM     13  N   UNL     1      -1.183  -0.653   0.942  0.00  0.00    -0.343 N 
ATOM     14  H   UNL     1      -2.142  -0.118   0.992  0.00  0.00    +0.144 HD
ATOM     15  H   UNL     1      -1.165  -1.753   0.964  0.00  0.00    +0.144 HD
ENDBRANCH   8  13
ENDBRANCH   1  10
BRANCH   1  16
ATOM     16  C   UNL     1      -0.792   4.065   0.819  0.00  0.00    +0.137 C 
ATOM     17  C   UNL     1      -1.451   3.493  -0.438  0.00  0.00    +0.029 C 
BRANCH  16  18
ATOM     18  C   UNL     1      -1.117   5.532   0.933  0.00  0.00    +0.229 C 
ATOM     19  O   UNL     1      -0.344   6.360   0.502  0.00  0.00    -0.274 OA
ATOM     20  N   UNL     1      -2.268   5.924   1.515  0.00  0.00    -0.295 N 
ATOM     21  C   UNL     1      -3.203   4.924   2.036  0.00  0.00    +0.132 C 
BRANCH  20  22
ATOM     22  C   UNL     1      -2.585   7.350   1.625  0.00  0.00    +0.203 C 
BRANCH  22  23
ATOM     23  C   UNL     1      -3.346   7.792   0.403  0.00  0.00    +0.231 C 
ATOM     24  O   UNL     1      -3.600   6.995  -0.475  0.00  0.00    -0.274 OA
ATOM     25  N   UNL     1      -3.745   9.074   0.284  0.00  0.00    -0.311 N 
ATOM     26  H   UNL     1      -3.515   9.798   1.080  0.00  0.00    +0.149 HD
BRANCH  25  27
ATOM     27  C   UNL     1      -4.486   9.504  -0.905  0.00  0.00    +0.073 C 
ATOM     28  C   UNL     1      -4.083  10.834  -1.545  0.00  0.00    +0.024 C 
ATOM     29  C   UNL     1      -5.397  10.725  -0.766  0.00  0.00    +0.024 C 
ENDBRANCH  25  27
ENDBRANCH  22  23
ENDBRANCH  20  22
ENDBRANCH  16  18
ENDBRANCH   1  16
TORSDOF 7
