REMARK  Name = ZINC01075158
REMARK  5 active torsions:
REMARK  status: ('A' for Active; 'I' for Inactive)
REMARK    1  A    between atoms: C_1  and  C_2
REMARK    2  A    between atoms: C_2  and  N_3
REMARK    3  A    between atoms: C_14  and  C_25
REMARK    4  A    between atoms: C_20  and  N_24
REMARK    5  A    between atoms: C_21  and  C_22
REMARK                            x       y       z     vdW  Elec       q    Type
REMARK                         _______ _______ _______ _____ _____    ______ ____
ROOT
ATOM      1  N   UNL     1      -1.096  -0.202  -1.231  0.00  0.00    -0.270 N 
ATOM      2  C   UNL     1      -1.351  -0.797  -0.007  0.00  0.00    +0.041 A 
ATOM      3  C   UNL     1      -0.559  -0.838   1.141  0.00  0.00    +0.025 A 
ATOM      4  C   UNL     1      -1.068  -1.512   2.239  0.00  0.00    +0.017 A 
ATOM      5  C   UNL     1      -2.306  -2.123   2.213  0.00  0.00    +0.018 A 
ATOM      6  C   UNL     1      -3.105  -2.090   1.075  0.00  0.00    +0.022 A 
ATOM      7  C   UNL     1      -2.605  -1.421  -0.022  0.00  0.00    -0.000 A 
ATOM      8  C   UNL     1      -3.172  -1.186  -1.385  0.00  0.00    +0.145 C 
ATOM      9  C   UNL     1      -2.115  -0.373  -2.099  0.00  0.00    +0.240 C 
ATOM     10  O   UNL     1      -2.171   0.043  -3.237  0.00  0.00    -0.274 OA
ATOM     11  C   UNL     1      -4.461  -0.417  -1.316  0.00  0.00    +0.066 A 
ATOM     12  C   UNL     1      -4.689   0.911  -0.944  0.00  0.00    +0.101 A 
ATOM     13  N   UNL     1      -5.985   1.143  -1.038  0.00  0.00    -0.171 NA
ATOM     14  N   UNL     1      -6.614  -0.034  -1.473  0.00  0.00    -0.246 N 
ATOM     15  H   UNL     1      -7.565  -0.148  -1.628  0.00  0.00    +0.192 HD
ATOM     16  C   UNL     1      -5.665  -0.978  -1.639  0.00  0.00    +0.224 A 
ATOM     17  O   UNL     1      -5.785  -2.266  -2.043  0.00  0.00    -0.423 OA
ATOM     18  C   UNL     1      -4.661  -2.930  -2.382  0.00  0.00    +0.201 C 
ATOM     19  C   UNL     1      -3.413  -2.483  -2.107  0.00  0.00    +0.110 C 
ATOM     20 BR   UNL     1      -2.927  -3.023   3.755  0.00  0.00    -0.050 Br
ENDROOT
BRANCH  12  21
ATOM     21  C   UNL     1      -3.656   1.888  -0.518  0.00  0.00    +0.003 A 
ATOM     22  C   UNL     1      -2.788   1.576   0.525  0.00  0.00    +0.010 A 
ATOM     23  C   UNL     1      -1.829   2.488   0.918  0.00  0.00    +0.001 A 
ATOM     24  C   UNL     1      -1.730   3.710   0.278  0.00  0.00    +0.000 A 
ATOM     25  C   UNL     1      -2.590   4.025  -0.759  0.00  0.00    +0.001 A 
ATOM     26  C   UNL     1      -3.549   3.118  -1.163  0.00  0.00    +0.010 A 
ENDBRANCH  12  21
BRANCH  18  27
ATOM     27  N   UNL     1      -4.790  -4.126  -3.044  0.00  0.00    -0.328 N 
ATOM     28  H   UNL     1      -5.671  -4.471  -3.255  0.00  0.00    +0.145 HD
ATOM     29  H   UNL     1      -3.999  -4.626  -3.300  0.00  0.00    +0.145 HD
ENDBRANCH  18  27
BRANCH   1  31
ATOM     30  C   UNL     1      -0.010   1.984  -1.079  0.00  0.00    +0.025 C 
ATOM     31  C   UNL     1       0.132   0.534  -1.543  0.00  0.00    +0.110 C 
ENDBRANCH   1  31
BRANCH  19  32
ATOM     32  C   UNL     1      -2.289  -3.269  -2.516  0.00  0.00    +0.102 C 
ATOM     33  N   UNL     1      -1.396  -3.893  -2.840  0.00  0.00    -0.191 NA
ENDBRANCH  19  32
TORSDOF 4
