REMARK  Name = ZINC15129229
REMARK  8 active torsions:
REMARK  status: ('A' for Active; 'I' for Inactive)
REMARK    1  A    between atoms: C_4  and  C_7
REMARK    2  A    between atoms: C_7  and  C_9
REMARK    3  A    between atoms: C_7  and  N_49
REMARK    4  A    between atoms: C_9  and  N_10
REMARK    5  A    between atoms: N_10  and  C_11
REMARK    6  A    between atoms: C_14  and  S_20
REMARK    7  A    between atoms: C_16  and  N_17
REMARK    8  A    between atoms: S_20  and  N_23
REMARK                            x       y       z     vdW  Elec       q    Type
REMARK                         _______ _______ _______ _____ _____    ______ ____
ROOT
ATOM      1  N   UNL     1       1.536  -0.184   1.781  0.00  0.00    -0.343 N 
ATOM      2  H   UNL     1       2.080  -0.641   2.441  0.00  0.00    +0.146 HD
ENDROOT
BRANCH   1   3
ATOM      3  C   UNL     1       0.164  -0.029   1.995  0.00  0.00    +0.058 A 
ATOM      4  C   UNL     1      -0.600   0.713   1.103  0.00  0.00    +0.027 A 
ATOM      5  C   UNL     1      -1.955   0.868   1.319  0.00  0.00    +0.030 A 
ATOM      6  C   UNL     1      -2.553   0.277   2.417  0.00  0.00    +0.107 A 
ATOM      7  C   UNL     1      -1.796  -0.463   3.306  0.00  0.00    +0.063 A 
ATOM      8  C   UNL     1      -0.440  -0.618   3.099  0.00  0.00    +0.149 A 
BRANCH   8   9
ATOM      9  N   UNL     1       0.370  -1.410   4.051  0.00  0.00    +0.058 N 
ATOM     10  O   UNL     1       1.266  -2.126   3.641  0.00  0.00    -0.126 OA
ATOM     11  O   UNL     1       0.140  -1.346   5.246  0.00  0.00    -0.126 OA
ENDBRANCH   8   9
BRANCH   6  12
ATOM     12  S   UNL     1      -4.284   0.472   2.685  0.00  0.00    +0.056 S 
ATOM     13  O   UNL     1      -4.863   0.751   1.418  0.00  0.00    -0.153 OA
ATOM     14  O   UNL     1      -4.697  -0.627   3.486  0.00  0.00    -0.153 OA
BRANCH  12  15
ATOM     15  N   UNL     1      -4.486   1.832   3.608  0.00  0.00    -0.204 NA
ATOM     16  H   UNL     1      -3.713   2.346   3.889  0.00  0.00    +0.144 HD
ATOM     17  H   UNL     1      -5.377   2.114   3.868  0.00  0.00    +0.144 HD
ENDBRANCH  12  15
ENDBRANCH   6  12
ENDBRANCH   1   3
BRANCH   1  18
ATOM     18  C   UNL     1       2.151   0.343   0.561  0.00  0.00    +0.091 C 
BRANCH  18  19
ATOM     19  C   UNL     1       3.623  -0.071   0.513  0.00  0.00    -0.020 C 
BRANCH  19  23
ATOM     20  C   UNL     1       3.894  -4.308   0.038  0.00  0.00    +0.000 A 
ATOM     21  C   UNL     1       4.060  -3.740   1.288  0.00  0.00    +0.000 A 
ATOM     22  C   UNL     1       3.972  -2.369   1.441  0.00  0.00    +0.002 A 
ATOM     23  C   UNL     1       3.719  -1.566   0.345  0.00  0.00    -0.059 A 
ATOM     24  C   UNL     1       3.548  -2.134  -0.903  0.00  0.00    +0.002 A 
ATOM     25  C   UNL     1       3.640  -3.504  -1.058  0.00  0.00    +0.000 A 
ENDBRANCH  19  23
BRANCH  19  30
ATOM     26  C   UNL     1       4.161   2.068  -0.517  0.00  0.00    -0.078 C 
ATOM     27  C   UNL     1       5.303   2.582  -1.430  0.00  0.00    -0.020 C 
ATOM     28  C   UNL     1       6.437   1.564  -1.171  0.00  0.00    -0.020 C 
ATOM     29  C   UNL     1       5.733   0.305  -0.633  0.00  0.00    -0.078 C 
ATOM     30  N   UNL     1       4.301   0.608  -0.632  0.00  0.00    +0.385 N 
ATOM     31  H   UNL     1       3.878   0.288  -1.512  0.00  0.00    -0.081 HD
ENDBRANCH  19  30
ENDBRANCH  18  19
ENDBRANCH   1  18
TORSDOF 8
