REMARK  Name = ZINC08685014
REMARK  8 active torsions:
REMARK  status: ('A' for Active; 'I' for Inactive)
REMARK    1  A    between atoms: C_1  and  C_2
REMARK    2  A    between atoms: C_5  and  N_8
REMARK    3  A    between atoms: N_8  and  C_9
REMARK    4  A    between atoms: C_9  and  N_10
REMARK    5  A    between atoms: N_10  and  N_11
REMARK    6  A    between atoms: C_12  and  C_14
REMARK    7  A    between atoms: C_16  and  C_20
REMARK    8  A    between atoms: N_18  and  C_19
REMARK                            x       y       z     vdW  Elec       q    Type
REMARK                         _______ _______ _______ _____ _____    ______ ____
ROOT
ATOM      1  N   UNL     1       0.254  -6.182   1.111  0.00  0.00    -0.245 N 
ATOM      2  H   UNL     1       0.362  -6.664   1.946  0.00  0.00    +0.172 HD
ENDROOT
BRANCH   1   3
ATOM      3  N   UNL     1       0.260  -6.878  -0.105  0.00  0.00    -0.230 N 
ATOM      4  C   UNL     1       0.416  -8.217  -0.114  0.00  0.00    +0.280 C 
ATOM      5  O   UNL     1       0.462  -8.831   0.934  0.00  0.00    -0.267 OA
ATOM      6  H   UNL     1       0.153  -6.396  -0.940  0.00  0.00    +0.173 HD
BRANCH   4   7
ATOM      7  C   UNL     1       0.530  -8.934  -1.393  0.00  0.00    +0.143 A 
ATOM      8  C   UNL     1       1.697  -9.247  -2.070  0.00  0.00    +0.094 A 
ATOM      9  C   UNL     1       1.286  -9.925  -3.221  0.00  0.00    +0.079 A 
ATOM     10  N   UNL     1      -0.021  -9.994  -3.202  0.00  0.00    -0.175 NA
ATOM     11  N   UNL     1      -0.495  -9.432  -2.149  0.00  0.00    -0.261 N 
ATOM     12  C   UNL     1      -1.917  -9.336  -1.812  0.00  0.00    +0.173 C 
ATOM     13  C   UNL     1       2.188 -10.479  -4.294  0.00  0.00    +0.069 C 
ATOM     14 CL   UNL     1       3.324  -8.876  -1.591  0.00  0.00    -0.079 Cl
ENDBRANCH   4   7
ENDBRANCH   1   3
BRANCH   1  15
ATOM     15  C   UNL     1       0.099  -4.843   1.121  0.00  0.00    +0.151 C 
ATOM     16  S   UNL     1       0.092  -3.994   2.607  0.00  0.00    -0.017 S 
BRANCH  15  17
ATOM     17  N   UNL     1      -0.051  -4.174  -0.039  0.00  0.00    -0.296 N 
ATOM     18  H   UNL     1      -0.131  -4.662  -0.873  0.00  0.00    +0.154 HD
BRANCH  17  23
ATOM     19  C   UNL     1      -0.210   1.497  -0.042  0.00  0.00    +0.044 C 
ATOM     20  C   UNL     1      -0.168  -0.010  -0.041  0.00  0.00    -0.050 A 
ATOM     21  C   UNL     1       0.733  -0.674   0.771  0.00  0.00    +0.005 A 
ATOM     22  C   UNL     1       0.774  -2.055   0.774  0.00  0.00    +0.023 A 
ATOM     23  C   UNL     1      -0.090  -2.776  -0.039  0.00  0.00    +0.033 A 
ATOM     24  C   UNL     1      -0.994  -2.105  -0.854  0.00  0.00    +0.023 A 
ATOM     25  C   UNL     1      -1.034  -0.725  -0.848  0.00  0.00    +0.005 A 
ENDBRANCH  17  23
ENDBRANCH  15  17
ENDBRANCH   1  15
TORSDOF 5
