REMARK  Name = ZINC41295655
REMARK  7 active torsions:
REMARK  status: ('A' for Active; 'I' for Inactive)
REMARK    1  A    between atoms: C_5  and  C_7
REMARK    2  A    between atoms: C_7  and  C_8
REMARK    3  A    between atoms: C_8  and  N_9
REMARK    4  A    between atoms: C_10  and  C_12
REMARK    5  A    between atoms: C_12  and  C_13
REMARK    6  A    between atoms: C_13  and  C_15
REMARK    7  A    between atoms: C_13  and  N_22
REMARK                            x       y       z     vdW  Elec       q    Type
REMARK                         _______ _______ _______ _____ _____    ______ ____
ROOT
ATOM      1  C   UNL     1       3.632  -6.759  -3.331  0.00  0.00    +0.113 C 
ENDROOT
BRANCH   1   2
ATOM      2  C   UNL     1       3.184  -8.198  -3.324  0.00  0.00    -0.026 A 
ATOM      3  C   UNL     1       2.076  -8.580  -4.056  0.00  0.00    +0.005 A 
ATOM      4  C   UNL     1       1.665  -9.900  -4.050  0.00  0.00    +0.001 A 
ATOM      5  C   UNL     1       2.362 -10.838  -3.311  0.00  0.00    +0.015 A 
ATOM      6  C   UNL     1       3.471 -10.456  -2.579  0.00  0.00    +0.018 A 
ATOM      7  C   UNL     1       3.885  -9.136  -2.590  0.00  0.00    +0.020 A 
ATOM      8 BR   UNL     1       4.424 -11.738  -1.568  0.00  0.00    -0.050 Br
ENDBRANCH   1   2
BRANCH   1   9
ATOM      9  N   UNL     1       5.092  -6.702  -3.447  0.00  0.00    -0.292 N 
ATOM     10  C   UNL     1       5.675  -6.778  -4.659  0.00  0.00    +0.298 C 
ATOM     11  O   UNL     1       4.990  -6.801  -5.663  0.00  0.00    -0.253 OA
ATOM     12  N   UNL     1       7.018  -6.827  -4.759  0.00  0.00    -0.313 N 
ATOM     13  H   UNL     1       5.638  -6.611  -2.651  0.00  0.00    +0.151 HD
ATOM     14  H   UNL     1       7.565  -6.809  -3.958  0.00  0.00    +0.146 HD
ATOM     15  H   UNL     1       7.438  -6.882  -5.632  0.00  0.00    +0.146 HD
ENDBRANCH   1   9
BRANCH   1  16
ATOM     16  C   UNL     1       3.197  -6.083  -2.030  0.00  0.00    +0.122 C 
BRANCH  16  18
ATOM     17  N   UNL     1       3.242  -3.814  -1.046  0.00  0.00    -0.315 N 
ATOM     18  C   UNL     1       3.536  -4.615  -2.088  0.00  0.00    +0.215 C 
ATOM     19  O   UNL     1       4.072  -4.156  -3.074  0.00  0.00    -0.276 OA
ATOM     20  H   UNL     1       2.813  -4.181  -0.257  0.00  0.00    +0.149 HD
BRANCH  17  21
ATOM     21  C   UNL     1       3.572  -2.387  -1.103  0.00  0.00    +0.110 C 
BRANCH  21  22
ATOM     22  C   UNL     1       3.136  -1.711   0.199  0.00  0.00    +0.074 C 
BRANCH  22  27
ATOM     23  C   UNL     1       2.805   2.042   0.295  0.00  0.00    +0.003 A 
ATOM     24  C   UNL     1       4.119   2.396   0.026  0.00  0.00    +0.020 A 
ATOM     25  C   UNL     1       5.057   1.401  -0.174  0.00  0.00    +0.111 A 
ATOM     26  N   UNL     1       4.714   0.129  -0.113  0.00  0.00    -0.260 NA
ATOM     27  C   UNL     1       3.475  -0.244   0.140  0.00  0.00    +0.043 A 
ATOM     28  C   UNL     1       2.483   0.695   0.352  0.00  0.00    +0.023 A 
ENDBRANCH  22  27
ENDBRANCH  21  22
ENDBRANCH  17  21
ENDBRANCH  16  18
ENDBRANCH   1  16
TORSDOF 7
