REMARK  Name = ZINC07726214
REMARK  11 active torsions:
REMARK  status: ('A' for Active; 'I' for Inactive)
REMARK    1  A    between atoms: C_1  and  C_2
REMARK    2  A    between atoms: C_5  and  C_8
REMARK    3  A    between atoms: C_11  and  S_14
REMARK    4  A    between atoms: N_12  and  N_13
REMARK    5  A    between atoms: S_14  and  C_15
REMARK    6  A    between atoms: C_15  and  C_17
REMARK    7  A    between atoms: C_15  and  C_18
REMARK    8  A    between atoms: N_20  and  C_21
REMARK    9  A    between atoms: C_22  and  C_28
REMARK   10  A    between atoms: N_24  and  C_27
REMARK   11  A    between atoms: C_25  and  C_26
REMARK                            x       y       z     vdW  Elec       q    Type
REMARK                         _______ _______ _______ _____ _____    ______ ____
ROOT
ATOM      1  C   UNL     1       2.985   0.491  -3.613  0.00  0.00    +0.182 A 
ATOM      2  N   UNL     1       2.464  -0.572  -3.046  0.00  0.00    -0.127 NA
ATOM      3  N   UNL     1       1.608  -0.218  -2.155  0.00  0.00    -0.121 NA
ATOM      4  C   UNL     1       1.531   1.093  -2.098  0.00  0.00    +0.209 A 
ATOM      5  N   UNL     1       2.400   1.589  -3.028  0.00  0.00    -0.224 N 
ENDROOT
BRANCH   1  10
ATOM      6  C   UNL     1       6.953   0.544  -7.781  0.00  0.00    +0.044 C 
ATOM      7  C   UNL     1       5.915   0.530  -6.689  0.00  0.00    -0.050 A 
ATOM      8  C   UNL     1       5.234  -0.640  -6.401  0.00  0.00    +0.004 A 
ATOM      9  C   UNL     1       4.281  -0.659  -5.404  0.00  0.00    +0.012 A 
ATOM     10  C   UNL     1       4.005   0.504  -4.684  0.00  0.00    +0.021 A 
ATOM     11  C   UNL     1       4.692   1.682  -4.982  0.00  0.00    +0.012 A 
ATOM     12  C   UNL     1       5.646   1.687  -5.979  0.00  0.00    +0.004 A 
ENDBRANCH   1  10
BRANCH   5  13
ATOM     13  N   UNL     1       2.639   2.903  -3.315  0.00  0.00    -0.295 N 
ATOM     14  H   UNL     1       3.386   3.268  -2.743  0.00  0.00    +0.163 HD
ATOM     15  H   UNL     1       2.840   3.029  -4.295  0.00  0.00    +0.163 HD
ENDBRANCH   5  13
BRANCH   4  16
ATOM     16  S   UNL     1       0.495   2.034  -1.028  0.00  0.00    -0.072 S 
BRANCH  16  17
ATOM     17  C   UNL     1      -0.332   0.695  -0.134  0.00  0.00    +0.137 C 
ATOM     18  C   UNL     1      -1.197  -0.110  -1.107  0.00  0.00    +0.029 C 
BRANCH  17  19
ATOM     19  C   UNL     1      -1.203   1.277   0.949  0.00  0.00    +0.230 C 
ATOM     20  O   UNL     1      -1.627   2.409   0.844  0.00  0.00    -0.274 OA
ATOM     21  N   UNL     1      -1.511   0.540   2.035  0.00  0.00    -0.282 N 
ATOM     22  H   UNL     1      -1.232  -0.387   2.087  0.00  0.00    +0.155 HD
BRANCH  21  23
ATOM     23  C   UNL     1      -2.238   1.117   3.093  0.00  0.00    +0.077 A 
ATOM     24  C   UNL     1      -1.849   2.231   3.852  0.00  0.00    +0.081 A 
ATOM     25  N   UNL     1      -2.780   2.469   4.740  0.00  0.00    -0.175 NA
ATOM     26  N   UNL     1      -3.795   1.517   4.582  0.00  0.00    -0.270 N 
ATOM     27  C   UNL     1      -3.443   0.698   3.558  0.00  0.00    +0.057 A 
ATOM     28  C   UNL     1      -4.242  -0.468   3.035  0.00  0.00    +0.067 C 
ATOM     29  C   UNL     1      -5.023   1.426   5.376  0.00  0.00    +0.172 C 
ATOM     30  C   UNL     1      -0.577   3.018   3.674  0.00  0.00    +0.069 C 
ENDBRANCH  21  23
ENDBRANCH  17  19
ENDBRANCH  16  17
ENDBRANCH   4  16
TORSDOF 6
