REMARK  Name = ZINC04272991
REMARK  10 active torsions:
REMARK  status: ('A' for Active; 'I' for Inactive)
REMARK    1  A    between atoms: C_1  and  O_2
REMARK    2  A    between atoms: O_2  and  C_3
REMARK    3  A    between atoms: C_3  and  C_4
REMARK    4  A    between atoms: C_4  and  N_5
REMARK    5  A    between atoms: C_6  and  C_8
REMARK    6  A    between atoms: N_10  and  C_11
REMARK    7  A    between atoms: C_11  and  C_12
REMARK    8  A    between atoms: C_12  and  C_14
REMARK    9  A    between atoms: C_12  and  N_57
REMARK   10  A    between atoms: N_21  and  C_24
REMARK                            x       y       z     vdW  Elec       q    Type
REMARK                         _______ _______ _______ _____ _____    ______ ____
ROOT
ATOM      1  C   UNL     1       0.004  -0.004   0.003  0.00  0.00    +0.017 C 
ENDROOT
BRANCH   1   7
ATOM      2  C   UNL     1       1.601  -1.807   0.250  0.00  0.00    -0.059 C 
ATOM      3  C   UNL     1       2.827  -2.272   1.040  0.00  0.00    +0.086 C 
ATOM      4  N   UNL     1       2.473  -2.393   2.461  0.00  0.00    -0.331 N 
ATOM      5  C   UNL     1       2.006  -1.107   2.997  0.00  0.00    +0.086 C 
ATOM      6  C   UNL     1       0.781  -0.642   2.206  0.00  0.00    -0.059 C 
ATOM      7  N   UNL     1       1.156  -0.503   0.783  0.00  0.00    +0.389 N 
ATOM      8  H   UNL     1       1.928   0.170   0.706  0.00  0.00    -0.081 HD
BRANCH   4   9
ATOM      9  C   UNL     1       3.550  -2.885   3.206  0.00  0.00    +0.065 A 
ATOM     10  C   UNL     1       3.398  -3.143   4.561  0.00  0.00    +0.026 A 
ATOM     11  C   UNL     1       4.463  -3.632   5.293  0.00  0.00    +0.002 A 
ATOM     12  C   UNL     1       5.682  -3.857   4.680  0.00  0.00    +0.003 A 
ATOM     13  C   UNL     1       5.839  -3.597   3.331  0.00  0.00    +0.040 A 
ATOM     14  C   UNL     1       4.777  -3.111   2.591  0.00  0.00    +0.144 A 
ATOM     15  F   UNL     1       4.931  -2.856   1.273  0.00  0.00    -0.204 F 
ENDBRANCH   4   9
ENDBRANCH   1   7
BRANCH   1  16
ATOM     16  C   UNL     1      -1.142  -0.981   0.071  0.00  0.00    +0.093 A 
ATOM     17  C   UNL     1      -1.847  -1.441  -0.978  0.00  0.00    +0.043 A 
ATOM     18  C   UNL     1      -2.817  -2.331  -0.462  0.00  0.00    +0.041 A 
ATOM     19  C   UNL     1      -2.651  -2.356   0.873  0.00  0.00    +0.195 A 
ATOM     20  O   UNL     1      -1.636  -1.536   1.190  0.00  0.00    -0.469 OA
ENDBRANCH   1  16
BRANCH   1  21
ATOM     21  C   UNL     1      -0.440   1.343   0.577  0.00  0.00    +0.097 C 
BRANCH  21  24
ATOM     22  C   UNL     1       0.559   3.500   1.109  0.00  0.00    +0.299 C 
ATOM     23  O   UNL     1      -0.490   3.826   1.624  0.00  0.00    -0.265 OA
ATOM     24  N   UNL     1       0.687   2.278   0.556  0.00  0.00    -0.309 N 
ATOM     25  H   UNL     1       1.526   2.017   0.144  0.00  0.00    +0.149 HD
BRANCH  22  27
ATOM     26  N   UNL     1       1.581   5.677   1.640  0.00  0.00    -0.305 N 
ATOM     27  C   UNL     1       1.709   4.454   1.087  0.00  0.00    +0.299 C 
ATOM     28  O   UNL     1       2.759   4.128   0.572  0.00  0.00    -0.265 OA
ATOM     29  H   UNL     1       0.743   5.938   2.052  0.00  0.00    +0.149 HD
BRANCH  26  30
ATOM     30  C   UNL     1       2.709   6.612   1.619  0.00  0.00    +0.132 C 
BRANCH  30  31
ATOM     31  C   UNL     1       2.302   7.917   2.307  0.00  0.00    +0.178 C 
BRANCH  31  33
ATOM     32  C   UNL     1       1.655   8.826   4.428  0.00  0.00    +0.194 C 
ATOM     33  O   UNL     1       2.045   7.666   3.690  0.00  0.00    -0.381 OA
ENDBRANCH  31  33
ENDBRANCH  30  31
ENDBRANCH  26  30
ENDBRANCH  22  27
ENDBRANCH  21  24
ENDBRANCH   1  21
TORSDOF 9
