REMARK  Name = ZINC64871173
REMARK  4 active torsions:
REMARK  status: ('A' for Active; 'I' for Inactive)
REMARK    1  A    between atoms: C_4  and  C_7
REMARK    2  A    between atoms: C_10  and  C_14
REMARK    3  A    between atoms: N_24  and  C_27
REMARK    4  A    between atoms: C_27  and  C_28
REMARK                            x       y       z     vdW  Elec       q    Type
REMARK                         _______ _______ _______ _____ _____    ______ ____
ROOT
ATOM      1  C   UNL     1       4.984  -3.142  -2.441  0.00  0.00    -0.000 A 
ATOM      2  C   UNL     1       3.921  -3.104  -3.329  0.00  0.00    +0.008 A 
ATOM      3  C   UNL     1       3.910  -3.920  -4.441  0.00  0.00    +0.016 A 
ATOM      4  C   UNL     1       4.979  -4.785  -4.667  0.00  0.00    +0.063 A 
ATOM      5  C   UNL     1       6.056  -4.822  -3.766  0.00  0.00    +0.056 A 
ATOM      6  C   UNL     1       6.052  -3.991  -2.656  0.00  0.00    +0.034 A 
ATOM      7  N   UNL     1       7.107  -5.693  -4.017  0.00  0.00    -0.307 N 
ATOM      8  H   UNL     1       7.857  -5.730  -3.403  0.00  0.00    +0.170 HD
ATOM      9  C   UNL     1       7.094  -6.487  -5.101  0.00  0.00    +0.330 A 
ATOM     10  O   UNL     1       8.034  -7.237  -5.285  0.00  0.00    -0.246 OA
ATOM     11  N   UNL     1       6.089  -6.488  -5.991  0.00  0.00    -0.256 N 
ATOM     12  C   UNL     1       5.019  -5.677  -5.840  0.00  0.00    +0.265 A 
ATOM     13  O   UNL     1       4.112  -5.684  -6.650  0.00  0.00    -0.267 OA
ENDROOT
BRANCH   1  16
ATOM     14  C   UNL     1       3.711  -0.707  -0.038  0.00  0.00    +0.180 C 
ATOM     15  N   UNL     1       3.584  -1.988  -0.783  0.00  0.00    -0.265 NA
ATOM     16  C   UNL     1       4.978  -2.243  -1.231  0.00  0.00    +0.242 C 
ATOM     17  O   UNL     1       5.501  -0.945  -1.566  0.00  0.00    -0.274 OA
ATOM     18  N   UNL     1       4.723   0.051  -0.811  0.00  0.00    -0.177 NA
ATOM     19  H   UNL     1       3.258  -2.727  -0.179  0.00  0.00    +0.127 HD
ATOM     20  H   UNL     1       4.281   0.712  -1.432  0.00  0.00    +0.156 HD
BRANCH  14  24
ATOM     21  C   UNL     1      -0.017   1.378   0.010  0.00  0.00    +0.000 A 
ATOM     22  C   UNL     1       1.171   2.086   0.002  0.00  0.00    +0.000 A 
ATOM     23  C   UNL     1       2.377   1.411  -0.013  0.00  0.00    +0.006 A 
ATOM     24  C   UNL     1       2.396   0.029  -0.020  0.00  0.00    -0.014 A 
ATOM     25  C   UNL     1       1.208  -0.679  -0.012  0.00  0.00    +0.006 A 
ATOM     26  C   UNL     1       0.002  -0.004   0.002  0.00  0.00    +0.000 A 
ENDBRANCH  14  24
ENDBRANCH   1  16
BRANCH  11  27
ATOM     27  C   UNL     1       6.153  -7.384  -7.147  0.00  0.00    +0.165 C 
BRANCH  27  28
ATOM     28  C   UNL     1       5.515  -8.704  -6.796  0.00  0.00    -0.027 A 
ATOM     29  C   UNL     1       6.280  -9.718  -6.252  0.00  0.00    +0.007 A 
ATOM     30  C   UNL     1       5.695 -10.928  -5.930  0.00  0.00    +0.020 A 
ATOM     31  C   UNL     1       4.343 -11.124  -6.152  0.00  0.00    +0.041 A 
ATOM     32  C   UNL     1       3.578 -10.108  -6.697  0.00  0.00    +0.020 A 
ATOM     33  C   UNL     1       4.163  -8.897  -7.013  0.00  0.00    +0.007 A 
ATOM     34 CL   UNL     1       3.608 -12.644  -5.748  0.00  0.00    -0.084 Cl
ENDBRANCH  27  28
ENDBRANCH  11  27
TORSDOF 4
