REMARK  Name = ZINC56694489
REMARK  5 active torsions:
REMARK  status: ('A' for Active; 'I' for Inactive)
REMARK    1  A    between atoms: C_1  and  N_2
REMARK    2  A    between atoms: C_3  and  C_5
REMARK    3  A    between atoms: C_8  and  N_12
REMARK    4  A    between atoms: N_15  and  C_16
REMARK    5  A    between atoms: C_16  and  C_17
REMARK                            x       y       z     vdW  Elec       q    Type
REMARK                         _______ _______ _______ _____ _____    ______ ____
ROOT
ATOM      1  N   UNL     1       0.662  -6.305  -1.047  0.00  0.00    -0.269 N 
ATOM      2  C   UNL     1       1.159  -6.968  -2.110  0.00  0.00    +0.304 C 
ATOM      3  O   UNL     1       1.674  -6.352  -3.024  0.00  0.00    -0.253 OA
ATOM      4  N   UNL     1       1.086  -8.313  -2.161  0.00  0.00    -0.296 N 
ATOM      5  H   UNL     1       0.311  -6.799  -0.289  0.00  0.00    +0.156 HD
ATOM      6  H   UNL     1       0.675  -8.804  -1.432  0.00  0.00    +0.150 HD
ENDROOT
BRANCH   1  10
ATOM      7  C   UNL     1       0.628  -2.139  -1.016  0.00  0.00    +0.055 A 
ATOM      8  C   UNL     1      -0.415  -2.853  -0.418  0.00  0.00    +0.016 A 
ATOM      9  C   UNL     1      -0.400  -4.229  -0.431  0.00  0.00    +0.024 A 
ATOM     10  C   UNL     1       0.651  -4.911  -1.037  0.00  0.00    +0.036 A 
ATOM     11  C   UNL     1       1.691  -4.205  -1.632  0.00  0.00    +0.044 A 
ATOM     12  C   UNL     1       1.680  -2.827  -1.630  0.00  0.00    +0.055 A 
ATOM     13 CL   UNL     1       2.974  -1.946  -2.380  0.00  0.00    -0.083 Cl
BRANCH   7  16
ATOM     14  C   UNL     1      -0.411   1.462  -0.400  0.00  0.00    +0.128 C 
ATOM     15  N   UNL     1      -0.399  -0.003  -0.412  0.00  0.00    -0.314 N 
ATOM     16  C   UNL     1       0.616  -0.664  -1.004  0.00  0.00    +0.245 C 
ATOM     17  O   UNL     1       1.521  -0.045  -1.528  0.00  0.00    -0.270 OA
ATOM     18  H   UNL     1      -1.121  -0.498   0.007  0.00  0.00    +0.149 HD
ENDBRANCH   7  16
ENDBRANCH   1  10
BRANCH   4  19
ATOM     19  C   UNL     1       1.627  -9.033  -3.317  0.00  0.00    +0.150 C 
BRANCH  19  20
ATOM     20  C   UNL     1       1.417 -10.536  -3.125  0.00  0.00    +0.195 C 
ATOM     21  C   UNL     1       2.034 -11.330  -4.300  0.00  0.00    +0.085 C 
ATOM     22  C   UNL     1       2.567 -12.565  -3.599  0.00  0.00    -0.002 A 
ATOM     23  C   UNL     1       2.982 -13.790  -4.072  0.00  0.00    +0.007 A 
ATOM     24  C   UNL     1       3.424 -14.758  -3.188  0.00  0.00    +0.000 A 
ATOM     25  C   UNL     1       3.446 -14.491  -1.832  0.00  0.00    +0.004 A 
ATOM     26  C   UNL     1       3.033 -13.264  -1.356  0.00  0.00    +0.046 A 
ATOM     27  C   UNL     1       2.591 -12.282  -2.240  0.00  0.00    +0.124 A 
ATOM     28  O   UNL     1       2.159 -11.013  -1.989  0.00  0.00    -0.487 OA
ENDBRANCH  19  20
ENDBRANCH   4  19
TORSDOF 4
