REMARK  Name = ZINC42316037
REMARK  11 active torsions:
REMARK  status: ('A' for Active; 'I' for Inactive)
REMARK    1  A    between atoms: C_1  and  C_2
REMARK    2  A    between atoms: C_2  and  C_3
REMARK    3  A    between atoms: N_5  and  C_6
REMARK    4  A    between atoms: C_9  and  C_12
REMARK    5  A    between atoms: C_12  and  C_14
REMARK    6  A    between atoms: C_12  and  N_15
REMARK    7  A    between atoms: N_18  and  N_19
REMARK    8  A    between atoms: C_20  and  C_22
REMARK    9  A    between atoms: C_22  and  O_23
REMARK   10  A    between atoms: O_23  and  C_24
REMARK   11  A    between atoms: C_28  and  C_30
REMARK                            x       y       z     vdW  Elec       q    Type
REMARK                         _______ _______ _______ _____ _____    ______ ____
ROOT
ATOM      1  N   UNL     1      -7.108  -4.776  -1.189  0.00  0.00    -0.292 N 
ATOM      2  C   UNL     1      -8.262  -5.067  -1.821  0.00  0.00    +0.316 C 
ATOM      3  O   UNL     1      -9.237  -4.356  -1.667  0.00  0.00    -0.251 OA
ATOM      4  N   UNL     1      -8.337  -6.148  -2.623  0.00  0.00    -0.218 N 
ATOM      5  H   UNL     1      -6.331  -5.343  -1.311  0.00  0.00    +0.151 HD
ATOM      6  H   UNL     1      -9.168  -6.358  -3.078  0.00  0.00    +0.174 HD
ENDROOT
BRANCH   4   7
ATOM      7  N   UNL     1      -7.215  -6.967  -2.800  0.00  0.00    -0.230 N 
ATOM      8  C   UNL     1      -7.289  -8.048  -3.603  0.00  0.00    +0.267 C 
ATOM      9  O   UNL     1      -8.328  -8.310  -4.171  0.00  0.00    -0.271 OA
ATOM     10  H   UNL     1      -6.384  -6.757  -2.345  0.00  0.00    +0.173 HD
BRANCH   8  11
ATOM     11  C   UNL     1      -6.082  -8.929  -3.794  0.00  0.00    +0.326 C 
BRANCH  11  12
ATOM     12  O   UNL     1      -6.409 -10.000  -4.682  0.00  0.00    -0.483 OA
BRANCH  12  13
ATOM     13  C   UNL     1      -5.424 -10.893  -4.962  0.00  0.00    +0.121 A 
ATOM     14  C   UNL     1      -4.169 -10.745  -4.389  0.00  0.00    +0.045 A 
ATOM     15  C   UNL     1      -3.169 -11.654  -4.674  0.00  0.00    +0.004 A 
ATOM     16  C   UNL     1      -3.418 -12.710  -5.531  0.00  0.00    +0.003 A 
ATOM     17  C   UNL     1      -4.667 -12.860  -6.103  0.00  0.00    -0.047 A 
ATOM     18  C   UNL     1      -5.672 -11.956  -5.816  0.00  0.00    +0.049 A 
ATOM     19  C   UNL     1      -4.934 -14.012  -7.037  0.00  0.00    +0.044 C 
ENDBRANCH  12  13
ENDBRANCH  11  12
ENDBRANCH   8  11
ENDBRANCH   4   7
BRANCH   1  20
ATOM     20  C   UNL     1      -7.027  -3.602  -0.316  0.00  0.00    +0.102 C 
ATOM     21  C   UNL     1      -7.529  -3.969   1.082  0.00  0.00    +0.033 C 
BRANCH  20  25
ATOM     22  C   UNL     1      -2.969  -2.285  -0.072  0.00  0.00    +0.033 A 
ATOM     23  C   UNL     1      -3.998  -1.356  -0.159  0.00  0.00    +0.023 A 
ATOM     24  C   UNL     1      -5.308  -1.785  -0.237  0.00  0.00    +0.007 A 
ATOM     25  C   UNL     1      -5.596  -3.137  -0.230  0.00  0.00    -0.027 A 
ATOM     26  C   UNL     1      -4.574  -4.065  -0.144  0.00  0.00    +0.007 A 
ATOM     27  C   UNL     1      -3.261  -3.643  -0.071  0.00  0.00    +0.023 A 
BRANCH  22  30
ATOM     28  C   UNL     1      -0.664  -2.565  -0.591  0.00  0.00    +0.217 C 
ATOM     29  O   UNL     1      -0.924  -3.621  -1.126  0.00  0.00    -0.275 OA
ATOM     30  N   UNL     1      -1.640  -1.854   0.008  0.00  0.00    -0.286 N 
ATOM     31  H   UNL     1      -1.421  -1.043   0.494  0.00  0.00    +0.155 HD
BRANCH  28  33
ATOM     32  C   UNL     1       1.655  -3.037  -1.332  0.00  0.00    +0.013 C 
ATOM     33  C   UNL     1       0.751  -2.047  -0.594  0.00  0.00    +0.093 C 
ENDBRANCH  28  33
ENDBRANCH  22  30
ENDBRANCH  20  25
ENDBRANCH   1  20
TORSDOF 8
