REMARK  Name = ZINC02741758
REMARK  7 active torsions:
REMARK  status: ('A' for Active; 'I' for Inactive)
REMARK    1  A    between atoms: C_1  and  C_2
REMARK    2  A    between atoms: C_2  and  C_3
REMARK    3  A    between atoms: C_3  and  S_4
REMARK    4  A    between atoms: S_4  and  C_5
REMARK    5  A    between atoms: C_18  and  C_21
REMARK    6  A    between atoms: C_24  and  C_27
REMARK    7  A    between atoms: C_27  and  C_28
REMARK                            x       y       z     vdW  Elec       q    Type
REMARK                         _______ _______ _______ _____ _____    ______ ____
ROOT
ATOM      1  C   UNL     1      -2.376  11.233   2.837  0.00  0.00    +0.212 A 
ATOM      2  N   UNL     1      -2.506   9.962   2.469  0.00  0.00    -0.184 NA
ATOM      3  C   UNL     1      -1.529   9.110   2.727  0.00  0.00    +0.248 A 
ATOM      4  C   UNL     1      -0.372   9.584   3.387  0.00  0.00    +0.156 A 
ATOM      5  N   UNL     1      -0.306  10.862   3.729  0.00  0.00    -0.141 NA
ATOM      6  N   UNL     1      -1.283  11.657   3.459  0.00  0.00    -0.122 NA
ATOM      7  C   UNL     1       0.737   8.651   3.680  0.00  0.00    +0.028 A 
ATOM      8  C   UNL     1       1.335   8.602   4.933  0.00  0.00    +0.012 A 
ATOM      9  C   UNL     1       2.384   7.732   5.158  0.00  0.00    +0.001 A 
ATOM     10  C   UNL     1       2.841   6.908   4.144  0.00  0.00    +0.002 A 
ATOM     11  C   UNL     1       2.250   6.942   2.894  0.00  0.00    +0.024 A 
ATOM     12  C   UNL     1       1.195   7.803   2.655  0.00  0.00    +0.039 A 
ATOM     13  N   UNL     1       0.562   7.851   1.409  0.00  0.00    -0.305 N 
ATOM     14  C   UNL     1      -0.807   7.357   1.298  0.00  0.00    +0.294 C 
ATOM     15  O   UNL     1      -1.619   7.805   2.379  0.00  0.00    -0.449 OA
ATOM     16  H   UNL     1       1.024   8.205   0.633  0.00  0.00    +0.150 HD
ENDROOT
BRANCH  14  17
ATOM     17  C   UNL     1      -0.787   5.851   1.291  0.00  0.00    +0.011 A 
ATOM     18  C   UNL     1      -1.765   5.143   1.964  0.00  0.00    +0.009 A 
ATOM     19  C   UNL     1      -1.747   3.760   1.956  0.00  0.00    +0.004 A 
ATOM     20  C   UNL     1      -0.751   3.086   1.275  0.00  0.00    -0.048 A 
ATOM     21  C   UNL     1       0.230   3.794   0.606  0.00  0.00    +0.004 A 
ATOM     22  C   UNL     1       0.210   5.176   0.611  0.00  0.00    +0.009 A 
BRANCH  20  23
ATOM     23  C   UNL     1      -0.731   1.579   1.267  0.00  0.00    +0.032 C 
ATOM     24  C   UNL     1      -1.540   1.065   0.075  0.00  0.00    +0.009 C 
ENDBRANCH  20  23
ENDBRANCH  14  17
BRANCH   1  25
ATOM     25  S   UNL     1      -3.676  12.372   2.494  0.00  0.00    -0.084 S 
BRANCH  25  26
ATOM     26  C   UNL     1      -2.965  13.881   3.197  0.00  0.00    +0.077 C 
BRANCH  26  28
ATOM     27  C   UNL     1      -3.343  16.317   3.604  0.00  0.00    +0.004 C 
ATOM     28  C   UNL     1      -3.944  15.041   3.011  0.00  0.00    +0.008 C 
ENDBRANCH  26  28
ENDBRANCH  25  26
ENDBRANCH   1  25
TORSDOF 5
