REMARK  Name = ZINC11934187
REMARK  7 active torsions:
REMARK  status: ('A' for Active; 'I' for Inactive)
REMARK    1  A    between atoms: C_1  and  C_2
REMARK    2  A    between atoms: C_6  and  N_9
REMARK    3  A    between atoms: C_7  and  C_8
REMARK    4  A    between atoms: C_15  and  C_17
REMARK    5  A    between atoms: C_17  and  C_18
REMARK    6  A    between atoms: C_25  and  C_26
REMARK    7  A    between atoms: C_25  and  N_63
REMARK                            x       y       z     vdW  Elec       q    Type
REMARK                         _______ _______ _______ _____ _____    ______ ____
ROOT
ATOM      1  C   UNL     1      -1.151   7.648   1.436  0.00  0.00    +0.090 C 
ENDROOT
BRANCH   1   2
ATOM      2  C   UNL     1      -2.059   8.858   1.212  0.00  0.00    +0.028 C 
ATOM      3  C   UNL     1      -1.396   9.810   0.258  0.00  0.00    +0.200 C 
ATOM      4  O   UNL     1      -0.211  10.034   0.389  0.00  0.00    -0.278 OA
ATOM      5  N   UNL     1      -2.057  10.421  -0.731  0.00  0.00    -0.318 N 
ATOM      6  C   UNL     1      -3.475  10.194  -0.997  0.00  0.00    +0.085 C 
ATOM      7  C   UNL     1      -4.144   9.566   0.228  0.00  0.00    -0.058 C 
ATOM      8  H   UNL     1      -1.574  11.043  -1.297  0.00  0.00    +0.149 HD
ATOM      9  N   UNL     1      -3.338   8.399   0.640  0.00  0.00    +0.391 N 
ATOM     10  H   UNL     1      -3.148   7.815  -0.182  0.00  0.00    -0.080 HD
BRANCH   9  11
ATOM     11  C   UNL     1      -4.081   7.597   1.639  0.00  0.00    -0.039 C 
BRANCH  11  12
ATOM     12  C   UNL     1      -5.189   6.851   0.940  0.00  0.00    -0.029 A 
ATOM     13  C   UNL     1      -6.487   7.323   1.003  0.00  0.00    +0.004 A 
ATOM     14  C   UNL     1      -7.502   6.643   0.357  0.00  0.00    +0.000 A 
ATOM     15  C   UNL     1      -7.222   5.484  -0.343  0.00  0.00    +0.003 A 
ATOM     16  C   UNL     1      -5.927   5.007  -0.402  0.00  0.00    +0.038 A 
ATOM     17  C   UNL     1      -4.908   5.691   0.240  0.00  0.00    +0.125 A 
ATOM     18  F   UNL     1      -3.641   5.225   0.183  0.00  0.00    -0.205 F 
ENDBRANCH  11  12
ENDBRANCH   9  11
ENDBRANCH   1   2
BRANCH   1  25
ATOM     19  N   UNL     1       0.832   3.259   0.156  0.00  0.00    -0.327 N 
ATOM     20  C   UNL     1       0.463   3.933   1.408  0.00  0.00    +0.124 C 
ATOM     21  C   UNL     1       0.657   5.444   1.248  0.00  0.00    +0.126 C 
ATOM     22  N   UNL     1      -0.088   5.888   0.060  0.00  0.00    -0.299 N 
ATOM     23  C   UNL     1       0.126   5.169  -1.205  0.00  0.00    +0.126 C 
ATOM     24  C   UNL     1      -0.047   3.669  -0.948  0.00  0.00    +0.124 C 
ATOM     25  C   UNL     1      -0.946   6.926   0.129  0.00  0.00    +0.215 C 
ATOM     26  O   UNL     1      -1.552   7.278  -0.860  0.00  0.00    -0.276 OA
BRANCH  19  32
ATOM     27  C   UNL     1       3.274  -1.005   0.200  0.00  0.00    +0.044 C 
ATOM     28  C   UNL     1       1.994  -0.222   0.340  0.00  0.00    -0.046 A 
ATOM     29  C   UNL     1       0.810  -0.878   0.624  0.00  0.00    +0.004 A 
ATOM     30  C   UNL     1      -0.366  -0.163   0.752  0.00  0.00    +0.002 A 
ATOM     31  C   UNL     1      -0.363   1.209   0.598  0.00  0.00    +0.023 A 
ATOM     32  C   UNL     1       0.825   1.872   0.313  0.00  0.00    +0.033 A 
ATOM     33  C   UNL     1       2.005   1.150   0.184  0.00  0.00    -0.027 A 
ATOM     34  C   UNL     1       3.295   1.864  -0.126  0.00  0.00    +0.046 C 
ENDBRANCH  19  32
ENDBRANCH   1  25
TORSDOF 5
