REMARK  Name = ZINC00550761
REMARK  4 active torsions:
REMARK  status: ('A' for Active; 'I' for Inactive)
REMARK    1  A    between atoms: C_1  and  C_2
REMARK    2  A    between atoms: C_9  and  N_22
REMARK    3  A    between atoms: C_10  and  C_20
REMARK    4  A    between atoms: C_11  and  C_13
REMARK                            x       y       z     vdW  Elec       q    Type
REMARK                         _______ _______ _______ _____ _____    ______ ____
ROOT
ATOM      1  C   UNL     1       0.221   1.929  -0.413  0.00  0.00    +0.065 C 
ATOM      2  C   UNL     1       0.198   0.447  -0.141  0.00  0.00    +0.041 A 
ATOM      3  C   UNL     1       0.009  -0.522  -1.049  0.00  0.00    +0.045 A 
ATOM      4  C   UNL     1       0.063  -1.766  -0.382  0.00  0.00    +0.244 A 
ATOM      5  N   UNL     1       0.276  -1.536   0.881  0.00  0.00    -0.135 NA
ATOM      6  N   UNL     1       0.372  -0.147   1.063  0.00  0.00    -0.278 N 
ATOM      7  H   UNL     1       0.532   0.308   1.904  0.00  0.00    +0.189 HD
ATOM      8  O   UNL     1      -0.091  -2.945  -1.041  0.00  0.00    -0.422 OA
ATOM      9  C   UNL     1      -0.029  -2.917  -2.387  0.00  0.00    +0.200 C 
ATOM     10  C   UNL     1      -0.083  -1.793  -3.132  0.00  0.00    +0.094 C 
ATOM     11  C   UNL     1      -0.228  -0.416  -2.534  0.00  0.00    +0.078 C 
ENDROOT
BRANCH  11  12
ATOM     12  C   UNL     1      -1.639   0.115  -2.795  0.00  0.00    +0.024 C 
ATOM     13  C   UNL     1      -1.808   0.389  -4.291  0.00  0.00    +0.009 C 
ATOM     14  C   UNL     1      -3.291   0.667  -4.568  0.00  0.00    +0.005 C 
ATOM     15  C   UNL     1      -4.079  -0.623  -4.331  0.00  0.00    +0.027 C 
ATOM     16  C   UNL     1      -3.709  -1.218  -3.004  0.00  0.00    -0.031 C 
ATOM     17  C   UNL     1      -2.645  -0.901  -2.341  0.00  0.00    -0.027 C 
ENDBRANCH  11  12
BRANCH   9  18
ATOM     18  N   UNL     1       0.100  -4.114  -3.046  0.00  0.00    -0.328 N 
ATOM     19  H   UNL     1       0.143  -4.942  -2.543  0.00  0.00    +0.145 HD
ATOM     20  H   UNL     1       0.149  -4.132  -4.014  0.00  0.00    +0.145 HD
ENDBRANCH   9  18
BRANCH  10  21
ATOM     21  C   UNL     1       0.000  -1.913  -4.556  0.00  0.00    +0.100 C 
ATOM     22  N   UNL     1       0.067  -2.009  -5.686  0.00  0.00    -0.191 NA
ENDBRANCH  10  21
TORSDOF 3
