REMARK  Name = ZINC40017889
REMARK  9 active torsions:
REMARK  status: ('A' for Active; 'I' for Inactive)
REMARK    1  A    between atoms: C_1  and  C_2
REMARK    2  A    between atoms: C_2  and  C_4
REMARK    3  A    between atoms: C_2  and  N_12
REMARK    4  A    between atoms: N_12  and  C_13
REMARK    5  A    between atoms: C_13  and  C_14
REMARK    6  A    between atoms: N_16  and  C_17
REMARK    7  A    between atoms: N_16  and  C_22
REMARK    8  A    between atoms: C_17  and  C_18
REMARK    9  A    between atoms: C_18  and  C_19
REMARK                            x       y       z     vdW  Elec       q    Type
REMARK                         _______ _______ _______ _____ _____    ______ ____
ROOT
ATOM      1  C   UNL     1       0.816  -0.397   3.657  0.00  0.00    +0.203 C 
ATOM      2  O   UNL     1       1.957  -0.800   3.581  0.00  0.00    -0.277 OA
ATOM      3  N   UNL     1       0.181  -0.391   4.846  0.00  0.00    -0.273 N 
ENDROOT
BRANCH   3   4
ATOM      4  C   UNL     1       0.801  -0.944   5.974  0.00  0.00    +0.036 A 
ATOM      5  C   UNL     1       1.191  -0.124   7.025  0.00  0.00    +0.026 A 
ATOM      6  C   UNL     1       1.802  -0.671   8.136  0.00  0.00    +0.040 A 
ATOM      7  C   UNL     1       2.028  -2.036   8.201  0.00  0.00    +0.124 A 
ATOM      8  C   UNL     1       1.640  -2.855   7.154  0.00  0.00    +0.040 A 
ATOM      9  C   UNL     1       1.023  -2.313   6.044  0.00  0.00    +0.026 A 
ATOM     10  F   UNL     1       2.627  -2.569   9.289  0.00  0.00    -0.205 F 
ENDBRANCH   3   4
BRANCH   1  11
ATOM     11  C   UNL     1       0.107   0.098   2.423  0.00  0.00    +0.016 C 
BRANCH  11  12
ATOM     12  N   UNL     1       1.006  -0.011   1.266  0.00  0.00    +0.389 N 
ATOM     13  H   UNL     1       1.273  -0.975   1.137  0.00  0.00    -0.084 HD
ATOM     14  H   UNL     1       1.831   0.548   1.427  0.00  0.00    -0.084 HD
BRANCH  12  16
ATOM     15  C   UNL     1       0.021   1.966   0.208  0.00  0.00    -0.009 C 
ATOM     16  C   UNL     1       0.315   0.472   0.062  0.00  0.00    -0.042 C 
BRANCH  16  17
ATOM     17  C   UNL     1       1.191   0.247  -1.143  0.00  0.00    -0.043 A 
ATOM     18  C   UNL     1       2.551   0.057  -0.984  0.00  0.00    +0.005 A 
ATOM     19  C   UNL     1       3.355  -0.149  -2.089  0.00  0.00    +0.020 A 
ATOM     20  C   UNL     1       2.798  -0.166  -3.356  0.00  0.00    +0.042 A 
ATOM     21  C   UNL     1       1.438   0.024  -3.516  0.00  0.00    +0.040 A 
ATOM     22  C   UNL     1       0.633   0.225  -2.409  0.00  0.00    +0.044 A 
ATOM     23 CL   UNL     1      -1.076   0.457  -2.608  0.00  0.00    -0.083 Cl
ATOM     24 CL   UNL     1       3.808  -0.424  -4.745  0.00  0.00    -0.083 Cl
ENDBRANCH  16  17
ENDBRANCH  12  16
ENDBRANCH  11  12
ENDBRANCH   1  11
BRANCH   3  25
ATOM     25  C   UNL     1      -1.157   0.193   4.959  0.00  0.00    +0.123 C 
BRANCH  25  26
ATOM     26  C   UNL     1      -2.209  -0.886   4.692  0.00  0.00    +0.115 C 
BRANCH  26  27
ATOM     27  C   UNL     1      -3.586  -0.284   4.809  0.00  0.00    +0.212 C 
ATOM     28  O   UNL     1      -3.714   0.891   5.079  0.00  0.00    -0.276 OA
ATOM     29  N   UNL     1      -4.676  -1.053   4.613  0.00  0.00    -0.329 N 
ATOM     30  H   UNL     1      -4.574  -1.993   4.397  0.00  0.00    +0.145 HD
ATOM     31  H   UNL     1      -5.562  -0.666   4.688  0.00  0.00    +0.145 HD
ENDBRANCH  26  27
ENDBRANCH  25  26
ENDBRANCH   3  25
TORSDOF 8
