REMARK  Name = ZINC40687296
REMARK  7 active torsions:
REMARK  status: ('A' for Active; 'I' for Inactive)
REMARK    1  A    between atoms: C_1  and  C_2
REMARK    2  A    between atoms: C_2  and  C_3
REMARK    3  A    between atoms: C_2  and  C_4
REMARK    4  A    between atoms: C_7  and  O_10
REMARK    5  A    between atoms: O_10  and  C_11
REMARK    6  A    between atoms: C_12  and  N_26
REMARK    7  A    between atoms: C_13  and  N_17
REMARK                            x       y       z     vdW  Elec       q    Type
REMARK                         _______ _______ _______ _____ _____    ______ ____
ROOT
ATOM      1  C   UNL     1      -5.710  -2.661  -1.034  0.00  0.00    +0.246 A 
ATOM      2  C   UNL     1      -7.040  -3.069  -1.130  0.00  0.00    +0.128 A 
ATOM      3  C   UNL     1      -7.435  -3.766  -2.274  0.00  0.00    +0.153 A 
ATOM      4  N   UNL     1      -6.534  -4.013  -3.222  0.00  0.00    -0.218 NA
ATOM      5  C   UNL     1      -5.286  -3.609  -3.090  0.00  0.00    +0.227 A 
ATOM      6  N   UNL     1      -4.875  -2.945  -2.029  0.00  0.00    -0.199 NA
ENDROOT
BRANCH   3   7
ATOM      7  N   UNL     1      -8.749  -4.196  -2.421  0.00  0.00    -0.283 N 
ATOM      8  C   UNL     1      -9.841  -3.385  -2.965  0.00  0.00    +0.117 C 
ATOM      9  C   UNL     1     -11.080  -4.295  -2.920  0.00  0.00    +0.056 C 
ATOM     10  C   UNL     1     -10.575  -5.595  -2.333  0.00  0.00    -0.025 A 
ATOM     11  C   UNL     1      -9.219  -5.465  -2.075  0.00  0.00    +0.038 A 
ATOM     12  C   UNL     1      -8.526  -6.548  -1.531  0.00  0.00    +0.024 A 
ATOM     13  C   UNL     1      -9.184  -7.729  -1.260  0.00  0.00    +0.002 A 
ATOM     14  C   UNL     1     -10.535  -7.849  -1.525  0.00  0.00    +0.000 A 
ATOM     15  C   UNL     1     -11.231  -6.778  -2.056  0.00  0.00    +0.005 A 
ENDBRANCH   3   7
BRANCH   2  16
ATOM     16  N   UNL     1      -7.956  -2.787  -0.105  0.00  0.00    -0.351 N 
ATOM     17  H   UNL     1      -7.687  -2.237   0.648  0.00  0.00    +0.143 HD
ATOM     18  H   UNL     1      -8.857  -3.142  -0.149  0.00  0.00    +0.143 HD
ENDBRANCH   2  16
BRANCH   1  19
ATOM     19  O   UNL     1      -5.275  -1.981   0.057  0.00  0.00    -0.436 OA
BRANCH  19  23
ATOM     20  C   UNL     1      -1.391  -0.591   0.052  0.00  0.00    -0.045 A 
ATOM     21  C   UNL     1      -2.360   0.068  -0.682  0.00  0.00    +0.007 A 
ATOM     22  C   UNL     1      -3.662  -0.396  -0.682  0.00  0.00    +0.046 A 
ATOM     23  C   UNL     1      -3.995  -1.523   0.055  0.00  0.00    +0.130 A 
ATOM     24  C   UNL     1      -3.020  -2.183   0.790  0.00  0.00    +0.046 A 
ATOM     25  C   UNL     1      -1.720  -1.718   0.783  0.00  0.00    +0.007 A 
BRANCH  20  27
ATOM     26  C   UNL     1       0.571  -0.090  -1.380  0.00  0.00    +0.012 C 
ATOM     27  C   UNL     1       0.028  -0.083   0.050  0.00  0.00    +0.013 C 
ATOM     28  C   UNL     1       0.060   1.344   0.601  0.00  0.00    +0.012 C 
ENDBRANCH  20  27
ENDBRANCH  19  23
ENDBRANCH   1  19
TORSDOF 5
