REMARK  Name = ZINC56813801
REMARK  7 active torsions:
REMARK  status: ('A' for Active; 'I' for Inactive)
REMARK    1  A    between atoms: C_1  and  C_2
REMARK    2  A    between atoms: C_2  and  C_4
REMARK    3  A    between atoms: C_2  and  C_24
REMARK    4  A    between atoms: C_4  and  N_5
REMARK    5  A    between atoms: N_5  and  C_6
REMARK    6  A    between atoms: N_9  and  C_10
REMARK    7  A    between atoms: N_19  and  C_21
REMARK                            x       y       z     vdW  Elec       q    Type
REMARK                         _______ _______ _______ _____ _____    ______ ____
ROOT
ATOM      1  C   UNL     1       5.328  -1.404  -0.127  0.00  0.00    +0.077 C 
ATOM      2  C   UNL     1       5.872  -2.427   0.874  0.00  0.00    -0.007 C 
ATOM      3  C   UNL     1       6.489  -1.714   2.069  0.00  0.00    +0.003 C 
ATOM      4  C   UNL     1       7.562  -0.713   1.674  0.00  0.00    +0.001 C 
ATOM      5  C   UNL     1       7.155   0.181   0.515  0.00  0.00    +0.003 C 
ATOM      6  C   UNL     1       6.518  -0.587  -0.635  0.00  0.00    -0.007 C 
ATOM      7  C   UNL     1       7.519  -1.512  -1.315  0.00  0.00    -0.073 C 
ATOM      8  N   UNL     1       7.971  -2.599  -0.452  0.00  0.00    +0.382 N 
ATOM      9  C   UNL     1       6.880  -3.334   0.179  0.00  0.00    -0.073 C 
ATOM     10  H   UNL     1       8.607  -2.249   0.247  0.00  0.00    -0.081 HD
ENDROOT
BRANCH   1  15
ATOM     11  N   UNL     1       2.148  -0.104   1.172  0.00  0.00    -0.287 N 
ATOM     12  C   UNL     1       2.569   1.177   1.745  0.00  0.00    +0.133 C 
ATOM     13  C   UNL     1       3.053  -0.907   0.580  0.00  0.00    +0.302 C 
ATOM     14  O   UNL     1       2.704  -1.970   0.104  0.00  0.00    -0.253 OA
ATOM     15  N   UNL     1       4.346  -0.533   0.515  0.00  0.00    -0.296 N 
ATOM     16  H   UNL     1       4.625   0.315   0.895  0.00  0.00    +0.151 HD
BRANCH  11  17
ATOM     17  C   UNL     1       0.742  -0.511   1.242  0.00  0.00    +0.127 C 
BRANCH  17  19
ATOM     18  C   UNL     1      -0.019   1.526   0.010  0.00  0.00    +0.025 C 
ATOM     19  C   UNL     1       0.002  -0.004   0.002  0.00  0.00    +0.106 C 
BRANCH  19  20
ATOM     20  C   UNL     1      -1.379  -0.514   0.013  0.00  0.00    +0.067 C 
ATOM     21  N   UNL     1      -2.445  -0.907   0.021  0.00  0.00    -0.196 NA
ENDBRANCH  19  20
ENDBRANCH  17  19
ENDBRANCH  11  17
ENDBRANCH   1  15
BRANCH   8  22
ATOM     22  C   UNL     1       8.739  -3.543  -1.274  0.00  0.00    -0.069 C 
ATOM     23  C   UNL     1      10.129  -3.945  -0.777  0.00  0.00    -0.017 C 
ATOM     24  C   UNL     1       9.988  -3.011  -1.981  0.00  0.00    -0.017 C 
ENDBRANCH   8  22
TORSDOF 5
