REMARK  Name = ZINC48842566
REMARK  5 active torsions:
REMARK  status: ('A' for Active; 'I' for Inactive)
REMARK    1  A    between atoms: C_1  and  C_2
REMARK    2  A    between atoms: C_2  and  C_3
REMARK    3  A    between atoms: C_3  and  N_4
REMARK    4  A    between atoms: N_4  and  C_5
REMARK    5  A    between atoms: C_17  and  C_19
REMARK                            x       y       z     vdW  Elec       q    Type
REMARK                         _______ _______ _______ _____ _____    ______ ____
ROOT
ATOM      1  N   UNL     1       0.739  -1.976  -1.054  0.00  0.00    -0.283 N 
ATOM      2  C   UNL     1       1.867  -2.518  -0.553  0.00  0.00    +0.306 C 
ATOM      3  O   UNL     1       2.102  -3.698  -0.726  0.00  0.00    -0.252 OA
ATOM      4  N   UNL     1       2.733  -1.752   0.138  0.00  0.00    -0.262 N 
ATOM      5  C   UNL     1       3.818  -2.344   0.950  0.00  0.00    +0.179 C 
ATOM      6  S   UNL     1       4.168  -0.972   2.137  0.00  0.00    -0.139 S 
ATOM      7  C   UNL     1       3.716   0.410   0.995  0.00  0.00    +0.105 C 
ATOM      8  C   UNL     1       2.654  -0.301   0.119  0.00  0.00    +0.201 C 
ENDROOT
BRANCH   1   9
ATOM      9  C   UNL     1      -0.124  -2.764  -1.937  0.00  0.00    +0.074 C 
ATOM     10  C   UNL     1      -0.604  -4.017  -1.198  0.00  0.00    +0.003 C 
ATOM     11  C   UNL     1      -1.439  -4.876  -2.151  0.00  0.00    -0.081 C 
ATOM     12  N   UNL     1      -0.621  -5.270  -3.304  0.00  0.00    +0.379 N 
ATOM     13  C   UNL     1      -0.217  -4.077  -4.059  0.00  0.00    -0.081 C 
ATOM     14  C   UNL     1       0.665  -3.188  -3.180  0.00  0.00    +0.003 C 
ATOM     15  H   UNL     1       0.201  -5.757  -2.982  0.00  0.00    -0.086 HD
ATOM     16  H   UNL     1      -1.158  -5.879  -3.903  0.00  0.00    -0.086 HD
ENDBRANCH   1   9
BRANCH   8  17
ATOM     17  C   UNL     1       2.810   0.168  -1.304  0.00  0.00    +0.377 C 
ATOM     18  O   UNL     1       2.680   1.350  -1.575  0.00  0.00    -0.244 OA
ATOM     19  O   UNL     1       3.067  -0.634  -2.186  0.00  0.00    -0.244 OA
ENDBRANCH   8  17
BRANCH   1  20
ATOM     20  C   UNL     1       0.376  -0.597  -0.716  0.00  0.00    +0.109 C 
BRANCH  20  22
ATOM     21  C   UNL     1      -0.502   0.898   1.083  0.00  0.00    +0.005 C 
ATOM     22  C   UNL     1      -0.130  -0.543   0.727  0.00  0.00    +0.016 C 
ENDBRANCH  20  22
ENDBRANCH   1  20
TORSDOF 4
