REMARK  Name = ZINC64407750
REMARK  6 active torsions:
REMARK  status: ('A' for Active; 'I' for Inactive)
REMARK    1  A    between atoms: C_1  and  C_2
REMARK    2  A    between atoms: C_5  and  C_8
REMARK    3  A    between atoms: C_11  and  N_23
REMARK    4  A    between atoms: N_13  and  C_15
REMARK    5  A    between atoms: N_23  and  S_24
REMARK    6  A    between atoms: S_24  and  C_27
REMARK                            x       y       z     vdW  Elec       q    Type
REMARK                         _______ _______ _______ _____ _____    ______ ____
ROOT
ATOM      1  C   UNL     1       0.059  -4.275  -0.021  0.00  0.00    +0.102 C 
ATOM      2  C   UNL     1       1.482  -4.803   0.273  0.00  0.00    +0.062 C 
ATOM      3  C   UNL     1       1.258  -6.036   1.172  0.00  0.00    +0.162 C 
ATOM      4  N   UNL     1      -0.209  -6.164   1.321  0.00  0.00    -0.219 NA
ATOM      5  N   UNL     1      -0.754  -4.816   1.100  0.00  0.00    -0.245 NA
ATOM      6  H   UNL     1      -1.731  -4.854   0.852  0.00  0.00    +0.142 HD
ENDROOT
BRANCH   1  11
ATOM      7  C   UNL     1      -0.018   1.503   0.010  0.00  0.00    +0.044 C 
ATOM      8  C   UNL     1       0.002  -0.004   0.002  0.00  0.00    -0.050 A 
ATOM      9  C   UNL     1       0.006  -0.689  -1.199  0.00  0.00    +0.003 A 
ATOM     10  C   UNL     1       0.025  -2.071  -1.206  0.00  0.00    +0.005 A 
ATOM     11  C   UNL     1       0.040  -2.768  -0.013  0.00  0.00    -0.029 A 
ATOM     12  C   UNL     1       0.037  -2.084   1.188  0.00  0.00    +0.005 A 
ATOM     13  C   UNL     1       0.023  -0.702   1.195  0.00  0.00    +0.003 A 
ENDBRANCH   1  11
BRANCH   4  14
ATOM     14  C   UNL     1      -0.562  -6.662   2.657  0.00  0.00    +0.097 C 
ATOM     15  C   UNL     1      -2.082  -6.870   2.750  0.00  0.00    +0.044 C 
ATOM     16  C   UNL     1      -2.497  -7.082   4.226  0.00  0.00    +0.167 C 
ATOM     17  S   UNL     1      -1.203  -6.154   5.146  0.00  0.00    -0.029 S 
ATOM     18  O   UNL     1      -0.467  -7.065   5.952  0.00  0.00    -0.174 OA
ATOM     19  O   UNL     1      -1.793  -5.009   5.746  0.00  0.00    -0.174 OA
ATOM     20  C   UNL     1      -0.150  -5.617   3.733  0.00  0.00    +0.186 C 
ENDBRANCH   4  14
BRANCH   3  21
ATOM     21  N   UNL     1       1.810  -7.234   0.535  0.00  0.00    -0.170 NA
ATOM     22  H   UNL     1       1.261  -7.758  -0.069  0.00  0.00    +0.150 HD
BRANCH  21  23
ATOM     23  S   UNL     1       3.371  -7.692   0.844  0.00  0.00    +0.078 S 
ATOM     24  O   UNL     1       3.596  -8.887   0.109  0.00  0.00    -0.151 OA
ATOM     25  O   UNL     1       4.175  -6.532   0.677  0.00  0.00    -0.151 OA
BRANCH  23  26
ATOM     26  C   UNL     1       3.459  -8.125   2.549  0.00  0.00    +0.211 A 
ATOM     27  H   UNL     1       3.328  -9.957   5.071  0.00  0.00    +0.166 HD
ATOM     28  C   UNL     1       3.245  -9.349   3.067  0.00  0.00    +0.133 A 
ATOM     29  N   UNL     1       3.415  -9.242   4.421  0.00  0.00    -0.349 N 
ATOM     30  C   UNL     1       3.727  -7.955   4.684  0.00  0.00    +0.198 A 
ATOM     31  N   UNL     1       3.756  -7.293   3.559  0.00  0.00    -0.217 NA
ENDBRANCH  23  26
ENDBRANCH  21  23
ENDBRANCH   3  21
TORSDOF 5
