REMARK  Name = ZINC12801000
REMARK  13 active torsions:
REMARK  status: ('A' for Active; 'I' for Inactive)
REMARK    1  A    between atoms: C_1  and  C_2
REMARK    2  A    between atoms: C_2  and  C_3
REMARK    3  A    between atoms: C_3  and  C_4
REMARK    4  A    between atoms: C_4  and  N_5
REMARK    5  A    between atoms: C_6  and  N_36
REMARK    6  A    between atoms: C_7  and  N_14
REMARK    7  A    between atoms: N_14  and  C_15
REMARK    8  A    between atoms: C_15  and  C_16
REMARK    9  A    between atoms: C_22  and  C_24
REMARK   10  A    between atoms: C_24  and  C_25
REMARK   11  A    between atoms: C_25  and  C_27
REMARK   12  A    between atoms: C_25  and  N_32
REMARK   13  A    between atoms: C_33  and  C_35
REMARK                            x       y       z     vdW  Elec       q    Type
REMARK                         _______ _______ _______ _____ _____    ______ ____
ROOT
ATOM      1  N   UNL     1      -0.039   0.067  -0.086  0.00  0.00    -0.260 N 
ATOM      2  C   UNL     1       0.289  -0.482   1.102  0.00  0.00    +0.222 C 
ATOM      3  O   UNL     1       0.577  -1.659   1.167  0.00  0.00    -0.275 OA
ENDROOT
BRANCH   1   6
ATOM      4  N   UNL     1       0.597  -1.397  -3.396  0.00  0.00    -0.280 N 
ATOM      5  C   UNL     1       0.726  -0.588  -2.291  0.00  0.00    +0.127 A 
ATOM      6  C   UNL     1      -0.146  -0.747  -1.234  0.00  0.00    +0.140 A 
ATOM      7  C   UNL     1      -1.142  -1.739  -1.318  0.00  0.00    +0.277 A 
ATOM      8  O   UNL     1      -1.923  -1.904  -0.397  0.00  0.00    -0.266 OA
ATOM      9  N   UNL     1      -1.229  -2.501  -2.426  0.00  0.00    -0.273 N 
ATOM     10  H   UNL     1      -1.940  -3.200  -2.490  0.00  0.00    +0.173 HD
ATOM     11  C   UNL     1      -0.369  -2.332  -3.446  0.00  0.00    +0.331 A 
ATOM     12  O   UNL     1      -0.467  -3.036  -4.432  0.00  0.00    -0.246 OA
BRANCH   5  13
ATOM     13  N   UNL     1       1.713   0.367  -2.240  0.00  0.00    -0.343 N 
ATOM     14  H   UNL     1       1.863   0.867  -1.422  0.00  0.00    +0.144 HD
ATOM     15  H   UNL     1       2.260   0.541  -3.022  0.00  0.00    +0.144 HD
ENDBRANCH   5  13
BRANCH   4  16
ATOM     16  C   UNL     1       1.517  -1.239  -4.526  0.00  0.00    +0.128 C 
BRANCH  16  17
ATOM     17  C   UNL     1       2.734  -2.143  -4.322  0.00  0.00    +0.021 C 
BRANCH  17  19
ATOM     18  C   UNL     1       4.912  -2.883  -5.298  0.00  0.00    +0.004 C 
ATOM     19  C   UNL     1       3.694  -1.978  -5.502  0.00  0.00    -0.002 C 
ENDBRANCH  17  19
ENDBRANCH  16  17
ENDBRANCH   4  16
ENDBRANCH   1   6
BRANCH   1  20
ATOM     20  C   UNL     1      -0.284   1.508  -0.185  0.00  0.00    +0.149 C 
BRANCH  20  21
ATOM     21  C   UNL     1      -1.763   1.774  -0.073  0.00  0.00    -0.030 A 
ATOM     22  C   UNL     1      -2.571   1.672  -1.190  0.00  0.00    +0.005 A 
ATOM     23  C   UNL     1      -3.928   1.912  -1.087  0.00  0.00    +0.000 A 
ATOM     24  C   UNL     1      -4.477   2.264   0.132  0.00  0.00    +0.000 A 
ATOM     25  C   UNL     1      -3.668   2.372   1.249  0.00  0.00    +0.000 A 
ATOM     26  C   UNL     1      -2.312   2.127   1.146  0.00  0.00    +0.005 A 
ENDBRANCH  20  21
ENDBRANCH   1  20
BRANCH   2  27
ATOM     27  C   UNL     1       0.297   0.366   2.347  0.00  0.00    +0.124 C 
BRANCH  27  28
ATOM     28  C   UNL     1       0.839  -0.454   3.520  0.00  0.00    +0.119 C 
BRANCH  28  29
ATOM     29  C   UNL     1       0.732   0.352   4.788  0.00  0.00    +0.010 A 
ATOM     30  C   UNL     1      -0.202   0.282   5.768  0.00  0.00    +0.013 A 
ATOM     31  C   UNL     1      -0.098   1.130   6.855  0.00  0.00    +0.008 A 
ATOM     32  C   UNL     1       0.935   2.006   6.909  0.00  0.00    +0.045 A 
ATOM     33  S   UNL     1       1.809   1.641   5.395  0.00  0.00    -0.100 S 
ENDBRANCH  28  29
BRANCH  28  34
ATOM     34  N   UNL     1       2.242  -0.792   3.272  0.00  0.00    -0.308 N 
ATOM     35  C   UNL     1       3.153   0.188   3.112  0.00  0.00    +0.210 C 
ATOM     36  O   UNL     1       2.811   1.350   3.173  0.00  0.00    -0.276 OA
ATOM     37  C   UNL     1       4.597  -0.159   2.857  0.00  0.00    +0.109 C 
ATOM     38  H   UNL     1       2.516  -1.721   3.223  0.00  0.00    +0.149 HD
ENDBRANCH  28  34
ENDBRANCH  27  28
ENDBRANCH   2  27
TORSDOF 11
