REMARK  Name = ZINC66929200
REMARK  7 active torsions:
REMARK  status: ('A' for Active; 'I' for Inactive)
REMARK    1  A    between atoms: C_10  and  C_11
REMARK    2  A    between atoms: C_10  and  O_28
REMARK    3  A    between atoms: C_11  and  N_12
REMARK    4  A    between atoms: C_13  and  C_15
REMARK    5  A    between atoms: C_18  and  N_24
REMARK    6  A    between atoms: C_19  and  N_21
REMARK    7  A    between atoms: N_24  and  C_25
REMARK                            x       y       z     vdW  Elec       q    Type
REMARK                         _______ _______ _______ _____ _____    ______ ____
ROOT
ATOM      1  N   UNL     1       5.200   1.384   0.710  0.00  0.00    -0.308 N 
ATOM      2  C   UNL     1       5.999   2.315   1.268  0.00  0.00    +0.244 C 
ATOM      3  O   UNL     1       6.722   2.016   2.199  0.00  0.00    -0.270 OA
ATOM      4  H   UNL     1       4.623   1.622  -0.032  0.00  0.00    +0.149 HD
ENDROOT
BRANCH   2   5
ATOM      5  C   UNL     1       5.996   3.696   0.750  0.00  0.00    +0.039 A 
ATOM      6  C   UNL     1       5.160   4.042  -0.317  0.00  0.00    +0.015 A 
ATOM      7  C   UNL     1       5.159   5.331  -0.797  0.00  0.00    +0.026 A 
ATOM      8  C   UNL     1       5.989   6.291  -0.224  0.00  0.00    +0.058 A 
ATOM      9  C   UNL     1       6.822   5.949   0.838  0.00  0.00    +0.148 A 
ATOM     10  C   UNL     1       6.824   4.663   1.327  0.00  0.00    +0.047 A 
BRANCH   9  11
ATOM     11  N   UNL     1       7.704   6.972   1.444  0.00  0.00    +0.058 N 
ATOM     12  O   UNL     1       8.344   6.707   2.435  0.00  0.00    -0.126 OA
ATOM     13  O   UNL     1       7.784   8.072   0.949  0.00  0.00    -0.126 OA
ENDBRANCH   9  11
BRANCH   8  14
ATOM     14  N   UNL     1       5.986   7.593  -0.712  0.00  0.00    -0.339 N 
ATOM     15  H   UNL     1       6.629   8.237  -0.378  0.00  0.00    +0.146 HD
BRANCH  14  16
ATOM     16  C   UNL     1       5.011   7.990  -1.731  0.00  0.00    +0.071 C 
ATOM     17  C   UNL     1       5.538   8.736  -2.959  0.00  0.00    +0.024 C 
ATOM     18  C   UNL     1       4.732   9.485  -1.896  0.00  0.00    +0.024 C 
ENDBRANCH  14  16
ENDBRANCH   8  14
ENDBRANCH   2   5
BRANCH   1  19
ATOM     19  C   UNL     1       5.203   0.012   1.225  0.00  0.00    +0.144 C 
BRANCH  19  29
ATOM     20  C   UNL     1       4.569  -4.885   1.782  0.00  0.00    +0.000 A 
ATOM     21  C   UNL     1       4.486  -3.822   2.662  0.00  0.00    +0.000 A 
ATOM     22  C   UNL     1       4.407  -2.534   2.174  0.00  0.00    +0.007 A 
ATOM     23  C   UNL     1       4.411  -2.296   0.806  0.00  0.00    -0.011 A 
ATOM     24  C   UNL     1       4.499  -3.354  -0.070  0.00  0.00    -0.041 A 
ATOM     25  C   UNL     1       4.575  -4.650   0.422  0.00  0.00    +0.004 A 
ATOM     26  C   UNL     1       4.525  -3.169  -1.565  0.00  0.00    +0.035 C 
ATOM     27  C   UNL     1       4.009  -1.782  -1.944  0.00  0.00    +0.008 C 
ATOM     28  C   UNL     1       4.765  -0.740  -1.111  0.00  0.00    +0.041 C 
ATOM     29  C   UNL     1       4.313  -0.866   0.343  0.00  0.00    +0.107 C 
BRANCH  29  30
ATOM     30  O   UNL     1       2.959  -0.425   0.455  0.00  0.00    -0.382 OA
ATOM     31  H   UNL     1       2.607  -0.460   1.355  0.00  0.00    +0.211 HD
ENDBRANCH  29  30
ENDBRANCH  19  29
ENDBRANCH   1  19
TORSDOF 7
