REMARK  Name = ZINC06587259
REMARK  10 active torsions:
REMARK  status: ('A' for Active; 'I' for Inactive)
REMARK    1  A    between atoms: C_4  and  C_7
REMARK    2  A    between atoms: C_7  and  C_9
REMARK    3  A    between atoms: C_7  and  C_23
REMARK    4  A    between atoms: C_9  and  N_54
REMARK    5  A    between atoms: C_10  and  C_11
REMARK    6  A    between atoms: C_10  and  N_54
REMARK    7  A    between atoms: C_11  and  C_13
REMARK    8  A    between atoms: C_11  and  O_22
REMARK    9  A    between atoms: C_13  and  O_14
REMARK   10  A    between atoms: O_14  and  C_15
REMARK                            x       y       z     vdW  Elec       q    Type
REMARK                         _______ _______ _______ _____ _____    ______ ____
ROOT
ATOM      1  C   UNL     1      -4.170   0.778   2.576  0.00  0.00    +0.034 C 
ENDROOT
BRANCH   1   2
ATOM      2  C   UNL     1      -4.859   1.144   3.865  0.00  0.00    -0.017 A 
ATOM      3  C   UNL     1      -5.155   2.382   4.289  0.00  0.00    +0.087 A 
ATOM      4  N   UNL     1      -5.784   2.323   5.503  0.00  0.00    -0.360 N 
ATOM      5  H   UNL     1      -6.095   3.091   6.008  0.00  0.00    +0.165 HD
ATOM      6  C   UNL     1      -5.902   1.011   5.905  0.00  0.00    +0.047 A 
ATOM      7  C   UNL     1      -5.329   0.215   4.896  0.00  0.00    +0.003 A 
ATOM      8  C   UNL     1      -5.306  -1.174   5.034  0.00  0.00    +0.010 A 
ATOM      9  C   UNL     1      -5.842  -1.754   6.150  0.00  0.00    +0.001 A 
ATOM     10  C   UNL     1      -6.409  -0.973   7.147  0.00  0.00    +0.002 A 
ATOM     11  C   UNL     1      -6.442   0.400   7.032  0.00  0.00    +0.026 A 
ENDBRANCH   1   2
BRANCH   1  15
ATOM     12  C   UNL     1      -6.492   2.174  -0.726  0.00  0.00    +0.000 A 
ATOM     13  C   UNL     1      -6.223   0.825  -0.591  0.00  0.00    +0.000 A 
ATOM     14  C   UNL     1      -5.472   0.373   0.478  0.00  0.00    +0.004 A 
ATOM     15  C   UNL     1      -4.989   1.270   1.411  0.00  0.00    -0.042 A 
ATOM     16  C   UNL     1      -5.261   2.619   1.279  0.00  0.00    +0.004 A 
ATOM     17  C   UNL     1      -6.008   3.071   0.207  0.00  0.00    +0.000 A 
ENDBRANCH   1  15
BRANCH   1  18
ATOM     18  C   UNL     1      -2.785   1.427   2.537  0.00  0.00    -0.070 C 
BRANCH  18  19
ATOM     19  N   UNL     1      -2.070   0.968   1.331  0.00  0.00    +0.381 N 
ATOM     20  H   UNL     1      -2.605   1.238   0.497  0.00  0.00    -0.086 HD
ATOM     21  H   UNL     1      -1.975  -0.054   1.361  0.00  0.00    -0.086 HD
BRANCH  19  22
ATOM     22  C   UNL     1      -0.729   1.579   1.267  0.00  0.00    -0.047 C 
BRANCH  22  23
ATOM     23  C   UNL     1      -0.013   1.086   0.008  0.00  0.00    +0.135 C 
BRANCH  23  24
ATOM     24  O   UNL     1      -0.704   1.559  -1.150  0.00  0.00    -0.390 OA
ATOM     25  H   UNL     1      -0.756   2.523  -1.210  0.00  0.00    +0.210 HD
ENDBRANCH  23  24
BRANCH  23  26
ATOM     26  C   UNL     1       1.423   1.615  -0.003  0.00  0.00    +0.258 C 
BRANCH  26  27
ATOM     27  O   UNL     1       2.126   1.061  -1.116  0.00  0.00    -0.487 OA
BRANCH  27  28
ATOM     28  C   UNL     1       3.425   1.433  -1.273  0.00  0.00    +0.156 A 
ATOM     29  C   UNL     1       4.007   2.316  -0.377  0.00  0.00    +0.048 A 
ATOM     30  C   UNL     1       5.328   2.689  -0.535  0.00  0.00    +0.004 A 
ATOM     31  C   UNL     1       6.068   2.190  -1.591  0.00  0.00    +0.003 A 
ATOM     32  C   UNL     1       5.490   1.313  -2.490  0.00  0.00    +0.042 A 
ATOM     33  C   UNL     1       4.169   0.932  -2.333  0.00  0.00    +0.165 A 
ATOM     34  F   UNL     1       3.603   0.075  -3.212  0.00  0.00    -0.202 F 
ENDBRANCH  27  28
ENDBRANCH  26  27
ENDBRANCH  23  26
ENDBRANCH  22  23
ENDBRANCH  19  22
ENDBRANCH  18  19
ENDBRANCH   1  18
TORSDOF 10
