REMARK  Name = ZINC16347232
REMARK  6 active torsions:
REMARK  status: ('A' for Active; 'I' for Inactive)
REMARK    1  A    between atoms: C_1  and  C_2
REMARK    2  A    between atoms: C_7  and  N_8
REMARK    3  A    between atoms: N_11  and  C_14
REMARK    4  A    between atoms: N_17  and  C_22
REMARK    5  A    between atoms: C_31  and  C_34
REMARK    6  A    between atoms: C_34  and  C_35
REMARK                            x       y       z     vdW  Elec       q    Type
REMARK                         _______ _______ _______ _____ _____    ______ ____
ROOT
ATOM      1  C   UNL     1       0.002  -0.004   0.002  0.00  0.00    +0.074 A 
ATOM      2  C   UNL     1       0.611  -0.702  -1.063  0.00  0.00    +0.157 A 
ATOM      3  N   UNL     1       0.630  -2.005  -1.072  0.00  0.00    -0.174 NA
ATOM      4  N   UNL     1       0.051  -2.742  -0.034  0.00  0.00    -0.222 N 
ATOM      5  C   UNL     1      -0.540  -2.117   1.003  0.00  0.00    +0.288 A 
ATOM      6  O   UNL     1      -1.043  -2.767   1.907  0.00  0.00    -0.265 OA
ATOM      7  C   UNL     1      -0.571  -0.715   1.041  0.00  0.00    +0.129 A 
ATOM      8 CL   UNL     1      -1.321   0.114   2.368  0.00  0.00    -0.076 Cl
ENDROOT
BRANCH   4   9
ATOM      9  C   UNL     1       0.089  -4.206  -0.073  0.00  0.00    +0.068 C 
ATOM     10  C   UNL     1       0.837  -4.730   1.155  0.00  0.00    +0.034 C 
ATOM     11  C   UNL     1       0.876  -6.259   1.114  0.00  0.00    -0.008 C 
ATOM     12  C   UNL     1      -0.552  -6.807   1.114  0.00  0.00    +0.007 C 
ATOM     13  C   UNL     1      -1.299  -6.283  -0.114  0.00  0.00    -0.008 C 
ATOM     14  C   UNL     1      -1.339  -4.754  -0.073  0.00  0.00    +0.034 C 
ATOM     15  C   UNL     1      -0.578  -6.740  -1.384  0.00  0.00    +0.011 C 
ATOM     16  C   UNL     1       0.851  -6.193  -1.384  0.00  0.00    -0.016 C 
ATOM     17  C   UNL     1       1.598  -6.717  -0.155  0.00  0.00    +0.011 C 
ATOM     18  C   UNL     1       0.811  -4.664  -1.342  0.00  0.00    +0.037 C 
BRANCH  16  19
ATOM     19  C   UNL     1       1.573  -6.650  -2.653  0.00  0.00    +0.132 C 
BRANCH  19  20
ATOM     20  C   UNL     1       0.837  -6.134  -3.863  0.00  0.00    +0.357 C 
ATOM     21  O   UNL     1      -0.162  -5.468  -3.724  0.00  0.00    -0.246 OA
ATOM     22  O   UNL     1       1.291  -6.413  -5.094  0.00  0.00    -0.246 OA
ENDBRANCH  19  20
ENDBRANCH  16  19
ENDBRANCH   4   9
BRANCH   1  26
ATOM     23  N   UNL     1       0.504   3.975  -1.041  0.00  0.00    -0.327 N 
ATOM     24  C   UNL     1       1.285   3.453   0.089  0.00  0.00    +0.124 C 
ATOM     25  C   UNL     1       1.348   1.926  -0.001  0.00  0.00    +0.124 C 
ATOM     26  N   UNL     1      -0.017   1.381   0.010  0.00  0.00    -0.324 N 
ATOM     27  C   UNL     1      -0.798   1.903  -1.120  0.00  0.00    +0.124 C 
ATOM     28  C   UNL     1      -0.861   3.429  -1.031  0.00  0.00    +0.124 C 
BRANCH  23  35
ATOM     29  C   UNL     1       1.573   5.343  -3.295  0.00  0.00    +0.045 C 
ATOM     30  C   UNL     1       0.996   6.080  -2.113  0.00  0.00    -0.029 A 
ATOM     31  C   UNL     1       0.976   7.461  -2.103  0.00  0.00    +0.006 A 
ATOM     32  C   UNL     1       0.447   8.139  -1.020  0.00  0.00    +0.020 A 
ATOM     33  C   UNL     1      -0.064   7.436   0.057  0.00  0.00    +0.043 A 
ATOM     34  C   UNL     1      -0.050   6.054   0.051  0.00  0.00    +0.043 A 
ATOM     35  C   UNL     1       0.485   5.371  -1.034  0.00  0.00    +0.034 A 
ATOM     36 CL   UNL     1      -0.727   8.291   1.415  0.00  0.00    -0.083 Cl
ENDBRANCH  23  35
ENDBRANCH   1  26
TORSDOF 5
