REMARK  Name = ZINC35375784
REMARK  13 active torsions:
REMARK  status: ('A' for Active; 'I' for Inactive)
REMARK    1  A    between atoms: C_9  and  C_17
REMARK    2  A    between atoms: C_17  and  C_18
REMARK    3  A    between atoms: C_18  and  C_19
REMARK    4  A    between atoms: C_19  and  C_20
REMARK    5  A    between atoms: C_20  and  O_21
REMARK    6  A    between atoms: O_21  and  P_22
REMARK    7  A    between atoms: P_22  and  O_25
REMARK    8  A    between atoms: O_25  and  C_26
REMARK    9  A    between atoms: C_27  and  O_40
REMARK   10  A    between atoms: C_29  and  O_39
REMARK   11  A    between atoms: C_31  and  O_38
REMARK   12  A    between atoms: C_32  and  O_37
REMARK   13  A    between atoms: C_34  and  O_36
REMARK                            x       y       z     vdW  Elec       q    Type
REMARK                         _______ _______ _______ _____ _____    ______ ____
ROOT
ATOM      1  O   UNL     1       4.691  -8.301  -2.964  0.00  0.00    -0.285 OA
ENDROOT
BRANCH   1   2
ATOM      2  P   UNL     1       4.577  -9.172  -4.313  0.00  0.00    +0.505 P 
ATOM      3  O   UNL     1       3.296  -8.771  -5.078  0.00  0.00    -0.225 OA
ATOM      4  O   UNL     1       5.812  -8.907  -5.203  0.00  0.00    -0.116 OA
BRANCH   2   5
ATOM      5  O   UNL     1       4.511 -10.736  -3.938  0.00  0.00    -0.276 OA
BRANCH   5   6
ATOM      6  C   UNL     1       4.302 -11.762  -4.912  0.00  0.00    +0.192 C 
ATOM      7  C   UNL     1       5.495 -12.720  -4.907  0.00  0.00    +0.177 C 
ATOM      8  C   UNL     1       5.272 -13.817  -5.949  0.00  0.00    +0.177 C 
ATOM      9  C   UNL     1       3.996 -14.590  -5.610  0.00  0.00    +0.176 C 
ATOM     10  C   UNL     1       2.803 -13.632  -5.614  0.00  0.00    +0.177 C 
ATOM     11  C   UNL     1       3.026 -12.535  -4.572  0.00  0.00    +0.177 C 
BRANCH  11  12
ATOM     12  O   UNL     1       3.157 -13.126  -3.278  0.00  0.00    -0.386 OA
ATOM     13  H   UNL     1       2.383 -13.633  -2.997  0.00  0.00    +0.210 HD
ENDBRANCH  11  12
BRANCH  10  14
ATOM     14  O   UNL     1       1.611 -14.354  -5.298  0.00  0.00    -0.386 OA
ATOM     15  H   UNL     1       1.407 -15.068  -5.918  0.00  0.00    +0.210 HD
ENDBRANCH  10  14
BRANCH   9  16
ATOM     16  O   UNL     1       4.127 -15.182  -4.315  0.00  0.00    -0.386 OA
ATOM     17  H   UNL     1       3.353 -15.688  -4.034  0.00  0.00    +0.210 HD
ENDBRANCH   9  16
BRANCH   8  18
ATOM     18  O   UNL     1       6.386 -14.712  -5.945  0.00  0.00    -0.386 OA
ATOM     19  H   UNL     1       6.312 -15.435  -6.582  0.00  0.00    +0.210 HD
ENDBRANCH   8  18
BRANCH   7  20
ATOM     20  O   UNL     1       5.626 -13.311  -3.613  0.00  0.00    -0.386 OA
ATOM     21  H   UNL     1       6.364 -13.931  -3.537  0.00  0.00    +0.210 HD
ENDBRANCH   7  20
ENDBRANCH   5   6
ENDBRANCH   2   5
ENDBRANCH   1   2
BRANCH   1  22
ATOM     22  C   UNL     1       4.665  -6.872  -2.955  0.00  0.00    +0.172 C 
BRANCH  22  23
ATOM     23  C   UNL     1       4.795  -6.369  -1.516  0.00  0.00    +0.029 C 
BRANCH  23  24
ATOM     24  C   UNL     1       4.766  -4.839  -1.507  0.00  0.00    +0.007 C 
BRANCH  24  25
ATOM     25  C   UNL     1       4.896  -4.335  -0.068  0.00  0.00    +0.036 C 
BRANCH  25  34
ATOM     26  C   UNL     1      -0.016   1.312   0.009  0.00  0.00    +0.001 A 
ATOM     27  C   UNL     1       1.244   2.079   0.001  0.00  0.00    +0.008 A 
ATOM     28  C   UNL     1       2.388   1.439  -0.013  0.00  0.00    -0.017 A 
ATOM     29  C   UNL     1       3.684   2.140  -0.021  0.00  0.00    +0.009 A 
ATOM     30  C   UNL     1       4.804   1.449  -0.035  0.00  0.00    +0.009 A 
ATOM     31  C   UNL     1       4.823  -0.021  -0.043  0.00  0.00    -0.017 A 
ATOM     32  C   UNL     1       6.110  -0.745  -0.059  0.00  0.00    +0.009 A 
ATOM     33  C   UNL     1       6.128  -2.061  -0.066  0.00  0.00    +0.005 A 
ATOM     34  C   UNL     1       4.868  -2.829  -0.059  0.00  0.00    -0.040 A 
ATOM     35  C   UNL     1       3.724  -2.189  -0.044  0.00  0.00    -0.014 A 
ATOM     36  C   UNL     1       3.709  -0.714  -0.036  0.00  0.00    -0.002 A 
ATOM     37  C   UNL     1       2.402  -0.035  -0.021  0.00  0.00    -0.002 A 
ATOM     38  C   UNL     1       1.289  -0.728  -0.014  0.00  0.00    -0.017 A 
ATOM     39  C   UNL     1       0.002  -0.004   0.002  0.00  0.00    +0.008 A 
ATOM     40  C   UNL     1       1.308  -2.198  -0.021  0.00  0.00    +0.009 A 
ATOM     41  C   UNL     1       2.428  -2.889  -0.036  0.00  0.00    +0.009 A 
ENDBRANCH  25  34
ENDBRANCH  24  25
ENDBRANCH  23  24
ENDBRANCH  22  23
ENDBRANCH   1  22
TORSDOF 13
