REMARK  Name = ZINC58647799
REMARK  5 active torsions:
REMARK  status: ('A' for Active; 'I' for Inactive)
REMARK    1  A    between atoms: C_3  and  C_17
REMARK    2  A    between atoms: C_5  and  S_7
REMARK    3  A    between atoms: S_7  and  N_10
REMARK    4  A    between atoms: C_17  and  O_19
REMARK    5  A    between atoms: O_19  and  C_20
REMARK                            x       y       z     vdW  Elec       q    Type
REMARK                         _______ _______ _______ _____ _____    ______ ____
ROOT
ATOM      1  C   UNL     1      -0.022   1.389   0.008  0.00  0.00    +0.003 A 
ATOM      2  C   UNL     1       1.163   2.095   0.001  0.00  0.00    +0.015 A 
ATOM      3  C   UNL     1       2.380   1.410   0.026  0.00  0.00    +0.061 A 
ATOM      4  C   UNL     1       2.388   0.014   0.059  0.00  0.00    +0.043 A 
ATOM      5  C   UNL     1       1.196  -0.679   0.067  0.00  0.00    +0.106 A 
ATOM      6  C   UNL     1      -0.007   0.005   0.041  0.00  0.00    +0.028 A 
ENDROOT
BRANCH   5   7
ATOM      7  S   UNL     1       1.204  -2.441   0.108  0.00  0.00    +0.061 S 
ATOM      8  O   UNL     1      -0.036  -2.865  -0.443  0.00  0.00    -0.153 OA
ATOM      9  O   UNL     1       2.455  -2.854  -0.424  0.00  0.00    -0.153 OA
BRANCH   7  10
ATOM     10  N   UNL     1       1.194  -2.893   1.701  0.00  0.00    -0.166 NA
ATOM     11  C   UNL     1       2.447  -3.091   2.449  0.00  0.00    +0.128 C 
ATOM     12  C   UNL     1       2.475  -2.092   3.607  0.00  0.00    +0.121 C 
ATOM     13  N   UNL     1       1.201  -2.085   4.313  0.00  0.00    -0.313 N 
ATOM     14  C   UNL     1       0.044  -2.497   3.793  0.00  0.00    +0.229 C 
ATOM     15  O   UNL     1      -0.965  -2.368   4.453  0.00  0.00    -0.274 OA
ATOM     16  C   UNL     1      -0.066  -3.108   2.428  0.00  0.00    +0.205 C 
ATOM     17  H   UNL     1       1.194  -1.757   5.226  0.00  0.00    +0.149 HD
ENDBRANCH   7  10
ENDBRANCH   5   7
BRANCH   3  18
ATOM     18  C   UNL     1       3.653   2.160   0.018  0.00  0.00    +0.344 C 
ATOM     19  O   UNL     1       4.710   1.562   0.040  0.00  0.00    -0.245 OA
BRANCH  18  20
ATOM     20  O   UNL     1       3.642   3.506  -0.015  0.00  0.00    -0.422 OA
BRANCH  20  21
ATOM     21  C   UNL     1       4.831   4.157   0.082  0.00  0.00    +0.133 A 
ATOM     22  C   UNL     1       5.676   4.227  -1.023  0.00  0.00    +0.050 A 
ATOM     23  C   UNL     1       6.884   4.883  -0.941  0.00  0.00    +0.050 A 
ATOM     24  C   UNL     1       7.272   5.482   0.251  0.00  0.00    +0.136 A 
ATOM     25  C   UNL     1       6.421   5.413   1.368  0.00  0.00    +0.027 A 
ATOM     26  C   UNL     1       5.197   4.752   1.274  0.00  0.00    +0.058 A 
ATOM     27  C   UNL     1       7.123   6.130   2.431  0.00  0.00    +0.001 A 
ATOM     28  C   UNL     1       8.284   6.558   1.907  0.00  0.00    +0.109 A 
ATOM     29  O   UNL     1       8.370   6.176   0.623  0.00  0.00    -0.459 OA
ATOM     30  C   UNL     1       9.309   7.350   2.686  0.00  0.00    +0.075 C 
ATOM     31  C   UNL     1       8.637   7.917   3.941  0.00  0.00    +0.008 C 
ATOM     32  C   UNL     1       7.896   6.796   4.676  0.00  0.00    +0.005 C 
ATOM     33  C   UNL     1       6.677   6.368   3.849  0.00  0.00    +0.039 C 
ENDBRANCH  20  21
ENDBRANCH  18  20
ENDBRANCH   3  18
TORSDOF 5
