REMARK  Name = ZINC08133241
REMARK  10 active torsions:
REMARK  status: ('A' for Active; 'I' for Inactive)
REMARK    1  A    between atoms: C_1  and  C_2
REMARK    2  A    between atoms: C_3  and  C_28
REMARK    3  A    between atoms: C_4  and  C_26
REMARK    4  A    between atoms: C_5  and  S_9
REMARK    5  A    between atoms: C_7  and  C_8
REMARK    6  A    between atoms: S_9  and  C_10
REMARK    7  A    between atoms: C_10  and  C_11
REMARK    8  A    between atoms: C_11  and  C_13
REMARK    9  A    between atoms: C_14  and  N_25
REMARK   10  A    between atoms: N_15  and  C_22
REMARK                            x       y       z     vdW  Elec       q    Type
REMARK                         _______ _______ _______ _____ _____    ______ ____
ROOT
ATOM      1  C   UNL     1       3.252   2.838   5.225  0.00  0.00    +0.182 C 
ATOM      2  O   UNL     1       2.879   3.103   6.350  0.00  0.00    -0.291 OA
ENDROOT
BRANCH   1   3
ATOM      3  C   UNL     1       4.505   2.220   5.024  0.00  0.00    +0.120 A 
ATOM      4  C   UNL     1       5.399   2.029   6.092  0.00  0.00    +0.116 A 
ATOM      5  N   UNL     1       6.597   1.421   5.849  0.00  0.00    -0.278 N 
ATOM      6  C   UNL     1       6.938   1.017   4.615  0.00  0.00    +0.331 A 
ATOM      7  O   UNL     1       8.018   0.485   4.451  0.00  0.00    -0.246 OA
ATOM      8  N   UNL     1       6.128   1.178   3.556  0.00  0.00    -0.274 N 
ATOM      9  H   UNL     1       6.425   0.861   2.656  0.00  0.00    +0.173 HD
ATOM     10  C   UNL     1       4.920   1.763   3.692  0.00  0.00    +0.266 A 
ATOM     11  O   UNL     1       4.188   1.907   2.730  0.00  0.00    -0.267 OA
BRANCH   5  12
ATOM     12  C   UNL     1       7.533   1.211   6.957  0.00  0.00    +0.094 C 
ATOM     13  C   UNL     1       8.168  -0.174   7.092  0.00  0.00    +0.027 C 
ATOM     14  C   UNL     1       7.094   0.276   8.085  0.00  0.00    +0.027 C 
ENDBRANCH   5  12
BRANCH   4  15
ATOM     15  N   UNL     1       5.073   2.437   7.348  0.00  0.00    -0.344 N 
ATOM     16  H   UNL     1       4.141   2.496   7.613  0.00  0.00    +0.144 HD
ATOM     17  H   UNL     1       5.771   2.670   7.980  0.00  0.00    +0.144 HD
ENDBRANCH   4  15
ENDBRANCH   1   3
BRANCH   1  18
ATOM     18  C   UNL     1       2.378   3.170   4.043  0.00  0.00    +0.155 C 
BRANCH  18  19
ATOM     19  S   UNL     1       0.850   3.949   4.623  0.00  0.00    -0.097 S 
BRANCH  19  24
ATOM     20  C   UNL     1      -1.811   4.841  -0.682  0.00  0.00    +0.046 C 
ATOM     21  C   UNL     1      -1.183   4.634   0.672  0.00  0.00    -0.025 A 
ATOM     22  C   UNL     1      -1.849   5.035   1.818  0.00  0.00    -0.026 A 
ATOM     23  C   UNL     1      -1.227   4.829   3.054  0.00  0.00    +0.087 A 
ATOM     24  C   UNL     1       0.042   4.221   3.081  0.00  0.00    +0.115 A 
ATOM     25  N   UNL     1       0.631   3.853   1.954  0.00  0.00    -0.244 NA
ATOM     26  C   UNL     1       0.061   4.038   0.779  0.00  0.00    +0.043 A 
ATOM     27  C   UNL     1       0.780   3.598  -0.469  0.00  0.00    +0.066 C 
ATOM     28  C   UNL     1      -3.207   5.681   1.735  0.00  0.00    +0.045 C 
BRANCH  23  29
ATOM     29  C   UNL     1      -1.870   5.229   4.269  0.00  0.00    +0.102 C 
ATOM     30  N   UNL     1      -2.380   5.547   5.234  0.00  0.00    -0.191 NA
ENDBRANCH  23  29
ENDBRANCH  19  24
ENDBRANCH  18  19
ENDBRANCH   1  18
TORSDOF 7
