REMARK  Name = ZINC36757963
REMARK  11 active torsions:
REMARK  status: ('A' for Active; 'I' for Inactive)
REMARK    1  A    between atoms: C_1  and  C_2
REMARK    2  A    between atoms: N_5  and  S_11
REMARK    3  A    between atoms: C_7  and  C_10
REMARK    4  A    between atoms: S_11  and  C_14
REMARK    5  A    between atoms: C_18  and  C_20
REMARK    6  A    between atoms: C_20  and  O_22
REMARK    7  A    between atoms: O_22  and  C_23
REMARK    8  A    between atoms: C_23  and  C_25
REMARK    9  A    between atoms: C_23  and  C_26
REMARK   10  A    between atoms: N_28  and  C_29
REMARK   11  A    between atoms: C_30  and  C_34
REMARK                            x       y       z     vdW  Elec       q    Type
REMARK                         _______ _______ _______ _____ _____    ______ ____
ROOT
ATOM      1  C   UNL     1       4.527   5.169  -0.354  0.00  0.00    +0.340 C 
ATOM      2  O   UNL     1       5.487   4.583   0.105  0.00  0.00    -0.245 OA
ENDROOT
BRANCH   1   7
ATOM      3  C   UNL     1       2.728   2.379  -2.109  0.00  0.00    +0.106 A 
ATOM      4  C   UNL     1       1.636   3.050  -2.630  0.00  0.00    +0.028 A 
ATOM      5  C   UNL     1       1.481   4.407  -2.413  0.00  0.00    +0.003 A 
ATOM      6  C   UNL     1       2.417   5.102  -1.675  0.00  0.00    +0.015 A 
ATOM      7  C   UNL     1       3.522   4.431  -1.146  0.00  0.00    +0.061 A 
ATOM      8  C   UNL     1       3.668   3.060  -1.364  0.00  0.00    +0.043 A 
BRANCH   3   9
ATOM      9  S   UNL     1       2.915   0.650  -2.391  0.00  0.00    +0.061 S 
ATOM     10  O   UNL     1       4.300   0.363  -2.253  0.00  0.00    -0.153 OA
ATOM     11  O   UNL     1       2.189   0.351  -3.576  0.00  0.00    -0.153 OA
BRANCH   9  15
ATOM     12  C   UNL     1      -0.019   1.526   0.010  0.00  0.00    +0.039 C 
ATOM     13  C   UNL     1       0.002  -0.004   0.002  0.00  0.00    +0.131 C 
ATOM     14  C   UNL     1       0.722  -0.499  -1.258  0.00  0.00    +0.140 C 
ATOM     15  N   UNL     1       2.143  -0.135  -1.154  0.00  0.00    -0.172 NA
ATOM     16  C   UNL     1       2.860  -0.488   0.082  0.00  0.00    +0.140 C 
ATOM     17  C   UNL     1       2.036   0.007   1.277  0.00  0.00    +0.131 C 
ATOM     18  O   UNL     1       0.695  -0.479   1.159  0.00  0.00    -0.371 OA
ATOM     19  C   UNL     1       2.656  -0.513   2.575  0.00  0.00    +0.039 C 
ENDBRANCH   9  15
ENDBRANCH   3   9
ENDBRANCH   1   7
BRANCH   1  20
ATOM     20  O   UNL     1       4.380   6.491  -0.141  0.00  0.00    -0.449 OA
BRANCH  20  21
ATOM     21  C   UNL     1       5.391   7.139   0.633  0.00  0.00    +0.259 C 
ATOM     22  C   UNL     1       6.497   7.648  -0.294  0.00  0.00    +0.062 C 
BRANCH  21  23
ATOM     23  C   UNL     1       4.785   8.302   1.377  0.00  0.00    +0.258 C 
ATOM     24  O   UNL     1       3.604   8.550   1.256  0.00  0.00    -0.271 OA
ATOM     25  N   UNL     1       5.556   9.066   2.176  0.00  0.00    -0.276 N 
ATOM     26  H   UNL     1       6.500   8.867   2.273  0.00  0.00    +0.155 HD
BRANCH  25  27
ATOM     27  C   UNL     1       4.998  10.135   2.861  0.00  0.00    +0.084 A 
ATOM     28  C   UNL     1       5.633  11.025   3.715  0.00  0.00    +0.065 A 
ATOM     29  C   UNL     1       4.809  12.057   4.301  0.00  0.00    +0.022 A 
ATOM     30  C   UNL     1       3.510  12.040   3.951  0.00  0.00    +0.048 A 
ATOM     31  S   UNL     1       3.403  10.655   2.840  0.00  0.00    -0.081 S 
BRANCH  28  32
ATOM     32  C   UNL     1       7.066  10.923   4.009  0.00  0.00    +0.244 C 
ATOM     33  O   UNL     1       7.731  10.040   3.498  0.00  0.00    -0.270 OA
ATOM     34  N   UNL     1       7.647  11.806   4.844  0.00  0.00    -0.325 N 
ATOM     35  H   UNL     1       7.118  12.509   5.252  0.00  0.00    +0.145 HD
ATOM     36  H   UNL     1       8.595  11.739   5.039  0.00  0.00    +0.145 HD
ENDBRANCH  28  32
ENDBRANCH  25  27
ENDBRANCH  21  23
ENDBRANCH  20  21
ENDBRANCH   1  20
TORSDOF 8
