REMARK  Name = ZINC59331650
REMARK  8 active torsions:
REMARK  status: ('A' for Active; 'I' for Inactive)
REMARK    1  A    between atoms: C_3  and  N_32
REMARK    2  A    between atoms: C_4  and  N_29
REMARK    3  A    between atoms: C_6  and  C_7
REMARK    4  A    between atoms: N_9  and  C_10
REMARK    5  A    between atoms: C_10  and  N_12
REMARK    6  A    between atoms: N_12  and  C_13
REMARK    7  A    between atoms: C_15  and  C_25
REMARK    8  A    between atoms: C_18  and  N_19
REMARK                            x       y       z     vdW  Elec       q    Type
REMARK                         _______ _______ _______ _____ _____    ______ ____
ROOT
ATOM      1  C   UNL     1      -3.644  -0.770   0.420  0.00  0.00    +0.141 C 
ATOM      2  S   UNL     1      -3.700  -2.410   0.908  0.00  0.00    -0.018 S 
ENDROOT
BRANCH   1   5
ATOM      3  C   UNL     1      -1.337  -0.743   0.780  0.00  0.00    +0.250 C 
ATOM      4  O   UNL     1      -1.377  -1.907   1.126  0.00  0.00    -0.270 OA
ATOM      5  N   UNL     1      -2.468  -0.111   0.408  0.00  0.00    -0.264 N 
ATOM      6  H   UNL     1      -2.436   0.818   0.132  0.00  0.00    +0.157 HD
BRANCH   3  12
ATOM      7  C   UNL     1      -0.004   1.318   0.369  0.00  0.00    +0.015 A 
ATOM      8  C   UNL     1       1.200   1.986   0.359  0.00  0.00    +0.026 A 
ATOM      9  C   UNL     1       2.364   1.327   0.745  0.00  0.00    +0.060 A 
ATOM     10  C   UNL     1       2.314  -0.007   1.140  0.00  0.00    +0.148 A 
ATOM     11  C   UNL     1       1.123  -0.676   1.152  0.00  0.00    +0.047 A 
ATOM     12  C   UNL     1      -0.051  -0.021   0.767  0.00  0.00    +0.039 A 
BRANCH   9  13
ATOM     13  N   UNL     1       3.579   2.002   0.735  0.00  0.00    -0.328 N 
ATOM     14  C   UNL     1       4.506   2.081  -0.404  0.00  0.00    +0.105 C 
ATOM     15  C   UNL     1       5.726   2.908   0.055  0.00  0.00    +0.020 C 
ATOM     16  C   UNL     1       5.678   2.770   1.600  0.00  0.00    +0.020 C 
ATOM     17  C   UNL     1       4.149   2.763   1.862  0.00  0.00    +0.105 C 
ENDBRANCH   9  13
BRANCH  10  18
ATOM     18  N   UNL     1       3.555  -0.703   1.549  0.00  0.00    +0.058 N 
ATOM     19  O   UNL     1       3.513  -1.861   1.892  0.00  0.00    -0.126 OA
ATOM     20  O   UNL     1       4.610  -0.113   1.538  0.00  0.00    -0.126 OA
ENDBRANCH  10  18
ENDBRANCH   3  12
ENDBRANCH   1   5
BRANCH   1  21
ATOM     21  N   UNL     1      -4.775  -0.138   0.049  0.00  0.00    -0.295 N 
ATOM     22  H   UNL     1      -4.757   0.811  -0.151  0.00  0.00    +0.154 HD
BRANCH  21  23
ATOM     23  C   UNL     1      -5.976  -0.852  -0.049  0.00  0.00    +0.054 A 
ATOM     24  C   UNL     1      -5.998  -2.097  -0.660  0.00  0.00    +0.037 A 
ATOM     25  C   UNL     1      -7.185  -2.800  -0.756  0.00  0.00    +0.057 A 
ATOM     26  C   UNL     1      -8.352  -2.266  -0.242  0.00  0.00    +0.014 A 
ATOM     27  C   UNL     1      -8.340  -1.026   0.369  0.00  0.00    +0.025 A 
ATOM     28  C   UNL     1      -7.153  -0.316   0.474  0.00  0.00    +0.051 A 
BRANCH  28  29
ATOM     29  N   UNL     1      -7.137   0.936   1.097  0.00  0.00    -0.324 N 
ATOM     30  C   UNL     1      -7.374   2.168   0.328  0.00  0.00    +0.133 C 
ATOM     31  C   UNL     1      -8.452   2.988   1.047  0.00  0.00    +0.178 C 
ATOM     32  O   UNL     1      -8.079   3.156   2.417  0.00  0.00    -0.377 OA
ATOM     33  C   UNL     1      -7.985   1.934   3.152  0.00  0.00    +0.178 C 
ATOM     34  C   UNL     1      -6.889   1.060   2.542  0.00  0.00    +0.133 C 
ENDBRANCH  28  29
BRANCH  25  35
ATOM     35  C   UNL     1      -7.206  -4.151  -1.421  0.00  0.00    +0.417 C 
ATOM     36  F   UNL     1      -6.965  -5.145  -0.467  0.00  0.00    -0.166 F 
ATOM     37  F   UNL     1      -8.458  -4.362  -2.009  0.00  0.00    -0.166 F 
ATOM     38  F   UNL     1      -6.215  -4.201  -2.407  0.00  0.00    -0.166 F 
ENDBRANCH  25  35
ENDBRANCH  21  23
ENDBRANCH   1  21
TORSDOF 8
