REMARK  Name = ZINC02335561
REMARK  6 active torsions:
REMARK  status: ('A' for Active; 'I' for Inactive)
REMARK    1  A    between atoms: C_1  and  C_2
REMARK    2  A    between atoms: C_2  and  O_3
REMARK    3  A    between atoms: O_3  and  C_4
REMARK    4  A    between atoms: C_6  and  C_12
REMARK    5  A    between atoms: C_9  and  O_10
REMARK    6  A    between atoms: C_23  and  N_46
REMARK                            x       y       z     vdW  Elec       q    Type
REMARK                         _______ _______ _______ _____ _____    ______ ____
ROOT
ATOM      1  C   UNL     1       2.489   1.046  -0.016  0.00  0.00    +0.190 C 
ATOM      2  N   UNL     1       3.499   1.874  -0.700  0.00  0.00    -0.316 N 
ATOM      3  C   UNL     1       3.519   1.816  -2.069  0.00  0.00    +0.080 A 
ATOM      4  C   UNL     1       3.014   0.726  -2.795  0.00  0.00    +0.068 A 
ATOM      5  C   UNL     1       3.121   0.825  -4.240  0.00  0.00    -0.027 A 
ATOM      6  C   UNL     1       3.689   1.960  -4.710  0.00  0.00    -0.021 A 
ATOM      7  S   UNL     1       4.088   2.903  -3.264  0.00  0.00    -0.080 S 
ATOM      8  C   UNL     1       3.918   2.312  -6.146  0.00  0.00    -0.036 C 
ATOM      9  C   UNL     1       2.511   0.393  -6.600  0.00  0.00    -0.074 C 
ATOM     10  C   UNL     1       2.639  -0.245  -5.213  0.00  0.00    +0.018 C 
ATOM     11  C   UNL     1       3.800   1.395  -8.389  0.00  0.00    -0.096 C 
ATOM     12  C   UNL     1       2.432  -0.398  -2.025  0.00  0.00    +0.248 C 
ATOM     13  O   UNL     1       2.078  -1.425  -2.574  0.00  0.00    -0.270 OA
ATOM     14  N   UNL     1       2.310  -0.235  -0.693  0.00  0.00    -0.289 N 
ATOM     15  H   UNL     1       4.119   2.432  -0.205  0.00  0.00    +0.149 HD
ATOM     16  H   UNL     1       2.091  -1.012  -0.155  0.00  0.00    +0.151 HD
ATOM     17  N   UNL     1       3.777   1.071  -6.946  0.00  0.00    +0.381 N 
ATOM     18  H   UNL     1       4.562   0.445  -6.731  0.00  0.00    -0.082 HD
ENDROOT
BRANCH   1  21
ATOM     19  C   UNL     1      -1.222   1.752   0.017  0.00  0.00    +0.163 A 
ATOM     20  C   UNL     1      -0.013   1.076   0.008  0.00  0.00    +0.056 A 
ATOM     21  C   UNL     1       1.175   1.783   0.000  0.00  0.00    -0.005 A 
ATOM     22  C   UNL     1       1.160   3.166   0.007  0.00  0.00    +0.026 A 
ATOM     23  C   UNL     1      -0.043   3.847   0.022  0.00  0.00    +0.063 A 
ATOM     24  C   UNL     1      -1.238   3.143   0.030  0.00  0.00    +0.173 A 
ATOM     25 BR   UNL     1      -0.059   5.738   0.032  0.00  0.00    -0.046 Br
BRANCH  24  26
ATOM     26  O   UNL     1      -2.422   3.811   0.045  0.00  0.00    -0.503 OA
ATOM     27  H   UNL     1      -2.774   4.009  -0.834  0.00  0.00    +0.292 HD
ENDBRANCH  24  26
BRANCH  19  28
ATOM     28  O   UNL     1      -2.391   1.058   0.019  0.00  0.00    -0.489 OA
BRANCH  28  30
ATOM     29  C   UNL     1      -3.705  -0.971   0.014  0.00  0.00    +0.048 C 
ATOM     30  C   UNL     1      -2.299  -0.368   0.011  0.00  0.00    +0.226 C 
ENDBRANCH  28  30
ENDBRANCH  19  28
ENDBRANCH   1  21
TORSDOF 4
