REMARK  Name = ZINC66131041
REMARK  5 active torsions:
REMARK  status: ('A' for Active; 'I' for Inactive)
REMARK    1  A    between atoms: C_1  and  C_2
REMARK    2  A    between atoms: C_5  and  C_8
REMARK    3  A    between atoms: C_8  and  C_26
REMARK    4  A    between atoms: N_18  and  C_19
REMARK    5  A    between atoms: C_19  and  C_20
REMARK                            x       y       z     vdW  Elec       q    Type
REMARK                         _______ _______ _______ _____ _____    ______ ____
ROOT
ATOM      1  C   UNL     1      -0.397  -4.176   0.122  0.00  0.00    +0.125 C 
ATOM      2  N   UNL     1      -1.209  -4.725  -0.971  0.00  0.00    -0.319 N 
ATOM      3  C   UNL     1      -2.552  -4.997  -0.736  0.00  0.00    +0.041 A 
ATOM      4  C   UNL     1      -3.494  -4.943  -1.749  0.00  0.00    +0.024 A 
ATOM      5  C   UNL     1      -4.816  -5.231  -1.470  0.00  0.00    +0.002 A 
ATOM      6  C   UNL     1      -5.206  -5.574  -0.184  0.00  0.00    +0.001 A 
ATOM      7  C   UNL     1      -4.281  -5.627   0.837  0.00  0.00    +0.015 A 
ATOM      8  C   UNL     1      -2.945  -5.335   0.571  0.00  0.00    +0.058 A 
ATOM      9  C   UNL     1      -1.923  -5.354   1.632  0.00  0.00    +0.251 C 
ATOM     10  O   UNL     1      -2.190  -5.799   2.732  0.00  0.00    -0.270 OA
ATOM     11  N   UNL     1      -0.690  -4.876   1.373  0.00  0.00    -0.268 N 
ATOM     12  C   UNL     1       1.085  -4.346  -0.218  0.00  0.00    +0.059 C 
ATOM     13  H   UNL     1      -0.815  -4.896  -1.841  0.00  0.00    +0.148 HD
ENDROOT
BRANCH   1  18
ATOM     14  C   UNL     1      -1.582   1.445   0.750  0.00  0.00    +0.044 C 
ATOM     15  C   UNL     1      -1.273  -0.021   0.586  0.00  0.00    -0.050 A 
ATOM     16  C   UNL     1      -1.887  -0.953   1.403  0.00  0.00    +0.004 A 
ATOM     17  C   UNL     1      -1.603  -2.297   1.253  0.00  0.00    +0.007 A 
ATOM     18  C   UNL     1      -0.707  -2.711   0.285  0.00  0.00    -0.006 A 
ATOM     19  C   UNL     1      -0.094  -1.779  -0.532  0.00  0.00    +0.007 A 
ATOM     20  C   UNL     1      -0.381  -0.435  -0.385  0.00  0.00    +0.004 A 
ENDBRANCH   1  18
BRANCH  11  21
ATOM     21  C   UNL     1       0.375  -5.059   2.362  0.00  0.00    +0.145 C 
BRANCH  21  22
ATOM     22  C   UNL     1       0.424  -3.861   3.275  0.00  0.00    -0.030 A 
ATOM     23  C   UNL     1       1.302  -2.826   3.012  0.00  0.00    +0.005 A 
ATOM     24  C   UNL     1       1.346  -1.728   3.850  0.00  0.00    +0.000 A 
ATOM     25  C   UNL     1       0.513  -1.664   4.951  0.00  0.00    +0.000 A 
ATOM     26  C   UNL     1      -0.366  -2.698   5.214  0.00  0.00    +0.000 A 
ATOM     27  C   UNL     1      -0.413  -3.795   4.373  0.00  0.00    +0.005 A 
ENDBRANCH  21  22
ENDBRANCH  11  21
TORSDOF 3
