REMARK  Name = ZINC17095731
REMARK  2 active torsions:
REMARK  status: ('A' for Active; 'I' for Inactive)
REMARK    1  A    between atoms: C_5  and  C_6
REMARK    2  A    between atoms: N_8  and  N_9
REMARK                            x       y       z     vdW  Elec       q    Type
REMARK                         _______ _______ _______ _____ _____    ______ ____
ROOT
ATOM      1  N   UNL     1      -1.968  -3.168   0.005  0.00  0.00    -0.200 N 
ATOM      2  C   UNL     1      -2.268  -3.824   1.141  0.00  0.00    +0.280 A 
ATOM      3  O   UNL     1      -1.614  -3.639   2.151  0.00  0.00    -0.265 OA
ATOM      4  C   UNL     1      -3.404  -4.771   1.147  0.00  0.00    +0.075 A 
ATOM      5  C   UNL     1      -3.904  -5.585   2.264  0.00  0.00    -0.023 A 
ATOM      6  C   UNL     1      -4.960  -6.359   1.966  0.00  0.00    -0.004 A 
ATOM      7  S   UNL     1      -5.293  -6.024   0.256  0.00  0.00    -0.075 S 
ATOM      8  C   UNL     1      -4.088  -4.911  -0.056  0.00  0.00    +0.092 A 
ATOM      9  N   UNL     1      -3.715  -4.203  -1.170  0.00  0.00    -0.328 N 
ATOM     10  H   UNL     1      -4.207  -4.316  -1.998  0.00  0.00    +0.168 HD
ATOM     11  C   UNL     1      -2.676  -3.348  -1.121  0.00  0.00    +0.179 A 
ATOM     12  S   UNL     1      -2.244  -2.476  -2.530  0.00  0.00    -0.011 S 
ATOM     13  C   UNL     1      -5.416  -7.168   3.151  0.00  0.00    +0.043 C 
ATOM     14  C   UNL     1      -4.229  -7.117   4.138  0.00  0.00    +0.010 C 
ATOM     15  C   UNL     1      -3.538  -5.799   3.731  0.00  0.00    +0.037 C 
ENDROOT
BRANCH   1  18
ATOM     16  C   UNL     1      -1.123  -0.943   0.009  0.00  0.00    +0.269 C 
ATOM     17  O   UNL     1      -2.265  -0.523   0.023  0.00  0.00    -0.268 OA
ATOM     18  N   UNL     1      -0.892  -2.271  -0.001  0.00  0.00    -0.214 N 
ATOM     19  H   UNL     1       0.018  -2.605  -0.012  0.00  0.00    +0.176 HD
BRANCH  16  24
ATOM     20  C   UNL     1      -0.017   1.383   0.010  0.00  0.00    +0.022 A 
ATOM     21  C   UNL     1       1.212   1.996   0.001  0.00  0.00    +0.024 A 
ATOM     22  C   UNL     1       2.332   1.230  -0.014  0.00  0.00    +0.056 A 
ATOM     23  S   UNL     1       1.751  -0.347  -0.017  0.00  0.00    -0.077 S 
ATOM     24  C   UNL     1       0.002  -0.004   0.002  0.00  0.00    +0.077 A 
ATOM     25 BR   UNL     1       4.134   1.804  -0.028  0.00  0.00    -0.043 Br
ENDBRANCH  16  24
ENDBRANCH   1  18
TORSDOF 2
