REMARK  Name = ZINC00288815
REMARK  4 active torsions:
REMARK  status: ('A' for Active; 'I' for Inactive)
REMARK    1  A    between atoms: C_4  and  O_18
REMARK    2  A    between atoms: C_5  and  N_7
REMARK    3  A    between atoms: N_7  and  S_8
REMARK    4  A    between atoms: S_8  and  C_11
REMARK                            x       y       z     vdW  Elec       q    Type
REMARK                         _______ _______ _______ _____ _____    ______ ____
ROOT
ATOM      1  N   UNL     1      -0.011   0.966   0.007  0.00  0.00    -0.213 N 
ATOM      2  H   UNL     1       0.008   0.019   0.216  0.00  0.00    +0.174 HD
ENDROOT
BRANCH   1   7
ATOM      3  C   UNL     1       2.482   3.669   0.046  0.00  0.00    +0.002 A 
ATOM      4  C   UNL     1       3.557   3.047  -0.561  0.00  0.00    +0.004 A 
ATOM      5  C   UNL     1       3.453   1.734  -0.982  0.00  0.00    +0.047 A 
ATOM      6  C   UNL     1       2.270   1.038  -0.796  0.00  0.00    +0.139 A 
ATOM      7  C   UNL     1       1.187   1.664  -0.184  0.00  0.00    +0.089 A 
ATOM      8  C   UNL     1       1.297   2.983   0.231  0.00  0.00    +0.028 A 
BRANCH   6   9
ATOM      9  O   UNL     1       2.167  -0.253  -1.210  0.00  0.00    -0.505 OA
ATOM     10  H   UNL     1       1.850  -0.350  -2.119  0.00  0.00    +0.292 HD
ENDBRANCH   6   9
ENDBRANCH   1   7
BRANCH   1  11
ATOM     11  S   UNL     1      -1.460   1.755  -0.129  0.00  0.00    +0.072 S 
ATOM     12  O   UNL     1      -2.474   0.766  -0.016  0.00  0.00    -0.150 OA
ATOM     13  O   UNL     1      -1.393   2.880   0.736  0.00  0.00    -0.150 OA
BRANCH  11  14
ATOM     14  C   UNL     1      -1.556   2.388  -1.771  0.00  0.00    +0.109 A 
ATOM     15  C   UNL     1      -1.079   3.655  -2.052  0.00  0.00    +0.030 A 
ATOM     16  C   UNL     1      -1.149   4.150  -3.341  0.00  0.00    +0.022 A 
ATOM     17  C   UNL     1      -1.706   3.381  -4.347  0.00  0.00    +0.041 A 
ATOM     18  C   UNL     1      -2.189   2.116  -4.064  0.00  0.00    +0.022 A 
ATOM     19  C   UNL     1      -2.113   1.620  -2.776  0.00  0.00    +0.030 A 
ATOM     20 CL   UNL     1      -1.800   4.005  -5.965  0.00  0.00    -0.084 Cl
ENDBRANCH  11  14
ENDBRANCH   1  11
TORSDOF 4
