REMARK  Name = ZINC40376143
REMARK  5 active torsions:
REMARK  status: ('A' for Active; 'I' for Inactive)
REMARK    1  A    between atoms: C_3  and  C_18
REMARK    2  A    between atoms: C_5  and  N_7
REMARK    3  A    between atoms: N_7  and  S_8
REMARK    4  A    between atoms: S_8  and  N_11
REMARK    5  A    between atoms: N_19  and  O_20
REMARK                            x       y       z     vdW  Elec       q    Type
REMARK                         _______ _______ _______ _____ _____    ______ ____
ROOT
ATOM      1  C   UNL     1       2.060  -4.223  -3.252  0.00  0.00    +0.003 A 
ATOM      2  C   UNL     1       1.518  -3.323  -4.149  0.00  0.00    +0.011 A 
ATOM      3  C   UNL     1       0.785  -2.231  -3.684  0.00  0.00    +0.019 A 
ATOM      4  C   UNL     1       0.602  -2.052  -2.314  0.00  0.00    +0.036 A 
ATOM      5  C   UNL     1       1.150  -2.960  -1.421  0.00  0.00    +0.050 A 
ATOM      6  C   UNL     1       1.879  -4.045  -1.894  0.00  0.00    +0.024 A 
ENDROOT
BRANCH   3   7
ATOM      7  C   UNL     1       0.203  -1.265  -4.644  0.00  0.00    +0.162 C 
ATOM      8  N   UNL     1       0.779  -1.062  -5.792  0.00  0.00    -0.072 NA
ATOM      9  N   UNL     1      -0.954  -0.578  -4.319  0.00  0.00    -0.340 N 
ATOM     10  H   UNL     1      -1.384  -0.730  -3.463  0.00  0.00    +0.144 HD
ATOM     11  H   UNL     1      -1.335   0.055  -4.948  0.00  0.00    +0.144 HD
BRANCH   8  12
ATOM     12  O   UNL     1       2.039  -1.649  -6.066  0.00  0.00    -0.408 OA
ATOM     13  H   UNL     1       2.387  -1.441  -6.944  0.00  0.00    +0.328 HD
ENDBRANCH   8  12
ENDBRANCH   3   7
BRANCH   5  14
ATOM     14  N   UNL     1       0.970  -2.784  -0.047  0.00  0.00    -0.206 N 
ATOM     15  H   UNL     1       1.476  -2.104   0.425  0.00  0.00    +0.175 HD
BRANCH  14  16
ATOM     16  S   UNL     1      -0.106  -3.737   0.775  0.00  0.00    +0.112 S 
ATOM     17  O   UNL     1       0.172  -5.080   0.403  0.00  0.00    -0.138 OA
ATOM     18  O   UNL     1      -0.084  -3.301   2.127  0.00  0.00    -0.138 OA
BRANCH  16  19
ATOM     19  N   UNL     1      -1.616  -3.387   0.190  0.00  0.00    -0.164 NA
ATOM     20  C   UNL     1      -2.411  -2.394   0.876  0.00  0.00    +0.111 C 
ATOM     21  C   UNL     1      -3.253  -3.075   1.982  0.00  0.00    +0.017 C 
ATOM     22  C   UNL     1      -4.329  -3.881   1.383  0.00  0.00    +0.001 C 
ATOM     23  C   UNL     1      -3.839  -5.036   0.515  0.00  0.00    +0.001 C 
ATOM     24  C   UNL     1      -3.566  -4.533  -0.880  0.00  0.00    +0.017 C 
ATOM     25  C   UNL     1      -2.091  -4.099  -1.012  0.00  0.00    +0.111 C 
ENDBRANCH  16  19
ENDBRANCH  14  16
ENDBRANCH   5  14
TORSDOF 5
