REMARK  Name = ZINC66244883
REMARK  8 active torsions:
REMARK  status: ('A' for Active; 'I' for Inactive)
REMARK    1  A    between atoms: C_1  and  C_2
REMARK    2  A    between atoms: C_5  and  O_26
REMARK    3  A    between atoms: C_6  and  C_8
REMARK    4  A    between atoms: C_8  and  C_14
REMARK    5  A    between atoms: C_14  and  N_15
REMARK    6  A    between atoms: N_18  and  C_19
REMARK    7  A    between atoms: C_19  and  C_20
REMARK    8  A    between atoms: O_26  and  C_27
REMARK                            x       y       z     vdW  Elec       q    Type
REMARK                         _______ _______ _______ _____ _____    ______ ____
ROOT
ATOM      1  C   UNL     1       1.244  -3.800   2.511  0.00  0.00    +0.127 C 
ENDROOT
BRANCH   1   2
ATOM      2  N   UNL     1       1.190  -4.668   1.332  0.00  0.00    -0.357 N 
ATOM      3  C   UNL     1       2.104  -5.684   1.184  0.00  0.00    +0.169 C 
ATOM      4  N   UNL     1       3.018  -5.877   2.094  0.00  0.00    -0.371 N 
ATOM      5  N   UNL     1       2.054  -6.498   0.077  0.00  0.00    -0.354 N 
ATOM      6  H   UNL     1       0.510  -4.524   0.655  0.00  0.00    +0.162 HD
ATOM      7  H   UNL     1       3.662  -6.594   1.990  0.00  0.00    +0.159 HD
ATOM      8  H   UNL     1       1.374  -6.355  -0.600  0.00  0.00    +0.163 HD
ATOM      9  H   UNL     1       3.053  -5.303   2.875  0.00  0.00    +0.159 HD
BRANCH   5  10
ATOM     10  C   UNL     1       3.027  -7.582  -0.080  0.00  0.00    +0.151 C 
BRANCH  10  11
ATOM     11  C   UNL     1       2.756  -8.317  -1.367  0.00  0.00    -0.028 A 
ATOM     12  C   UNL     1       1.892  -9.396  -1.377  0.00  0.00    +0.005 A 
ATOM     13  C   UNL     1       1.644 -10.072  -2.558  0.00  0.00    +0.000 A 
ATOM     14  C   UNL     1       2.259  -9.667  -3.728  0.00  0.00    +0.000 A 
ATOM     15  C   UNL     1       3.122  -8.588  -3.718  0.00  0.00    +0.000 A 
ATOM     16  C   UNL     1       3.367  -7.910  -2.538  0.00  0.00    +0.005 A 
ENDBRANCH  10  11
ENDBRANCH   5  10
ENDBRANCH   1   2
BRANCH   1  17
ATOM     17  C   UNL     1       0.086  -2.802   2.463  0.00  0.00    +0.021 C 
ATOM     18  C   UNL     1      -1.246  -3.555   2.536  0.00  0.00    +0.041 C 
ATOM     19  C   UNL     1      -1.337  -4.286   3.877  0.00  0.00    +0.161 C 
ATOM     20  O   UNL     1      -1.207  -3.343   4.943  0.00  0.00    -0.380 OA
ATOM     21  C   UNL     1       0.038  -2.642   4.953  0.00  0.00    +0.161 C 
ATOM     22  C   UNL     1       0.184  -1.845   3.655  0.00  0.00    +0.041 C 
BRANCH  17  28
ATOM     23  C   UNL     1      -1.984  -1.411  -1.875  0.00  0.00    +0.044 C 
ATOM     24  C   UNL     1      -0.838  -1.350  -0.897  0.00  0.00    -0.050 A 
ATOM     25  C   UNL     1       0.270  -0.573  -1.181  0.00  0.00    +0.007 A 
ATOM     26  C   UNL     1       1.321  -0.516  -0.286  0.00  0.00    +0.046 A 
ATOM     27  C   UNL     1       1.264  -1.238   0.897  0.00  0.00    +0.124 A 
ATOM     28  C   UNL     1       0.151  -2.016   1.179  0.00  0.00    +0.002 A 
ATOM     29  C   UNL     1      -0.900  -2.066   0.283  0.00  0.00    +0.011 A 
BRANCH  27  30
ATOM     30  O   UNL     1       2.297  -1.183   1.778  0.00  0.00    -0.495 OA
ATOM     31  C   UNL     1       3.411  -0.362   1.422  0.00  0.00    +0.277 C 
ENDBRANCH  27  30
ENDBRANCH  17  28
ENDBRANCH   1  17
TORSDOF 6
