REMARK  Name = ZINC57465954
REMARK  5 active torsions:
REMARK  status: ('A' for Active; 'I' for Inactive)
REMARK    1  A    between atoms: C_3  and  C_9
REMARK    2  A    between atoms: C_9  and  O_10
REMARK    3  A    between atoms: O_10  and  C_11
REMARK    4  A    between atoms: C_11  and  C_13
REMARK    5  A    between atoms: C_15  and  N_21
REMARK                            x       y       z     vdW  Elec       q    Type
REMARK                         _______ _______ _______ _____ _____    ______ ____
ROOT
ATOM      1  C   UNL     1       4.445   4.424  -0.018  0.00  0.00    +0.360 C 
ATOM      2  O   UNL     1       5.574   3.977  -0.031  0.00  0.00    -0.243 OA
ENDROOT
BRANCH   1   3
ATOM      3  C   UNL     1       4.229   5.888  -0.009  0.00  0.00    +0.169 A 
ATOM      4  C   UNL     1       5.325   6.746  -0.021  0.00  0.00    +0.095 A 
ATOM      5  C   UNL     1       5.105   8.124  -0.012  0.00  0.00    +0.067 A 
ATOM      6  C   UNL     1       3.789   8.584   0.009  0.00  0.00    +0.100 A 
ATOM      7  C   UNL     1       2.751   7.665   0.020  0.00  0.00    +0.150 A 
ATOM      8  N   UNL     1       2.991   6.371   0.006  0.00  0.00    -0.226 NA
ATOM      9 CL   UNL     1       1.110   8.231   0.045  0.00  0.00    -0.060 Cl
ATOM     10 CL   UNL     1       3.454  10.287   0.021  0.00  0.00    -0.078 Cl
ATOM     11 CL   UNL     1       6.941   6.112  -0.046  0.00  0.00    -0.079 Cl
BRANCH   5  12
ATOM     12  N   UNL     1       6.173   9.019  -0.023  0.00  0.00    -0.356 N 
ATOM     13  H   UNL     1       7.084   8.686  -0.037  0.00  0.00    +0.142 HD
ATOM     14  H   UNL     1       6.006   9.974  -0.017  0.00  0.00    +0.142 HD
ENDBRANCH   5  12
ENDBRANCH   1   3
BRANCH   1  15
ATOM     15  O   UNL     1       3.389   3.588  -0.012  0.00  0.00    -0.455 OA
BRANCH  15  16
ATOM     16  C   UNL     1       3.671   2.187  -0.022  0.00  0.00    +0.270 C 
BRANCH  16  19
ATOM     17  C   UNL     1      -0.017   1.379   0.010  0.00  0.00    +0.016 A 
ATOM     18  C   UNL     1       1.171   2.087   0.002  0.00  0.00    +0.011 A 
ATOM     19  C   UNL     1       2.377   1.414  -0.013  0.00  0.00    +0.025 A 
ATOM     20  C   UNL     1       2.398   0.030  -0.021  0.00  0.00    +0.131 A 
ATOM     21  C   UNL     1       1.209  -0.679  -0.013  0.00  0.00    +0.054 A 
ATOM     22  C   UNL     1       0.002  -0.004   0.002  0.00  0.00    +0.021 A 
ATOM     23 BR   UNL     1      -1.623  -0.972   0.012  0.00  0.00    -0.050 Br
ATOM     24  F   UNL     1       3.577  -0.629  -0.036  0.00  0.00    -0.205 F 
ENDBRANCH  16  19
ENDBRANCH  15  16
ENDBRANCH   1  15
TORSDOF 5
