REMARK  Name = ZINC39710791
REMARK  9 active torsions:
REMARK  status: ('A' for Active; 'I' for Inactive)
REMARK    1  A    between atoms: C_1  and  C_2
REMARK    2  A    between atoms: C_8  and  C_14
REMARK    3  A    between atoms: C_14  and  C_16
REMARK    4  A    between atoms: C_14  and  N_25
REMARK    5  A    between atoms: N_20  and  C_21
REMARK    6  A    between atoms: C_21  and  C_22
REMARK    7  A    between atoms: C_22  and  O_23
REMARK    8  A    between atoms: O_23  and  C_24
REMARK    9  A    between atoms: N_28  and  C_31
REMARK                            x       y       z     vdW  Elec       q    Type
REMARK                         _______ _______ _______ _____ _____    ______ ____
ROOT
ATOM      1  C   UNL     1       1.309  -2.579   4.442  0.00  0.00    +0.142 C 
ENDROOT
BRANCH   1   9
ATOM      2  C   UNL     1       0.253   2.058   0.561  0.00  0.00    +0.045 C 
ATOM      3  C   UNL     1       0.051   0.571   0.417  0.00  0.00    -0.029 A 
ATOM      4  C   UNL     1      -0.139   0.033  -0.815  0.00  0.00    +0.005 A 
ATOM      5  C   UNL     1      -0.330  -1.334  -1.018  0.00  0.00    +0.001 A 
ATOM      6  C   UNL     1      -0.337  -2.209   0.020  0.00  0.00    +0.009 A 
ATOM      7  C   UNL     1      -0.137  -1.697   1.376  0.00  0.00    -0.007 A 
ATOM      8  C   UNL     1      -0.136  -2.538   2.449  0.00  0.00    -0.003 C 
ATOM      9  C   UNL     1       0.078  -1.920   3.817  0.00  0.00    +0.123 C 
ATOM     10  C   UNL     1       0.272  -0.422   3.880  0.00  0.00    +0.226 C 
ATOM     11  O   UNL     1       0.448   0.127   4.951  0.00  0.00    -0.275 OA
ATOM     12  N   UNL     1       0.250   0.290   2.765  0.00  0.00    -0.284 N 
ATOM     13  C   UNL     1       0.068  -0.250   1.560  0.00  0.00    +0.043 A 
ATOM     14  H   UNL     1       0.376   1.250   2.828  0.00  0.00    +0.155 HD
ENDBRANCH   1   9
BRANCH   1  15
ATOM     15  N   UNL     1       1.480  -2.091   5.817  0.00  0.00    -0.295 NA
ATOM     16  C   UNL     1       0.270  -2.334   6.616  0.00  0.00    +0.066 C 
ATOM     17  C   UNL     1       0.466  -1.760   8.021  0.00  0.00    -0.059 C 
ATOM     18  N   UNL     1       1.627  -2.399   8.653  0.00  0.00    +0.400 N 
ATOM     19  C   UNL     1       2.832  -2.127   7.858  0.00  0.00    -0.059 C 
ATOM     20  C   UNL     1       2.655  -2.704   6.452  0.00  0.00    +0.066 C 
ATOM     21  H   UNL     1       1.477  -3.395   8.705  0.00  0.00    -0.078 HD
BRANCH  18  22
ATOM     22  C   UNL     1       1.804  -1.860  10.009  0.00  0.00    +0.081 C 
ATOM     23  N   UNL     1       2.982  -2.448  10.662  0.00  0.00    -0.347 N 
ATOM     24  C   UNL     1       2.771  -3.192  11.822  0.00  0.00    +0.040 A 
ATOM     25  C   UNL     1       3.771  -3.827  12.580  0.00  0.00    +0.024 A 
ATOM     26  C   UNL     1       3.460  -4.540  13.714  0.00  0.00    +0.002 A 
ATOM     27  C   UNL     1       2.153  -4.657  14.148  0.00  0.00    +0.001 A 
ATOM     28  C   UNL     1       1.147  -4.042  13.421  0.00  0.00    +0.016 A 
ATOM     29  C   UNL     1       1.460  -3.328  12.287  0.00  0.00    +0.029 A 
ATOM     30  S   UNL     1       0.459  -2.425  11.125  0.00  0.00    -0.120 S 
ATOM     31  H   UNL     1       3.873  -2.324  10.299  0.00  0.00    +0.145 HD
ENDBRANCH  18  22
ENDBRANCH   1  15
BRANCH   1  32
ATOM     32  C   UNL     1       2.531  -2.232   3.631  0.00  0.00    +0.170 A 
ATOM     33  N   UNL     1       3.094  -1.052   3.529  0.00  0.00    -0.112 NA
ATOM     34  N   UNL     1       4.112  -1.163   2.748  0.00  0.00    -0.023 NA
ATOM     35  N   UNL     1       4.213  -2.383   2.349  0.00  0.00    -0.044 NA
ATOM     36  N   UNL     1       3.260  -3.074   2.876  0.00  0.00    -0.225 N 
BRANCH  36  37
ATOM     37  C   UNL     1       3.015  -4.506   2.685  0.00  0.00    +0.175 C 
BRANCH  37  38
ATOM     38  C   UNL     1       2.210  -4.719   1.401  0.00  0.00    +0.183 C 
BRANCH  38  39
ATOM     39  O   UNL     1       2.067  -6.119   1.156  0.00  0.00    -0.381 OA
ATOM     40  C   UNL     1       1.327  -6.429  -0.027  0.00  0.00    +0.194 C 
ENDBRANCH  38  39
ENDBRANCH  37  38
ENDBRANCH  36  37
ENDBRANCH   1  32
TORSDOF 7
