REMARK  Name = ZINC05680009
REMARK  3 active torsions:
REMARK  status: ('A' for Active; 'I' for Inactive)
REMARK    1  A    between atoms: N_12  and  C_16
REMARK    2  A    between atoms: C_16  and  C_17
REMARK    3  A    between atoms: N_22  and  C_23
REMARK                            x       y       z     vdW  Elec       q    Type
REMARK                         _______ _______ _______ _____ _____    ______ ____
ROOT
ATOM      1  C   UNL     1      -0.017   1.390   0.010  0.00  0.00    +0.014 A 
ATOM      2  C   UNL     1       1.144   2.085   0.002  0.00  0.00    +0.046 A 
ATOM      3  S   UNL     1       2.357   0.773  -0.016  0.00  0.00    -0.101 S 
ATOM      4  C   UNL     1       1.230  -0.595  -0.013  0.00  0.00    -0.005 A 
ATOM      5  C   UNL     1       0.002  -0.004   0.002  0.00  0.00    -0.005 A 
ATOM      6  C   UNL     1      -1.251  -0.864   0.008  0.00  0.00    +0.139 C 
ATOM      7  C   UNL     1      -0.918  -2.280  -0.437  0.00  0.00    +0.040 C 
ATOM      8  C   UNL     1       0.263  -2.824   0.373  0.00  0.00    +0.008 C 
ATOM      9  C   UNL     1       1.533  -2.057  -0.023  0.00  0.00    +0.043 C 
ATOM     10  C   UNL     1      -2.302  -0.247  -0.882  0.00  0.00    +0.251 C 
ATOM     11  O   UNL     1      -2.231  -0.052  -2.077  0.00  0.00    -0.272 OA
ATOM     12  N   UNL     1      -3.338   0.040  -0.066  0.00  0.00    -0.215 N 
ATOM     13  C   UNL     1      -3.080  -0.309   1.200  0.00  0.00    +0.310 C 
ATOM     14  O   UNL     1      -3.861  -0.150   2.118  0.00  0.00    -0.252 OA
ATOM     15  N   UNL     1      -1.857  -0.857   1.343  0.00  0.00    -0.281 N 
ATOM     16  H   UNL     1      -1.458  -1.183   2.165  0.00  0.00    +0.152 HD
ENDROOT
BRANCH  12  17
ATOM     17  C   UNL     1      -4.589   0.658  -0.511  0.00  0.00    +0.214 C 
BRANCH  17  18
ATOM     18  C   UNL     1      -5.568  -0.417  -0.908  0.00  0.00    +0.238 C 
ATOM     19  O   UNL     1      -5.251  -1.585  -0.826  0.00  0.00    -0.274 OA
ATOM     20  N   UNL     1      -6.795  -0.081  -1.352  0.00  0.00    -0.239 N 
ATOM     21  C   UNL     1      -7.670  -1.043  -1.707  0.00  0.00    +0.306 C 
ATOM     22  O   UNL     1      -7.352  -2.214  -1.625  0.00  0.00    -0.252 OA
ATOM     23  N   UNL     1      -8.897  -0.707  -2.151  0.00  0.00    -0.296 N 
ATOM     24  H   UNL     1      -7.048   0.853  -1.417  0.00  0.00    +0.159 HD
ATOM     25  H   UNL     1      -9.150   0.227  -2.217  0.00  0.00    +0.151 HD
BRANCH  23  26
ATOM     26  C   UNL     1      -9.848  -1.753  -2.537  0.00  0.00    +0.074 C 
ATOM     27  C   UNL     1      -9.651  -2.126  -4.021  0.00  0.00    +0.022 C 
ATOM     28  C   UNL     1     -11.086  -2.388  -4.541  0.00  0.00    +0.002 C 
ATOM     29  C   UNL     1     -11.917  -1.304  -3.810  0.00  0.00    +0.002 C 
ATOM     30  C   UNL     1     -11.289  -1.230  -2.403  0.00  0.00    +0.022 C 
ENDBRANCH  23  26
ENDBRANCH  17  18
ENDBRANCH  12  17
TORSDOF 3
