REMARK  Name = ZINC01684231
REMARK  2 active torsions:
REMARK  status: ('A' for Active; 'I' for Inactive)
REMARK    1  A    between atoms: C_4  and  C_7
REMARK    2  A    between atoms: C_7  and  C_14
REMARK                            x       y       z     vdW  Elec       q    Type
REMARK                         _______ _______ _______ _____ _____    ______ ____
ROOT
ATOM      1  C   UNL     1      -0.070   5.347   0.031  0.00  0.00    +0.180 C 
ATOM      2  C   UNL     1      -0.063   5.693  -1.445  0.00  0.00    +0.255 C 
ATOM      3  O   UNL     1      -0.859   5.333  -2.286  0.00  0.00    -0.272 OA
ATOM      4  N   UNL     1       1.013   6.484  -1.628  0.00  0.00    -0.238 N 
ATOM      5  C   UNL     1       1.679   6.683  -0.485  0.00  0.00    +0.307 C 
ATOM      6  O   UNL     1       2.684   7.362  -0.399  0.00  0.00    -0.252 OA
ATOM      7  N   UNL     1       1.113   6.049   0.557  0.00  0.00    -0.277 N 
ATOM      8  H   UNL     1       1.272   6.861  -2.483  0.00  0.00    +0.159 HD
ATOM      9  H   UNL     1       1.423   6.053   1.476  0.00  0.00    +0.152 HD
ENDROOT
BRANCH   1  13
ATOM     10  C   UNL     1       0.311   1.129   0.588  0.00  0.00    +0.000 A 
ATOM     11  C   UNL     1      -0.673   1.630  -0.243  0.00  0.00    +0.000 A 
ATOM     12  C   UNL     1      -0.800   2.995  -0.420  0.00  0.00    +0.006 A 
ATOM     13  C   UNL     1       0.064   3.859   0.227  0.00  0.00    -0.009 A 
ATOM     14  C   UNL     1       1.052   3.358   1.054  0.00  0.00    +0.006 A 
ATOM     15  C   UNL     1       1.176   1.993   1.234  0.00  0.00    +0.000 A 
ENDBRANCH   1  13
BRANCH   1  16
ATOM     16  C   UNL     1      -1.328   5.855   0.688  0.00  0.00    +0.078 A 
ATOM     17  C   UNL     1      -1.590   7.212   0.705  0.00  0.00    +0.026 A 
ATOM     18  C   UNL     1      -2.749   7.669   1.312  0.00  0.00    +0.003 A 
ATOM     19  C   UNL     1      -3.606   6.740   1.882  0.00  0.00    +0.020 A 
ATOM     20  C   UNL     1      -3.278   5.399   1.826  0.00  0.00    +0.111 A 
ATOM     21  N   UNL     1      -2.168   4.999   1.236  0.00  0.00    -0.257 NA
ENDBRANCH   1  16
TORSDOF 2
