REMARK  Name = ZINC25014251
REMARK  7 active torsions:
REMARK  status: ('A' for Active; 'I' for Inactive)
REMARK    1  A    between atoms: C_1  and  C_2
REMARK    2  A    between atoms: C_4  and  C_29
REMARK    3  A    between atoms: N_5  and  C_7
REMARK    4  A    between atoms: C_12  and  N_13
REMARK    5  A    between atoms: C_14  and  C_16
REMARK    6  A    between atoms: C_19  and  N_21
REMARK    7  A    between atoms: C_22  and  C_24
REMARK                            x       y       z     vdW  Elec       q    Type
REMARK                         _______ _______ _______ _____ _____    ______ ____
ROOT
ATOM      1  N   UNL     1      -0.160  -1.833   3.394  0.00  0.00    -0.279 N 
ATOM      2  C   UNL     1       0.412  -1.572   4.586  0.00  0.00    +0.255 C 
ATOM      3  O   UNL     1       0.957  -2.465   5.209  0.00  0.00    -0.269 OA
ATOM      4  H   UNL     1      -0.649  -1.138   2.928  0.00  0.00    +0.155 HD
ENDROOT
BRANCH   1  10
ATOM      5  C   UNL     1       0.044  -3.256   1.447  0.00  0.00    +0.087 A 
ATOM      6  C   UNL     1       0.160  -4.523   0.894  0.00  0.00    +0.029 A 
ATOM      7  C   UNL     1       0.176  -5.635   1.714  0.00  0.00    +0.002 A 
ATOM      8  C   UNL     1       0.078  -5.490   3.086  0.00  0.00    +0.002 A 
ATOM      9  C   UNL     1      -0.038  -4.232   3.645  0.00  0.00    +0.025 A 
ATOM     10  C   UNL     1      -0.050  -3.109   2.830  0.00  0.00    +0.059 A 
BRANCH   5  15
ATOM     11  C   UNL     1       1.130   1.217  -0.405  0.00  0.00    +0.067 C 
ATOM     12  C   UNL     1       0.518  -0.144  -0.193  0.00  0.00    +0.061 A 
ATOM     13  C   UNL     1      -0.465  -0.734  -0.994  0.00  0.00    +0.047 A 
ATOM     14  C   UNL     1      -0.749  -1.952  -0.476  0.00  0.00    +0.042 A 
ATOM     15  N   UNL     1       0.028  -2.126   0.617  0.00  0.00    -0.235 N 
ATOM     16  N   UNL     1       0.818  -0.979   0.769  0.00  0.00    -0.171 NA
ATOM     17  C   UNL     1      -1.753  -2.937  -1.018  0.00  0.00    +0.066 C 
ENDBRANCH   5  15
ENDBRANCH   1  10
BRANCH   2  18
ATOM     18  C   UNL     1       0.378  -0.256   5.115  0.00  0.00    +0.076 A 
ATOM     19  C   UNL     1       0.907   0.218   6.308  0.00  0.00    +0.022 A 
ATOM     20  C   UNL     1       0.719   1.552   6.559  0.00  0.00    +0.032 A 
ATOM     21  C   UNL     1       0.037   2.308   5.633  0.00  0.00    +0.073 A 
ATOM     22  S   UNL     1      -0.346   1.214   4.415  0.00  0.00    -0.069 S 
BRANCH  21  23
ATOM     23  N   UNL     1      -0.262   3.662   5.688  0.00  0.00    -0.273 N 
ATOM     24  C   UNL     1      -0.945   4.244   4.682  0.00  0.00    +0.284 C 
ATOM     25  O   UNL     1      -1.300   3.581   3.725  0.00  0.00    -0.266 OA
ATOM     26  H   UNL     1       0.021   4.190   6.451  0.00  0.00    +0.156 HD
BRANCH  24  27
ATOM     27  C   UNL     1      -1.260   5.674   4.741  0.00  0.00    +0.189 A 
ATOM     28  C   UNL     1      -1.946   6.384   3.798  0.00  0.00    +0.054 A 
ATOM     29  C   UNL     1      -2.015   7.707   4.260  0.00  0.00    +0.042 A 
ATOM     30  C   UNL     1      -1.376   7.747   5.450  0.00  0.00    +0.196 A 
ATOM     31  O   UNL     1      -0.927   6.519   5.739  0.00  0.00    -0.458 OA
ENDBRANCH  24  27
ENDBRANCH  21  23
ENDBRANCH   2  18
TORSDOF 5
