REMARK  Name = ZINC46795631
REMARK  9 active torsions:
REMARK  status: ('A' for Active; 'I' for Inactive)
REMARK    1  A    between atoms: C_1  and  C_2
REMARK    2  A    between atoms: C_7  and  C_8
REMARK    3  A    between atoms: C_8  and  C_10
REMARK    4  A    between atoms: C_8  and  N_32
REMARK    5  A    between atoms: C_10  and  C_11
REMARK    6  A    between atoms: N_13  and  C_14
REMARK    7  A    between atoms: C_14  and  C_15
REMARK    8  A    between atoms: C_15  and  C_17
REMARK    9  A    between atoms: C_15  and  N_23
REMARK                            x       y       z     vdW  Elec       q    Type
REMARK                         _______ _______ _______ _____ _____    ______ ____
ROOT
ATOM      1  C   UNL     1      -1.135   1.212   3.812  0.00  0.00    +0.215 C 
ATOM      2  O   UNL     1      -0.071   1.564   4.274  0.00  0.00    -0.276 OA
ATOM      3  N   UNL     1      -2.282   1.742   4.282  0.00  0.00    -0.313 N 
ATOM      4  H   UNL     1      -3.134   1.460   3.913  0.00  0.00    +0.149 HD
ENDROOT
BRANCH   1   5
ATOM      5  C   UNL     1      -1.176   0.181   2.713  0.00  0.00    +0.123 C 
BRANCH   5   6
ATOM      6  C   UNL     1       0.249  -0.253   2.368  0.00  0.00    +0.114 C 
BRANCH   6  13
ATOM      7  C   UNL     1       2.688  -0.873   0.949  0.00  0.00    +0.044 C 
ATOM      8  C   UNL     1       1.384  -1.486   0.509  0.00  0.00    -0.045 A 
ATOM      9  C   UNL     1       1.355  -2.351  -0.570  0.00  0.00    +0.004 A 
ATOM     10  C   UNL     1       0.159  -2.914  -0.973  0.00  0.00    +0.000 A 
ATOM     11  C   UNL     1      -1.009  -2.613  -0.297  0.00  0.00    +0.000 A 
ATOM     12  C   UNL     1      -0.980  -1.750   0.782  0.00  0.00    +0.006 A 
ATOM     13  C   UNL     1       0.217  -1.190   1.188  0.00  0.00    -0.024 A 
ENDBRANCH   6  13
BRANCH   6  14
ATOM     14  N   UNL     1       0.844  -0.937   3.519  0.00  0.00    -0.292 N 
ATOM     15  C   UNL     1       0.307  -2.088   3.970  0.00  0.00    +0.298 C 
ATOM     16  O   UNL     1      -0.612  -2.608   3.366  0.00  0.00    -0.253 OA
ATOM     17  N   UNL     1       0.788  -2.663   5.090  0.00  0.00    -0.313 N 
ATOM     18  H   UNL     1       1.624  -0.562   3.957  0.00  0.00    +0.151 HD
ATOM     19  H   UNL     1       1.520  -2.248   5.572  0.00  0.00    +0.146 HD
ATOM     20  H   UNL     1       0.401  -3.492   5.414  0.00  0.00    +0.146 HD
ENDBRANCH   6  14
ENDBRANCH   5   6
ENDBRANCH   1   5
BRANCH   3  21
ATOM     21  C   UNL     1      -2.242   2.744   5.350  0.00  0.00    +0.127 C 
BRANCH  21  22
ATOM     22  C   UNL     1      -3.668   3.178   5.696  0.00  0.00    +0.104 C 
BRANCH  22  23
ATOM     23  N   UNL     1      -4.472   1.995   6.031  0.00  0.00    -0.289 NA
ATOM     24  C   UNL     1      -5.900   2.336   6.115  0.00  0.00    +0.090 C 
ATOM     25  C   UNL     1      -6.723   1.038   6.053  0.00  0.00    +0.058 C 
ATOM     26  C   UNL     1      -6.100   0.059   6.995  0.00  0.00    -0.005 A 
ATOM     27  C   UNL     1      -4.870   0.155   7.572  0.00  0.00    -0.023 A 
ATOM     28  C   UNL     1      -4.499  -0.882   8.424  0.00  0.00    +0.013 A 
ATOM     29  C   UNL     1      -5.346  -1.915   8.640  0.00  0.00    +0.046 A 
ATOM     30  S   UNL     1      -6.746  -1.464   7.625  0.00  0.00    -0.101 S 
ATOM     31  C   UNL     1      -3.984   1.359   7.261  0.00  0.00    +0.121 C 
ENDBRANCH  22  23
BRANCH  22  32
ATOM     32  C   UNL     1      -3.636   4.115   6.876  0.00  0.00    -0.029 A 
ATOM     33  C   UNL     1      -2.592   4.052   7.780  0.00  0.00    +0.005 A 
ATOM     34  C   UNL     1      -2.563   4.911   8.862  0.00  0.00    +0.000 A 
ATOM     35  C   UNL     1      -3.576   5.834   9.040  0.00  0.00    +0.000 A 
ATOM     36  C   UNL     1      -4.620   5.898   8.135  0.00  0.00    +0.000 A 
ATOM     37  C   UNL     1      -4.647   5.041   7.050  0.00  0.00    +0.005 A 
ENDBRANCH  22  32
ENDBRANCH  21  22
ENDBRANCH   3  21
TORSDOF 8
