REMARK  Name = ZINC02794399
REMARK  12 active torsions:
REMARK  status: ('A' for Active; 'I' for Inactive)
REMARK    1  A    between atoms: C_1  and  C_2
REMARK    2  A    between atoms: C_2  and  C_3
REMARK    3  A    between atoms: C_2  and  C_4
REMARK    4  A    between atoms: C_4  and  N_5
REMARK    5  A    between atoms: N_5  and  C_6
REMARK    6  A    between atoms: C_6  and  N_8
REMARK    7  A    between atoms: N_8  and  N_9
REMARK    8  A    between atoms: C_10  and  C_12
REMARK    9  A    between atoms: C_18  and  C_27
REMARK   10  A    between atoms: C_21  and  C_23
REMARK   11  A    between atoms: C_30  and  O_33
REMARK   12  A    between atoms: O_33  and  C_34
REMARK                            x       y       z     vdW  Elec       q    Type
REMARK                         _______ _______ _______ _____ _____    ______ ____
ROOT
ATOM      1  C   UNL     1       1.384  -4.789  -0.037  0.00  0.00    +0.097 A 
ATOM      2  C   UNL     1       2.676  -4.208  -0.052  0.00  0.00    +0.149 A 
ATOM      3  N   UNL     1       3.556  -5.171  -0.061  0.00  0.00    -0.177 NA
ATOM      4  N   UNL     1       2.893  -6.398  -0.060  0.00  0.00    -0.238 N 
ATOM      5  C   UNL     1       1.561  -6.167  -0.046  0.00  0.00    +0.130 A 
ATOM      6  N   UNL     1       0.585  -7.140  -0.042  0.00  0.00    -0.322 N 
ATOM      7  C   UNL     1       1.143  -8.436   0.373  0.00  0.00    +0.104 C 
ATOM      8  C   UNL     1       2.398  -8.742  -0.451  0.00  0.00    +0.063 C 
ATOM      9  C   UNL     1       3.496  -7.737  -0.073  0.00  0.00    +0.215 C 
ATOM     10  H   UNL     1      -0.482  -7.057  -0.295  0.00  0.00    +0.148 HD
ENDROOT
BRANCH   7  11
ATOM     11  C   UNL     1       0.119  -9.519   0.148  0.00  0.00    -0.027 A 
ATOM     12  C   UNL     1      -0.670  -9.497  -0.987  0.00  0.00    +0.009 A 
ATOM     13  C   UNL     1      -1.606 -10.492  -1.198  0.00  0.00    +0.046 A 
ATOM     14  C   UNL     1      -1.761 -11.506  -0.265  0.00  0.00    +0.120 A 
ATOM     15  C   UNL     1      -0.971 -11.523   0.876  0.00  0.00    +0.046 A 
ATOM     16  C   UNL     1      -0.033 -10.529   1.079  0.00  0.00    +0.009 A 
BRANCH  14  17
ATOM     17  O   UNL     1      -2.685 -12.482  -0.468  0.00  0.00    -0.495 OA
ATOM     18  C   UNL     1      -3.462 -12.401  -1.664  0.00  0.00    +0.277 C 
ENDBRANCH  14  17
ENDBRANCH   7  11
BRANCH   1  20
ATOM     19  N   UNL     1       0.085  -2.725  -0.013  0.00  0.00    -0.231 N 
ATOM     20  C   UNL     1       0.103  -4.073  -0.021  0.00  0.00    +0.265 C 
ATOM     21  O   UNL     1      -0.942  -4.696  -0.014  0.00  0.00    -0.268 OA
ATOM     22  H   UNL     1       1.030  -2.162  -0.019  0.00  0.00    +0.173 HD
BRANCH  19  23
ATOM     23  N   UNL     1      -1.137  -2.041   0.002  0.00  0.00    -0.246 N 
ATOM     24  H   UNL     1      -2.083  -2.604   0.008  0.00  0.00    +0.172 HD
BRANCH  23  25
ATOM     25  C   UNL     1      -1.156  -0.694   0.009  0.00  0.00    +0.147 C 
ATOM     26  S   UNL     1      -2.650   0.142   0.028  0.00  0.00    -0.017 S 
BRANCH  25  27
ATOM     27  N   UNL     1       0.002  -0.004   0.002  0.00  0.00    -0.325 N 
ATOM     28  H   UNL     1       0.962  -0.541  -0.010  0.00  0.00    +0.148 HD
BRANCH  27  29
ATOM     29  C   UNL     1      -0.018   1.461   0.010  0.00  0.00    +0.106 C 
BRANCH  29  31
ATOM     30  C   UNL     1       1.397   3.516  -0.118  0.00  0.00    +0.009 C 
ATOM     31  C   UNL     1       1.418   1.990  -0.001  0.00  0.00    -0.000 C 
ATOM     32  C   UNL     1       2.119   1.588   1.298  0.00  0.00    +0.009 C 
ENDBRANCH  29  31
ENDBRANCH  27  29
ENDBRANCH  25  27
ENDBRANCH  23  25
ENDBRANCH  19  23
ENDBRANCH   1  20
BRANCH   9  33
ATOM     33  C   UNL     1       4.623  -7.787  -1.107  0.00  0.00    +0.412 C 
ATOM     34  F   UNL     1       4.113  -7.463  -2.369  0.00  0.00    -0.168 F 
ATOM     35  F   UNL     1       5.619  -6.870  -0.756  0.00  0.00    -0.168 F 
ATOM     36  F   UNL     1       5.167  -9.076  -1.141  0.00  0.00    -0.168 F 
ENDBRANCH   9  33
TORSDOF 9
