REMARK  Name = ZINC65963150
REMARK  7 active torsions:
REMARK  status: ('A' for Active; 'I' for Inactive)
REMARK    1  A    between atoms: C_1  and  C_2
REMARK    2  A    between atoms: C_2  and  C_3
REMARK    3  A    between atoms: C_2  and  N_12
REMARK    4  A    between atoms: N_8  and  C_9
REMARK    5  A    between atoms: C_9  and  C_10
REMARK    6  A    between atoms: C_15  and  N_18
REMARK    7  A    between atoms: C_19  and  C_21
REMARK                            x       y       z     vdW  Elec       q    Type
REMARK                         _______ _______ _______ _____ _____    ______ ____
ROOT
ATOM      1  N   UNL     1       0.008  -0.918  -1.148  0.00  0.00    +0.387 N 
ATOM      2  C   UNL     1      -0.619  -2.189  -0.764  0.00  0.00    -0.076 C 
ATOM      3  C   UNL     1      -0.543  -3.173  -1.933  0.00  0.00    +0.004 C 
ATOM      4  C   UNL     1      -1.278  -2.583  -3.139  0.00  0.00    +0.069 C 
ATOM      5  C   UNL     1      -0.664  -1.223  -3.484  0.00  0.00    +0.004 C 
ATOM      6  C   UNL     1      -0.736  -0.311  -2.258  0.00  0.00    -0.076 C 
ATOM      7  H   UNL     1       0.960  -1.089  -1.435  0.00  0.00    -0.081 HD
ENDROOT
BRANCH   4   8
ATOM      8  N   UNL     1      -1.144  -3.486  -4.285  0.00  0.00    -0.312 N 
ATOM      9  C   UNL     1      -2.068  -3.472  -5.266  0.00  0.00    +0.216 C 
ATOM     10  O   UNL     1      -3.011  -2.711  -5.200  0.00  0.00    -0.276 OA
ATOM     11  H   UNL     1      -0.391  -4.095  -4.337  0.00  0.00    +0.149 HD
BRANCH   9  12
ATOM     12  C   UNL     1      -1.931  -4.401  -6.444  0.00  0.00    +0.075 C 
ATOM     13  C   UNL     1      -1.934  -5.850  -5.954  0.00  0.00    +0.013 C 
ATOM     14  C   UNL     1      -1.794  -6.794  -7.151  0.00  0.00    +0.001 C 
ATOM     15  C   UNL     1      -2.966  -6.577  -8.111  0.00  0.00    +0.000 C 
ATOM     16  C   UNL     1      -2.962  -5.128  -8.601  0.00  0.00    +0.001 C 
ATOM     17  C   UNL     1      -3.102  -4.184  -7.404  0.00  0.00    +0.013 C 
ENDBRANCH   9  12
ENDBRANCH   4   8
BRANCH   1  19
ATOM     18  C   UNL     1       0.630   1.331  -0.404  0.00  0.00    -0.004 C 
ATOM     19  C   UNL     1       0.002  -0.004   0.002  0.00  0.00    +0.017 C 
BRANCH  19  20
ATOM     20  C   UNL     1       0.796  -0.610   1.130  0.00  0.00    +0.207 C 
ATOM     21  O   UNL     1       1.696  -1.387   0.890  0.00  0.00    -0.277 OA
ATOM     22  N   UNL     1       0.507  -0.289   2.407  0.00  0.00    -0.242 N 
ATOM     23  C   UNL     1       1.217  -0.831   3.416  0.00  0.00    +0.306 C 
ATOM     24  O   UNL     1       2.119  -1.610   3.175  0.00  0.00    -0.252 OA
ATOM     25  N   UNL     1       0.928  -0.510   4.692  0.00  0.00    -0.296 N 
ATOM     26  H   UNL     1      -0.213   0.333   2.599  0.00  0.00    +0.159 HD
ATOM     27  H   UNL     1       0.208   0.112   4.885  0.00  0.00    +0.151 HD
BRANCH  25  28
ATOM     28  C   UNL     1       1.700  -1.099   5.789  0.00  0.00    +0.132 C 
BRANCH  28  29
ATOM     29  C   UNL     1       1.180  -0.580   7.105  0.00  0.00    -0.016 C 
ATOM     30  C   UNL     1       0.797  -1.419   8.035  0.00  0.00    +0.005 C 
ENDBRANCH  28  29
ENDBRANCH  25  28
ENDBRANCH  19  20
ENDBRANCH   1  19
TORSDOF 6
