REMARK  Name = ZINC66956999
REMARK  6 active torsions:
REMARK  status: ('A' for Active; 'I' for Inactive)
REMARK    1  A    between atoms: C_1  and  C_2
REMARK    2  A    between atoms: N_4  and  C_5
REMARK    3  A    between atoms: C_5  and  C_6
REMARK    4  A    between atoms: C_6  and  N_7
REMARK    5  A    between atoms: N_10  and  C_11
REMARK    6  A    between atoms: C_14  and  C_17
REMARK                            x       y       z     vdW  Elec       q    Type
REMARK                         _______ _______ _______ _____ _____    ______ ____
ROOT
ATOM      1  C   UNL     1      -4.860  -6.951   0.101  0.00  0.00    +0.035 A 
ATOM      2  C   UNL     1      -6.101  -6.327   0.042  0.00  0.00    +0.024 A 
ATOM      3  C   UNL     1      -7.254  -7.074   0.138  0.00  0.00    +0.013 A 
ATOM      4  C   UNL     1      -7.176  -8.459   0.295  0.00  0.00    +0.019 A 
ATOM      5  C   UNL     1      -5.929  -9.083   0.353  0.00  0.00    +0.013 A 
ATOM      6  C   UNL     1      -4.779  -8.331   0.251  0.00  0.00    +0.024 A 
ENDROOT
BRANCH   4   7
ATOM      7  C   UNL     1      -8.412  -9.264   0.399  0.00  0.00    +0.164 A 
ATOM      8  N   UNL     1      -8.513 -10.496   0.857  0.00  0.00    -0.129 NA
ATOM      9  N   UNL     1      -9.741 -10.883   0.802  0.00  0.00    -0.134 NA
ATOM     10  C   UNL     1     -10.482  -9.934   0.315  0.00  0.00    +0.134 A 
ATOM     11  N   UNL     1      -9.667  -8.874   0.046  0.00  0.00    -0.311 N 
ATOM     12  C   UNL     1     -10.111  -7.599  -0.515  0.00  0.00    +0.125 C 
ATOM     13  C   UNL     1     -11.503  -7.791  -1.129  0.00  0.00    +0.022 C 
ATOM     14  C   UNL     1     -12.422  -8.477  -0.115  0.00  0.00    +0.009 C 
ATOM     15  C   UNL     1     -11.971  -9.934   0.071  0.00  0.00    +0.076 C 
ENDBRANCH   4   7
BRANCH   1  19
ATOM     16  N   UNL     1      -2.488  -4.261   0.535  0.00  0.00    -0.298 N 
ATOM     17  C   UNL     1      -3.642  -4.958   0.548  0.00  0.00    +0.304 C 
ATOM     18  O   UNL     1      -4.638  -4.475   1.051  0.00  0.00    -0.253 OA
ATOM     19  N   UNL     1      -3.691  -6.190   0.004  0.00  0.00    -0.269 N 
ATOM     20  H   UNL     1      -1.693  -4.647   0.135  0.00  0.00    +0.150 HD
ATOM     21  H   UNL     1      -2.916  -6.549  -0.455  0.00  0.00    +0.156 HD
BRANCH  16  22
ATOM     22  C   UNL     1      -2.435  -2.922   1.127  0.00  0.00    +0.124 C 
BRANCH  22  23
ATOM     23  C   UNL     1      -1.021  -2.356   0.981  0.00  0.00    +0.123 C 
BRANCH  23  27
ATOM     24  C   UNL     1       0.242   1.057   2.168  0.00  0.00    +0.109 C 
ATOM     25  C   UNL     1       0.186  -0.321   1.560  0.00  0.00    +0.210 C 
ATOM     26  O   UNL     1       1.180  -0.802   1.058  0.00  0.00    -0.276 OA
ATOM     27  N   UNL     1      -0.967  -1.017   1.573  0.00  0.00    -0.314 N 
ATOM     28  H   UNL     1      -1.762  -0.632   1.974  0.00  0.00    +0.149 HD
ENDBRANCH  23  27
ENDBRANCH  22  23
ENDBRANCH  16  22
ENDBRANCH   1  19
TORSDOF 5
