REMARK  Name = ZINC36142676
REMARK  6 active torsions:
REMARK  status: ('A' for Active; 'I' for Inactive)
REMARK    1  A    between atoms: C_1  and  C_2
REMARK    2  A    between atoms: C_2  and  C_3
REMARK    3  A    between atoms: C_7  and  N_9
REMARK    4  A    between atoms: C_11  and  C_16
REMARK    5  A    between atoms: C_19  and  O_22
REMARK    6  A    between atoms: O_22  and  C_23
REMARK                            x       y       z     vdW  Elec       q    Type
REMARK                         _______ _______ _______ _____ _____    ______ ____
ROOT
ATOM      1  C   UNL     1      -1.412  -0.526   0.013  0.00  0.00    -0.045 A 
ATOM      2  C   UNL     1      -2.046  -0.764   1.213  0.00  0.00    +0.018 A 
ATOM      3  C   UNL     1      -3.357  -1.249   1.219  0.00  0.00    +0.061 A 
ATOM      4  C   UNL     1      -4.026  -1.495   0.012  0.00  0.00    +0.152 A 
ATOM      5  C   UNL     1      -3.368  -1.245  -1.192  0.00  0.00    +0.068 A 
ATOM      6  C   UNL     1      -2.071  -0.758  -1.184  0.00  0.00    +0.030 A 
ATOM      7  O   UNL     1      -5.292  -1.976   0.005  0.00  0.00    -0.481 OA
ATOM      8  C   UNL     1      -6.106  -1.782   1.161  0.00  0.00    +0.211 C 
ATOM      9  C   UNL     1      -5.356  -2.288   2.402  0.00  0.00    +0.129 C 
ATOM     10  C   UNL     1      -4.057  -1.507   2.490  0.00  0.00    +0.171 C 
ATOM     11  O   UNL     1      -3.619  -1.116   3.551  0.00  0.00    -0.292 OA
ENDROOT
BRANCH   8  12
ATOM     12  C   UNL     1      -7.394  -2.549   1.003  0.00  0.00    -0.007 A 
ATOM     13  C   UNL     1      -7.380  -3.814   0.446  0.00  0.00    +0.011 A 
ATOM     14  C   UNL     1      -8.559  -4.519   0.300  0.00  0.00    +0.046 A 
ATOM     15  C   UNL     1      -9.758  -3.956   0.714  0.00  0.00    +0.120 A 
ATOM     16  C   UNL     1      -9.769  -2.686   1.273  0.00  0.00    +0.046 A 
ATOM     17  C   UNL     1      -8.586  -1.988   1.422  0.00  0.00    +0.011 A 
BRANCH  15  18
ATOM     18  O   UNL     1     -10.920  -4.647   0.571  0.00  0.00    -0.495 OA
ATOM     19  C   UNL     1     -12.115  -4.005   1.019  0.00  0.00    +0.277 C 
ENDBRANCH  15  18
ENDBRANCH   8  12
BRANCH   5  20
ATOM     20  N   UNL     1      -4.020  -1.481  -2.409  0.00  0.00    -0.355 N 
ATOM     21  H   UNL     1      -4.929  -1.818  -2.414  0.00  0.00    +0.142 HD
ATOM     22  H   UNL     1      -3.562  -1.306  -3.246  0.00  0.00    +0.142 HD
ENDBRANCH   5  20
BRANCH   1  24
ATOM     23  C   UNL     1      -0.019   1.526   0.010  0.00  0.00    +0.009 C 
ATOM     24  C   UNL     1       0.002  -0.004   0.002  0.00  0.00    +0.032 C 
ENDBRANCH   1  24
TORSDOF 4
