REMARK  Name = ZINC07252179
REMARK  5 active torsions:
REMARK  status: ('A' for Active; 'I' for Inactive)
REMARK    1  A    between atoms: N_7  and  C_20
REMARK    2  A    between atoms: C_9  and  C_12
REMARK    3  A    between atoms: C_20  and  C_21
REMARK    4  A    between atoms: N_23  and  C_24
REMARK    5  A    between atoms: C_24  and  C_29
REMARK                            x       y       z     vdW  Elec       q    Type
REMARK                         _______ _______ _______ _____ _____    ______ ____
ROOT
ATOM      1  C   UNL     1      -0.816   2.991  -5.366  0.00  0.00    +0.002 A 
ATOM      2  C   UNL     1      -0.823   3.239  -6.726  0.00  0.00    +0.004 A 
ATOM      3  C   UNL     1      -1.607   2.469  -7.565  0.00  0.00    +0.047 A 
ATOM      4  C   UNL     1      -2.390   1.448  -7.046  0.00  0.00    +0.143 A 
ATOM      5  C   UNL     1      -2.388   1.200  -5.679  0.00  0.00    +0.073 A 
ATOM      6  C   UNL     1      -1.594   1.978  -4.842  0.00  0.00    +0.027 A 
ATOM      7  N   UNL     1      -3.166   0.186  -5.111  0.00  0.00    -0.314 N 
ATOM      8  C   UNL     1      -3.568  -0.822  -6.099  0.00  0.00    +0.160 C 
ATOM      9  C   UNL     1      -4.173  -0.103  -7.312  0.00  0.00    +0.276 C 
ATOM     10  O   UNL     1      -3.148   0.705  -7.900  0.00  0.00    -0.476 OA
ENDROOT
BRANCH   9  11
ATOM     11  C   UNL     1      -4.660  -1.117  -8.315  0.00  0.00    +0.258 C 
ATOM     12  O   UNL     1      -4.137  -1.190  -9.407  0.00  0.00    -0.271 OA
ATOM     13  N   UNL     1      -5.677  -1.942  -7.999  0.00  0.00    -0.298 N 
ATOM     14  C   UNL     1      -6.317  -1.870  -6.678  0.00  0.00    +0.108 C 
ATOM     15  C   UNL     1      -7.831  -1.700  -6.877  0.00  0.00    +0.019 C 
ATOM     16  C   UNL     1      -8.352  -2.831  -7.767  0.00  0.00    +0.003 C 
ATOM     17  C   UNL     1      -7.675  -2.758  -9.137  0.00  0.00    +0.019 C 
ATOM     18  C   UNL     1      -6.163  -2.936  -8.966  0.00  0.00    +0.108 C 
ENDBRANCH   9  11
BRANCH   7  19
ATOM     19  C   UNL     1      -2.471  -0.438  -3.977  0.00  0.00    +0.201 C 
BRANCH  19  20
ATOM     20  C   UNL     1      -1.123  -0.939  -4.427  0.00  0.00    +0.231 C 
ATOM     21  O   UNL     1      -0.814  -0.879  -5.599  0.00  0.00    -0.274 OA
ATOM     22  N   UNL     1      -0.260  -1.454  -3.529  0.00  0.00    -0.296 N 
ATOM     23  H   UNL     1      -0.507  -1.502  -2.592  0.00  0.00    +0.150 HD
BRANCH  22  24
ATOM     24  C   UNL     1       1.050  -1.941  -3.967  0.00  0.00    +0.121 C 
ATOM     25  C   UNL     1       1.843  -2.476  -2.762  0.00  0.00    +0.041 C 
ATOM     26  C   UNL     1       3.124  -1.622  -2.661  0.00  0.00    +0.003 C 
ATOM     27  C   UNL     1       3.325  -1.070  -4.095  0.00  0.00    +0.003 C 
ATOM     28  C   UNL     1       1.876  -0.779  -4.557  0.00  0.00    +0.041 C 
BRANCH  24  29
ATOM     29  C   UNL     1       0.882  -3.003  -4.972  0.00  0.00    +0.088 C 
ATOM     30  N   UNL     1       0.753  -3.822  -5.748  0.00  0.00    -0.194 NA
ENDBRANCH  24  29
ENDBRANCH  22  24
ENDBRANCH  19  20
ENDBRANCH   7  19
TORSDOF 5
