REMARK  Name = ZINC39663240
REMARK  6 active torsions:
REMARK  status: ('A' for Active; 'I' for Inactive)
REMARK    1  A    between atoms: C_1  and  C_2
REMARK    2  A    between atoms: C_2  and  N_3
REMARK    3  A    between atoms: C_4  and  C_10
REMARK    4  A    between atoms: C_6  and  C_8
REMARK    5  A    between atoms: C_14  and  C_23
REMARK    6  A    between atoms: N_25  and  C_26
REMARK                            x       y       z     vdW  Elec       q    Type
REMARK                         _______ _______ _______ _____ _____    ______ ____
ROOT
ATOM      1  C   UNL     1      -1.430  -0.662   2.780  0.00  0.00    +0.266 C 
ATOM      2  O   UNL     1      -2.072  -1.012   3.752  0.00  0.00    -0.268 OA
ATOM      3  N   UNL     1      -0.181  -0.179   2.935  0.00  0.00    -0.295 N 
ATOM      4  C   UNL     1       0.776   0.222   1.877  0.00  0.00    +0.121 C 
ATOM      5  C   UNL     1       1.460   1.492   2.430  0.00  0.00    +0.100 C 
ATOM      6  C   UNL     1       1.307   1.387   3.957  0.00  0.00    -0.004 C 
ATOM      7  C   UNL     1       0.542   0.078   4.203  0.00  0.00    +0.115 C 
ATOM      8  C   UNL     1       2.678   1.333   4.623  0.00  0.00    -0.010 C 
ATOM      9  C   UNL     1       2.501   1.287   6.143  0.00  0.00    -0.082 C 
ATOM     10  N   UNL     1       1.766   2.478   6.588  0.00  0.00    +0.379 N 
ATOM     11  C   UNL     1       0.414   2.474   6.015  0.00  0.00    -0.082 C 
ATOM     12  C   UNL     1       0.503   2.569   4.489  0.00  0.00    -0.010 C 
ATOM     13  H   UNL     1       1.703   2.476   7.595  0.00  0.00    -0.086 HD
ATOM     14  H   UNL     1       2.255   3.306   6.285  0.00  0.00    -0.086 HD
ENDROOT
BRANCH   1  16
ATOM     15  N   UNL     1      -1.918  -1.825   0.576  0.00  0.00    -0.258 N 
ATOM     16  C   UNL     1      -2.016  -0.766   1.435  0.00  0.00    +0.138 A 
ATOM     17  C   UNL     1      -2.779   0.190   0.784  0.00  0.00    +0.071 A 
ATOM     18  C   UNL     1      -3.098  -0.372  -0.455  0.00  0.00    +0.075 A 
ATOM     19  N   UNL     1      -2.552  -1.560  -0.509  0.00  0.00    -0.175 NA
ATOM     20  C   UNL     1      -3.919   0.277  -1.539  0.00  0.00    +0.069 C 
ATOM     21 BR   UNL     1      -3.282   1.893   1.435  0.00  0.00    -0.046 Br
BRANCH  15  23
ATOM     22  C   UNL     1       0.275  -2.901   0.463  0.00  0.00    +0.029 C 
ATOM     23  C   UNL     1      -1.196  -3.070   0.850  0.00  0.00    +0.141 C 
ENDBRANCH  15  23
ENDBRANCH   1  16
BRANCH   5  24
ATOM     24  C   UNL     1       0.768   2.728   1.914  0.00  0.00    +0.218 C 
ATOM     25  O   UNL     1      -0.431   2.720   1.734  0.00  0.00    -0.275 OA
ATOM     26  N   UNL     1       1.482   3.841   1.654  0.00  0.00    -0.314 N 
ATOM     27  H   UNL     1       2.449   3.826   1.733  0.00  0.00    +0.149 HD
BRANCH  26  28
ATOM     28  C   UNL     1       0.798   5.072   1.251  0.00  0.00    +0.059 C 
ATOM     29  C   UNL     1       0.436   5.887   2.495  0.00  0.00    -0.056 C 
ATOM     30  N   UNL     1       1.087   7.199   2.442  0.00  0.00    +0.381 N 
ATOM     31  C   UNL     1       2.544   7.050   2.423  0.00  0.00    -0.078 C 
ATOM     32  C   UNL     1       2.977   6.274   1.178  0.00  0.00    -0.014 C 
ATOM     33  C   UNL     1       1.727   5.908   0.361  0.00  0.00    +0.004 C 
ATOM     34  C   UNL     1       0.999   7.206  -0.014  0.00  0.00    -0.014 C 
ATOM     35  C   UNL     1       0.630   7.954   1.273  0.00  0.00    -0.078 C 
ATOM     36  H   UNL     1       0.836   7.713   3.272  0.00  0.00    -0.082 HD
ENDBRANCH  26  28
ENDBRANCH   5  24
TORSDOF 4
