REMARK  Name = ZINC19754214
REMARK  8 active torsions:
REMARK  status: ('A' for Active; 'I' for Inactive)
REMARK    1  A    between atoms: C_1  and  C_2
REMARK    2  A    between atoms: C_2  and  C_3
REMARK    3  A    between atoms: C_3  and  C_4
REMARK    4  A    between atoms: C_3  and  C_6
REMARK    5  A    between atoms: C_4  and  C_5
REMARK    6  A    between atoms: N_8  and  C_9
REMARK    7  A    between atoms: C_10  and  C_22
REMARK    8  A    between atoms: C_17  and  C_19
REMARK                            x       y       z     vdW  Elec       q    Type
REMARK                         _______ _______ _______ _____ _____    ______ ____
ROOT
ATOM      1  C   UNL     1      -4.339   3.432   3.149  0.00  0.00    +0.090 A 
ATOM      2  C   UNL     1      -4.977   4.660   3.237  0.00  0.00    +0.084 A 
ATOM      3  C   UNL     1      -5.951   4.837   4.300  0.00  0.00    -0.004 A 
ATOM      4  C   UNL     1      -6.123   3.766   5.106  0.00  0.00    -0.003 A 
ATOM      5  S   UNL     1      -5.019   2.538   4.468  0.00  0.00    -0.077 S 
ATOM      6  C   UNL     1      -7.047   3.658   6.280  0.00  0.00    +0.043 C 
ATOM      7  C   UNL     1      -7.505   5.072   6.666  0.00  0.00    +0.006 C 
ATOM      8  C   UNL     1      -7.952   5.809   5.401  0.00  0.00    +0.020 C 
ATOM      9  C   UNL     1      -6.738   6.122   4.524  0.00  0.00    +0.134 C 
ENDROOT
BRANCH   1  12
ATOM     10  C   UNL     1      -2.866   1.779   2.306  0.00  0.00    +0.221 C 
ATOM     11  O   UNL     1      -3.236   1.020   3.176  0.00  0.00    -0.275 OA
ATOM     12  N   UNL     1      -3.383   3.022   2.230  0.00  0.00    -0.279 N 
ATOM     13  H   UNL     1      -3.047   3.710   1.441  0.00  0.00    +0.155 HD
BRANCH  10  14
ATOM     14  C   UNL     1      -1.828   1.333   1.309  0.00  0.00    +0.075 C 
BRANCH  14  16
ATOM     15  C   UNL     1      -0.046   2.210   2.825  0.00  0.00    +0.004 C 
ATOM     16  C   UNL     1      -0.605   2.248   1.401  0.00  0.00    +0.009 C 
ENDBRANCH  14  16
BRANCH  14  17
ATOM     17  C   UNL     1      -1.411  -0.107   1.616  0.00  0.00    +0.009 C 
ATOM     18  C   UNL     1      -0.467  -0.609   0.522  0.00  0.00    +0.004 C 
ENDBRANCH  14  17
ENDBRANCH  10  14
ENDBRANCH   1  12
BRANCH   9  19
ATOM     19  C   UNL     1      -7.200   6.670   3.198  0.00  0.00    +0.363 C 
ATOM     20  O   UNL     1      -7.586   5.917   2.335  0.00  0.00    -0.246 OA
ATOM     21  O   UNL     1      -7.183   7.993   2.976  0.00  0.00    -0.246 OA
ENDBRANCH   9  19
BRANCH   2  22
ATOM     22  C   UNL     1      -4.689   5.715   2.311  0.00  0.00    +0.102 C 
ATOM     23  N   UNL     1      -4.461   6.551   1.577  0.00  0.00    -0.191 NA
ENDBRANCH   2  22
TORSDOF 6
