REMARK  Name = ZINC41548814
REMARK  7 active torsions:
REMARK  status: ('A' for Active; 'I' for Inactive)
REMARK    1  A    between atoms: C_1  and  C_2
REMARK    2  A    between atoms: C_10  and  C_30
REMARK    3  A    between atoms: C_11  and  C_12
REMARK    4  A    between atoms: C_12  and  C_13
REMARK    5  A    between atoms: C_13  and  N_14
REMARK    6  A    between atoms: C_15  and  C_17
REMARK    7  A    between atoms: C_17  and  C_29
REMARK                            x       y       z     vdW  Elec       q    Type
REMARK                         _______ _______ _______ _____ _____    ______ ____
ROOT
ATOM      1  N   UNL     1       1.541  -5.801   3.740  0.00  0.00    -0.311 N 
ATOM      2  C   UNL     1       2.718  -6.420   3.960  0.00  0.00    +0.266 C 
ATOM      3  O   UNL     1       3.760  -5.835   3.752  0.00  0.00    -0.271 OA
ATOM      4  H   UNL     1       0.708  -6.270   3.906  0.00  0.00    +0.149 HD
ENDROOT
BRANCH   2   5
ATOM      5  C   UNL     1       2.740  -7.840   4.464  0.00  0.00    +0.257 C 
ATOM      6  C   UNL     1       4.037  -8.096   5.188  0.00  0.00    +0.270 C 
ATOM      7  O   UNL     1       4.986  -8.561   4.592  0.00  0.00    -0.271 OA
ATOM      8  N   UNL     1       4.139  -7.805   6.502  0.00  0.00    -0.279 N 
ATOM      9  C   UNL     1       2.998  -7.388   7.201  0.00  0.00    +0.077 A 
ATOM     10  C   UNL     1       3.107  -6.867   8.480  0.00  0.00    +0.047 A 
ATOM     11  C   UNL     1       1.972  -6.448   9.152  0.00  0.00    +0.043 A 
ATOM     12  C   UNL     1       0.731  -6.548   8.548  0.00  0.00    +0.024 A 
ATOM     13  C   UNL     1       0.616  -7.072   7.274  0.00  0.00    +0.049 A 
ATOM     14  C   UNL     1       1.747  -7.499   6.599  0.00  0.00    +0.144 A 
ATOM     15  O   UNL     1       1.643  -8.045   5.357  0.00  0.00    -0.466 OA
ATOM     16 CL   UNL     1       2.106  -5.796  10.755  0.00  0.00    -0.083 Cl
ATOM     17  C   UNL     1       2.620  -8.803   3.281  0.00  0.00    +0.076 C 
ATOM     18  H   UNL     1       4.992  -7.884   6.957  0.00  0.00    +0.155 HD
ENDBRANCH   2   5
BRANCH   1  19
ATOM     19  C   UNL     1       1.520  -4.421   3.250  0.00  0.00    +0.109 C 
BRANCH  19  20
ATOM     20  C   UNL     1       0.071  -3.960   3.086  0.00  0.00    +0.056 C 
BRANCH  20  31
ATOM     21  C   UNL     1      -0.018   1.503   0.010  0.00  0.00    +0.046 C 
ATOM     22  C   UNL     1       0.002  -0.004   0.002  0.00  0.00    -0.025 A 
ATOM     23  C   UNL     1       0.006  -0.687  -1.194  0.00  0.00    +0.025 A 
ATOM     24  C   UNL     1       0.025  -2.076  -1.217  0.00  0.00    +0.042 A 
ATOM     25  C   UNL     1       0.040  -2.791  -0.040  0.00  0.00    +0.030 A 
ATOM     26  C   UNL     1       0.037  -2.113   1.180  0.00  0.00    +0.005 A 
ATOM     27  C   UNL     1       0.023  -0.706   1.202  0.00  0.00    +0.050 A 
ATOM     28  N   UNL     1       0.029  -0.321   2.525  0.00  0.00    -0.358 N 
ATOM     29  H   UNL     1       0.019   0.597   2.838  0.00  0.00    +0.166 HD
ATOM     30  C   UNL     1       0.052  -1.426   3.331  0.00  0.00    +0.017 A 
ATOM     31  C   UNL     1       0.049  -2.540   2.581  0.00  0.00    -0.018 A 
ATOM     32  C   UNL     1       0.066  -1.398   4.838  0.00  0.00    +0.063 C 
ATOM     33 CL   UNL     1       0.029  -2.914  -2.737  0.00  0.00    -0.084 Cl
ENDBRANCH  20  31
ENDBRANCH  19  20
ENDBRANCH   1  19
TORSDOF 4
