REMARK  Name = ZINC39700522
REMARK  10 active torsions:
REMARK  status: ('A' for Active; 'I' for Inactive)
REMARK    1  A    between atoms: C_1  and  C_2
REMARK    2  A    between atoms: C_9  and  N_19
REMARK    3  A    between atoms: C_10  and  C_11
REMARK    4  A    between atoms: N_16  and  C_17
REMARK    5  A    between atoms: N_16  and  C_18
REMARK    6  A    between atoms: C_20  and  C_22
REMARK    7  A    between atoms: C_25  and  S_28
REMARK    8  A    between atoms: S_28  and  N_31
REMARK    9  A    between atoms: N_31  and  C_32
REMARK   10  A    between atoms: N_31  and  C_33
REMARK                            x       y       z     vdW  Elec       q    Type
REMARK                         _______ _______ _______ _____ _____    ______ ____
ROOT
ATOM      1  C   UNL     1      -0.019   1.526   0.010  0.00  0.00    +0.008 C 
ATOM      2  C   UNL     1       0.002  -0.004   0.002  0.00  0.00    -0.009 C 
ATOM      3  C   UNL     1      -1.434  -0.537   0.019  0.00  0.00    +0.008 C 
ATOM      4  C   UNL     1      -1.432  -2.045  -0.237  0.00  0.00    +0.037 C 
ATOM      5  C   UNL     1      -0.464  -2.704   0.734  0.00  0.00    -0.023 A 
ATOM      6  C   UNL     1       0.485  -1.986   1.374  0.00  0.00    -0.004 A 
ATOM      7  S   UNL     1       1.344  -3.167   2.373  0.00  0.00    -0.077 S 
ATOM      8  C   UNL     1       0.494  -4.558   1.968  0.00  0.00    +0.085 A 
ATOM      9  C   UNL     1      -0.459  -4.120   1.060  0.00  0.00    +0.069 A 
ATOM     10  C   UNL     1       0.739  -0.515   1.248  0.00  0.00    +0.046 C 
ENDROOT
BRANCH   9  11
ATOM     11  C   UNL     1      -1.421  -5.045   0.456  0.00  0.00    +0.254 C 
ATOM     12  O   UNL     1      -1.149  -5.610  -0.587  0.00  0.00    -0.270 OA
ATOM     13  N   UNL     1      -2.606  -5.271   1.056  0.00  0.00    -0.236 N 
ATOM     14  C   UNL     1      -3.491  -6.123   0.500  0.00  0.00    +0.308 C 
ATOM     15  O   UNL     1      -3.219  -6.687  -0.541  0.00  0.00    -0.252 OA
ATOM     16  N   UNL     1      -4.676  -6.349   1.100  0.00  0.00    -0.291 N 
ATOM     17  C   UNL     1      -5.638  -7.275   0.496  0.00  0.00    +0.133 C 
ATOM     18  C   UNL     1      -5.004  -5.669   2.356  0.00  0.00    +0.133 C 
ATOM     19  H   UNL     1      -2.823  -4.821   1.887  0.00  0.00    +0.159 HD
ENDBRANCH   9  11
BRANCH   8  20
ATOM     20  N   UNL     1       0.698  -5.846   2.434  0.00  0.00    -0.275 N 
ATOM     21  C   UNL     1       1.679  -6.093   3.324  0.00  0.00    +0.249 C 
ATOM     22  O   UNL     1       2.386  -5.186   3.718  0.00  0.00    -0.270 OA
ATOM     23  H   UNL     1       0.134  -6.570   2.120  0.00  0.00    +0.156 HD
BRANCH  21  24
ATOM     24  C   UNL     1       1.896  -7.468   3.821  0.00  0.00    +0.037 A 
ATOM     25  C   UNL     1       1.090  -8.513   3.367  0.00  0.00    +0.015 A 
ATOM     26  C   UNL     1       1.298  -9.794   3.836  0.00  0.00    +0.029 A 
ATOM     27  C   UNL     1       2.302 -10.044   4.754  0.00  0.00    +0.105 A 
ATOM     28  C   UNL     1       3.105  -9.012   5.208  0.00  0.00    +0.029 A 
ATOM     29  C   UNL     1       2.912  -7.728   4.743  0.00  0.00    +0.015 A 
BRANCH  27  30
ATOM     30  S   UNL     1       2.561 -11.682   5.347  0.00  0.00    +0.060 S 
ATOM     31  O   UNL     1       3.205 -11.561   6.608  0.00  0.00    -0.153 OA
ATOM     32  O   UNL     1       1.329 -12.373   5.184  0.00  0.00    -0.153 OA
BRANCH  30  33
ATOM     33  N   UNL     1       3.647 -12.406   4.329  0.00  0.00    -0.183 NA
ATOM     34  C   UNL     1       5.083 -12.313   4.604  0.00  0.00    +0.131 C 
ATOM     35  C   UNL     1       3.173 -13.140   3.153  0.00  0.00    +0.131 C 
ENDBRANCH  30  33
ENDBRANCH  27  30
ENDBRANCH  21  24
ENDBRANCH   8  20
TORSDOF 5
