REMARK  Name = ZINC29340917
REMARK  5 active torsions:
REMARK  status: ('A' for Active; 'I' for Inactive)
REMARK    1  A    between atoms: C_4  and  C_23
REMARK    2  A    between atoms: C_6  and  N_7
REMARK    3  A    between atoms: C_8  and  C_10
REMARK    4  A    between atoms: C_10  and  O_11
REMARK    5  A    between atoms: O_11  and  C_12
REMARK                            x       y       z     vdW  Elec       q    Type
REMARK                         _______ _______ _______ _____ _____    ______ ____
ROOT
ATOM      1  N   UNL     1       3.163  10.396  -0.554  0.00  0.00    -0.283 N 
ATOM      2  C   UNL     1       2.214   9.578  -0.057  0.00  0.00    +0.255 C 
ATOM      3  O   UNL     1       1.224  10.044   0.466  0.00  0.00    -0.272 OA
ATOM      4  H   UNL     1       4.099   9.976  -0.949  0.00  0.00    +0.155 HD
ENDROOT
BRANCH   1  10
ATOM      5  C   UNL     1       1.676  12.290  -0.756  0.00  0.00    +0.025 A 
ATOM      6  C   UNL     1       1.465  13.656  -0.764  0.00  0.00    +0.022 A 
ATOM      7  C   UNL     1       2.526  14.524  -0.598  0.00  0.00    +0.053 A 
ATOM      8  C   UNL     1       3.817  14.022  -0.413  0.00  0.00    +0.057 A 
ATOM      9  C   UNL     1       4.028  12.643  -0.399  0.00  0.00    +0.037 A 
ATOM     10  C   UNL     1       2.956  11.781  -0.568  0.00  0.00    +0.034 A 
ATOM     11 CL   UNL     1       2.256  16.239  -0.616  0.00  0.00    -0.083 Cl
BRANCH   8  12
ATOM     12  C   UNL     1       4.955  14.947  -0.234  0.00  0.00    +0.243 C 
ATOM     13  O   UNL     1       4.769  16.149  -0.247  0.00  0.00    -0.270 OA
ATOM     14  N   UNL     1       6.199  14.460  -0.056  0.00  0.00    -0.325 N 
ATOM     15  H   UNL     1       7.046  15.149   0.077  0.00  0.00    +0.145 HD
ATOM     16  H   UNL     1       6.367  13.373  -0.045  0.00  0.00    +0.145 HD
ENDBRANCH   8  12
ENDBRANCH   1  10
BRANCH   2  17
ATOM     17  C   UNL     1       2.384   8.083  -0.150  0.00  0.00    +0.324 C 
BRANCH  17  18
ATOM     18  O   UNL     1       1.255   7.438   0.443  0.00  0.00    -0.483 OA
BRANCH  18  19
ATOM     19  C   UNL     1       1.250   6.078   0.442  0.00  0.00    +0.122 A 
ATOM     20  C   UNL     1       2.311   5.382  -0.119  0.00  0.00    +0.047 A 
ATOM     21  C   UNL     1       2.308   4.001  -0.120  0.00  0.00    +0.027 A 
ATOM     22  C   UNL     1       1.242   3.309   0.440  0.00  0.00    +0.037 A 
ATOM     23  C   UNL     1       0.180   4.007   1.001  0.00  0.00    -0.022 A 
ATOM     24  C   UNL     1       0.185   5.388   1.001  0.00  0.00    +0.051 A 
ATOM     25  C   UNL     1      -0.975   3.254   1.608  0.00  0.00    +0.046 C 
ATOM     26  C   UNL     1      -1.215   1.965   0.817  0.00  0.00    +0.101 C 
ATOM     27  C   UNL     1       0.086   1.233   0.628  0.00  0.00    +0.218 C 
ATOM     28  O   UNL     1       0.100   0.021   0.641  0.00  0.00    -0.275 OA
ATOM     29  N   UNL     1       1.235   1.909   0.441  0.00  0.00    -0.285 N 
ATOM     30  H   UNL     1       2.172   1.354   0.287  0.00  0.00    +0.155 HD
ENDBRANCH  18  19
ENDBRANCH  17  18
ENDBRANCH   2  17
TORSDOF 5
