REMARK  Name = ZINC15967759
REMARK  5 active torsions:
REMARK  status: ('A' for Active; 'I' for Inactive)
REMARK    1  A    between atoms: C_1  and  C_2
REMARK    2  A    between atoms: C_17  and  C_20
REMARK    3  A    between atoms: C_20  and  C_21
REMARK    4  A    between atoms: N_26  and  C_29
REMARK    5  A    between atoms: C_29  and  C_30
REMARK                            x       y       z     vdW  Elec       q    Type
REMARK                         _______ _______ _______ _____ _____    ______ ____
ROOT
ATOM      1  C   UNL     1      -0.018   1.503   0.010  0.00  0.00    +0.044 C 
ATOM      2  C   UNL     1       0.002  -0.004   0.002  0.00  0.00    -0.049 A 
ATOM      3  C   UNL     1       0.006  -0.691  -1.199  0.00  0.00    +0.011 A 
ATOM      4  C   UNL     1       0.025  -2.068  -1.207  0.00  0.00    +0.005 A 
ATOM      5  C   UNL     1       0.042  -2.783  -0.013  0.00  0.00    +0.057 A 
ATOM      6  C   UNL     1       0.037  -2.084   1.193  0.00  0.00    +0.063 A 
ATOM      7  C   UNL     1       0.023  -0.703   1.195  0.00  0.00    +0.025 A 
ATOM      8 CL   UNL     1       0.057  -2.951   2.696  0.00  0.00    -0.082 Cl
ATOM      9  N   UNL     1       0.060  -4.155  -0.272  0.00  0.00    -0.282 N 
ATOM     10  C   UNL     1       0.056  -4.423  -1.592  0.00  0.00    +0.243 C 
ATOM     11  O   UNL     1       0.068  -5.520  -2.109  0.00  0.00    -0.273 OA
ATOM     12  C   UNL     1       0.033  -3.096  -2.301  0.00  0.00    +0.136 C 
ATOM     13  C   UNL     1       1.250  -2.933  -3.221  0.00  0.00    +0.122 C 
ATOM     14  C   UNL     1       0.725  -3.312  -4.634  0.00  0.00    +0.107 C 
ATOM     15  C   UNL     1      -0.755  -3.692  -4.418  0.00  0.00    +0.076 C 
ATOM     16  N   UNL     1      -1.151  -2.971  -3.171  0.00  0.00    -0.295 NA
ATOM     17  C   UNL     1       0.815  -2.013  -5.401  0.00  0.00    +0.227 C 
ATOM     18  O   UNL     1       0.492  -1.859  -6.559  0.00  0.00    -0.275 OA
ATOM     19  N   UNL     1       1.307  -1.058  -4.602  0.00  0.00    -0.237 N 
ATOM     20  C   UNL     1       1.598  -1.466  -3.345  0.00  0.00    +0.229 C 
ATOM     21  O   UNL     1       2.059  -0.778  -2.460  0.00  0.00    -0.275 OA
ATOM     22  H   UNL     1       0.074  -4.837   0.418  0.00  0.00    +0.155 HD
ATOM     23  H   UNL     1      -1.958  -3.406  -2.749  0.00  0.00    +0.124 HD
ENDROOT
BRANCH  15  24
ATOM     24  C   UNL     1      -1.607  -3.204  -5.592  0.00  0.00    +0.115 C 
BRANCH  24  25
ATOM     25  C   UNL     1      -3.023  -3.691  -5.422  0.00  0.00    +0.212 C 
ATOM     26  O   UNL     1      -3.321  -4.362  -4.457  0.00  0.00    -0.276 OA
ATOM     27  N   UNL     1      -3.957  -3.380  -6.343  0.00  0.00    -0.329 N 
ATOM     28  H   UNL     1      -3.718  -2.843  -7.114  0.00  0.00    +0.145 HD
ATOM     29  H   UNL     1      -4.868  -3.693  -6.233  0.00  0.00    +0.145 HD
ENDBRANCH  24  25
ENDBRANCH  15  24
BRANCH  19  30
ATOM     30  C   UNL     1       1.520   0.320  -5.052  0.00  0.00    +0.151 C 
BRANCH  30  31
ATOM     31  C   UNL     1       0.275   1.130  -4.798  0.00  0.00    -0.026 A 
ATOM     32  C   UNL     1      -0.709   1.204  -5.766  0.00  0.00    +0.009 A 
ATOM     33  C   UNL     1      -1.853   1.946  -5.538  0.00  0.00    +0.050 A 
ATOM     34  C   UNL     1      -2.016   2.617  -4.337  0.00  0.00    +0.166 A 
ATOM     35  C   UNL     1      -1.025   2.542  -3.361  0.00  0.00    +0.167 A 
ATOM     36  C   UNL     1       0.117   1.792  -3.595  0.00  0.00    +0.054 A 
ATOM     37  O   UNL     1      -1.417   3.280  -2.283  0.00  0.00    -0.453 OA
ATOM     38  C   UNL     1      -2.468   4.138  -2.766  0.00  0.00    +0.466 C 
ATOM     39  O   UNL     1      -3.030   3.402  -3.869  0.00  0.00    -0.453 OA
ENDBRANCH  30  31
ENDBRANCH  19  30
TORSDOF 4
