REMARK  Name = ZINC13438221
REMARK  4 active torsions:
REMARK  status: ('A' for Active; 'I' for Inactive)
REMARK    1  A    between atoms: C_5  and  N_7
REMARK    2  A    between atoms: C_9  and  C_14
REMARK    3  A    between atoms: N_16  and  C_17
REMARK    4  A    between atoms: C_22  and  C_23
REMARK                            x       y       z     vdW  Elec       q    Type
REMARK                         _______ _______ _______ _____ _____    ______ ____
ROOT
ATOM      1  C   UNL     1       0.085  -2.712   0.083  0.00  0.00    +0.222 C 
ATOM      2  O   UNL     1      -0.971  -2.117   0.084  0.00  0.00    -0.275 OA
ATOM      3  N   UNL     1       1.243  -2.030  -0.016  0.00  0.00    -0.284 N 
ATOM      4  H   UNL     1       2.084  -2.508  -0.083  0.00  0.00    +0.155 HD
ENDROOT
BRANCH   3   5
ATOM      5  C   UNL     1       1.232  -0.637  -0.023  0.00  0.00    +0.048 A 
ATOM      6  C   UNL     1       0.194   0.049  -0.638  0.00  0.00    +0.025 A 
ATOM      7  C   UNL     1       0.184   1.429  -0.644  0.00  0.00    +0.016 A 
ATOM      8  C   UNL     1       1.208   2.141  -0.037  0.00  0.00    +0.014 A 
ATOM      9  C   UNL     1       2.247   1.477   0.578  0.00  0.00    +0.031 A 
ATOM     10  C   UNL     1       2.270   0.079   0.591  0.00  0.00    +0.085 A 
ATOM     11  I   UNL     1       1.175   4.235  -0.057  0.00  0.00    -0.044 I 
BRANCH  10  12
ATOM     12  C   UNL     1       3.378  -0.637   1.248  0.00  0.00    +0.388 C 
ATOM     13  O   UNL     1       3.442  -1.849   1.181  0.00  0.00    -0.241 OA
ATOM     14  O   UNL     1       4.320   0.051   1.922  0.00  0.00    -0.241 OA
ENDBRANCH  10  12
ENDBRANCH   3   5
BRANCH   1  17
ATOM     15  N   UNL     1      -1.610  -4.881   1.732  0.00  0.00    -0.269 N 
ATOM     16  C   UNL     1      -1.331  -4.779   0.295  0.00  0.00    +0.127 C 
ATOM     17  C   UNL     1       0.103  -4.215   0.193  0.00  0.00    +0.102 C 
ATOM     18  C   UNL     1       0.716  -4.664   1.540  0.00  0.00    +0.110 C 
ATOM     19  C   UNL     1      -0.478  -4.825   2.455  0.00  0.00    +0.221 C 
ATOM     20  O   UNL     1      -0.422  -4.893   3.664  0.00  0.00    -0.275 OA
BRANCH  15  25
ATOM     21  C   UNL     1      -4.690  -6.416   3.029  0.00  0.00    +0.002 A 
ATOM     22  C   UNL     1      -5.422  -5.292   3.365  0.00  0.00    +0.002 A 
ATOM     23  C   UNL     1      -4.893  -4.032   3.160  0.00  0.00    +0.022 A 
ATOM     24  C   UNL     1      -3.627  -3.891   2.623  0.00  0.00    +0.062 A 
ATOM     25  C   UNL     1      -2.891  -5.019   2.280  0.00  0.00    +0.055 A 
ATOM     26  C   UNL     1      -3.426  -6.283   2.488  0.00  0.00    +0.025 A 
ATOM     27 CL   UNL     1      -2.960  -2.308   2.372  0.00  0.00    -0.082 Cl
ENDBRANCH  15  25
ENDBRANCH   1  17
TORSDOF 4
