REMARK  Name = ZINC64960851
REMARK  6 active torsions:
REMARK  status: ('A' for Active; 'I' for Inactive)
REMARK    1  A    between atoms: C_1  and  O_2
REMARK    2  A    between atoms: O_2  and  C_3
REMARK    3  A    between atoms: C_5  and  C_11
REMARK    4  A    between atoms: C_7  and  O_9
REMARK    5  A    between atoms: O_9  and  C_10
REMARK    6  A    between atoms: C_14  and  C_18
REMARK                            x       y       z     vdW  Elec       q    Type
REMARK                         _______ _______ _______ _____ _____    ______ ____
ROOT
ATOM      1  C   UNL     1      -2.533  -4.175   0.015  0.00  0.00    +0.181 C 
ATOM      2  N   UNL     1      -3.736  -4.653  -0.718  0.00  0.00    -0.265 NA
ATOM      3  C   UNL     1      -3.332  -6.014  -1.155  0.00  0.00    +0.247 C 
ATOM      4  O   UNL     1      -1.940  -5.892  -1.500  0.00  0.00    -0.274 OA
ATOM      5  N   UNL     1      -1.403  -4.738  -0.760  0.00  0.00    -0.177 NA
ATOM      6  H   UNL     1      -4.539  -4.692  -0.108  0.00  0.00    +0.127 HD
ATOM      7  H   UNL     1      -0.649  -5.016  -0.150  0.00  0.00    +0.156 HD
ENDROOT
BRANCH   3   8
ATOM      8  C   UNL     1      -4.137  -6.441  -2.355  0.00  0.00    +0.061 A 
ATOM      9  H   UNL     1      -6.204  -5.189  -4.504  0.00  0.00    +0.165 HD
ATOM     10  C   UNL     1      -4.916  -5.545  -2.997  0.00  0.00    +0.094 A 
ATOM     11  N   UNL     1      -5.661  -5.872  -4.080  0.00  0.00    -0.360 N 
ATOM     12  C   UNL     1      -5.668  -7.150  -4.593  0.00  0.00    +0.050 A 
ATOM     13  C   UNL     1      -6.437  -7.475  -5.706  0.00  0.00    +0.026 A 
ATOM     14  C   UNL     1      -6.421  -8.763  -6.195  0.00  0.00    +0.002 A 
ATOM     15  C   UNL     1      -5.644  -9.741  -5.588  0.00  0.00    +0.001 A 
ATOM     16  C   UNL     1      -4.881  -9.443  -4.494  0.00  0.00    +0.014 A 
ATOM     17  C   UNL     1      -4.883  -8.145  -3.984  0.00  0.00    +0.045 A 
ATOM     18  C   UNL     1      -4.072  -7.779  -2.810  0.00  0.00    +0.196 A 
ATOM     19  O   UNL     1      -3.370  -8.602  -2.247  0.00  0.00    -0.287 OA
ENDBRANCH   3   8
BRANCH   1  22
ATOM     20  C   UNL     1      -1.200  -0.637   0.010  0.00  0.00    +0.124 A 
ATOM     21  C   UNL     1      -1.255  -2.024   0.009  0.00  0.00    +0.052 A 
ATOM     22  C   UNL     1      -2.477  -2.669   0.017  0.00  0.00    -0.007 A 
ATOM     23  C   UNL     1      -3.647  -1.935   0.025  0.00  0.00    +0.052 A 
ATOM     24  C   UNL     1      -3.598  -0.548   0.027  0.00  0.00    +0.124 A 
ATOM     25  C   UNL     1      -2.373   0.101   0.025  0.00  0.00    +0.091 A 
BRANCH  20  27
ATOM     26  C   UNL     1      -0.017   1.425   0.010  0.00  0.00    +0.277 C 
ATOM     27  O   UNL     1       0.002  -0.004   0.002  0.00  0.00    -0.495 OA
ENDBRANCH  20  27
BRANCH  24  28
ATOM     28  O   UNL     1      -4.750   0.173   0.036  0.00  0.00    -0.495 OA
ATOM     29  C   UNL     1      -4.624   1.597   0.037  0.00  0.00    +0.277 C 
ENDBRANCH  24  28
ENDBRANCH   1  22
TORSDOF 4
