REMARK  Name = ZINC67273483
REMARK  6 active torsions:
REMARK  status: ('A' for Active; 'I' for Inactive)
REMARK    1  A    between atoms: C_1  and  C_2
REMARK    2  A    between atoms: C_2  and  C_3
REMARK    3  A    between atoms: C_3  and  C_4
REMARK    4  A    between atoms: N_6  and  C_7
REMARK    5  A    between atoms: C_7  and  C_8
REMARK    6  A    between atoms: C_15  and  C_17
REMARK                            x       y       z     vdW  Elec       q    Type
REMARK                         _______ _______ _______ _____ _____    ______ ____
ROOT
ATOM      1  C   UNL     1       1.643  -4.009  -4.994  0.00  0.00    +0.024 C 
ATOM      2  C   UNL     1       3.075  -3.472  -4.930  0.00  0.00    +0.008 C 
ATOM      3  C   UNL     1       3.992  -4.359  -5.774  0.00  0.00    +0.019 C 
ATOM      4  C   UNL     1       3.984  -5.782  -5.207  0.00  0.00    +0.108 C 
ATOM      5  N   UNL     1       2.594  -6.252  -5.130  0.00  0.00    -0.301 N 
ATOM      6  C   UNL     1       1.607  -5.428  -4.418  0.00  0.00    +0.112 C 
ATOM      7  C   UNL     1       2.230  -7.417  -5.702  0.00  0.00    +0.219 C 
ATOM      8  O   UNL     1       3.034  -8.049  -6.355  0.00  0.00    -0.275 OA
ENDROOT
BRANCH   7   9
ATOM      9  C   UNL     1       0.825  -7.935  -5.531  0.00  0.00    +0.075 C 
ATOM     10  C   UNL     1       0.708  -8.654  -4.186  0.00  0.00    +0.015 C 
ATOM     11  C   UNL     1      -0.723  -9.168  -4.007  0.00  0.00    +0.036 C 
ATOM     12  C   UNL     1      -1.069 -10.123  -5.145  0.00  0.00    +0.112 C 
ATOM     13  C   UNL     1      -0.932  -9.427  -6.494  0.00  0.00    +0.036 C 
ATOM     14  C   UNL     1       0.500  -8.912  -6.663  0.00  0.00    +0.015 C 
ATOM     15  C   UNL     1      -0.188 -11.350  -5.091  0.00  0.00    +0.244 C 
ATOM     16  O   UNL     1       1.020 -11.390  -5.188  0.00  0.00    -0.273 OA
ATOM     17  N   UNL     1      -1.028 -12.390  -4.912  0.00  0.00    -0.238 N 
ATOM     18  C   UNL     1      -2.304 -11.987  -4.847  0.00  0.00    +0.307 C 
ATOM     19  O   UNL     1      -3.243 -12.742  -4.690  0.00  0.00    -0.252 OA
ATOM     20  N   UNL     1      -2.428 -10.653  -4.976  0.00  0.00    -0.285 N 
ATOM     21  H   UNL     1      -0.744 -13.314  -4.841  0.00  0.00    +0.159 HD
ATOM     22  H   UNL     1      -3.253 -10.142  -4.959  0.00  0.00    +0.151 HD
ENDBRANCH   7   9
BRANCH   1  23
ATOM     23  C   UNL     1       0.721  -3.103  -4.176  0.00  0.00    +0.109 C 
BRANCH  23  26
ATOM     24  C   UNL     1      -0.093  -0.807  -4.244  0.00  0.00    +0.213 C 
ATOM     25  O   UNL     1      -0.726  -1.033  -3.235  0.00  0.00    -0.276 OA
ATOM     26  N   UNL     1       0.664  -1.777  -4.796  0.00  0.00    -0.315 N 
ATOM     27  H   UNL     1       1.170  -1.597  -5.603  0.00  0.00    +0.149 HD
BRANCH  24  28
ATOM     28  C   UNL     1      -0.151   0.557  -4.882  0.00  0.00    +0.095 C 
BRANCH  28  30
ATOM     29  C   UNL     1      -1.133   2.848  -4.711  0.00  0.00    +0.004 C 
ATOM     30  C   UNL     1      -1.074   1.463  -4.064  0.00  0.00    +0.006 C 
ENDBRANCH  28  30
ENDBRANCH  24  28
ENDBRANCH  23  26
ENDBRANCH   1  23
TORSDOF 5
