REMARK  Name = ZINC54617345
REMARK  12 active torsions:
REMARK  status: ('A' for Active; 'I' for Inactive)
REMARK    1  A    between atoms: C_1  and  C_2
REMARK    2  A    between atoms: C_2  and  C_3
REMARK    3  A    between atoms: C_3  and  S_4
REMARK    4  A    between atoms: S_4  and  C_5
REMARK    5  A    between atoms: C_10  and  C_28
REMARK    6  A    between atoms: C_12  and  C_16
REMARK    7  A    between atoms: C_13  and  C_15
REMARK    8  A    between atoms: N_18  and  C_19
REMARK    9  A    between atoms: C_24  and  O_25
REMARK   10  A    between atoms: O_25  and  C_26
REMARK   11  A    between atoms: C_26  and  C_27
REMARK   12  A    between atoms: C_31  and  N_34
REMARK                            x       y       z     vdW  Elec       q    Type
REMARK                         _______ _______ _______ _____ _____    ______ ____
ROOT
ATOM      1  C   UNL     1       1.803  -2.783   2.590  0.00  0.00    +0.210 A 
ATOM      2  N   UNL     1       2.269  -1.919   3.504  0.00  0.00    -0.187 NA
ATOM      3  C   UNL     1       2.825  -2.579   4.484  0.00  0.00    +0.219 A 
ATOM      4  N   UNL     1       2.719  -3.903   4.213  0.00  0.00    -0.220 N 
ATOM      5  N   UNL     1       2.056  -4.010   2.992  0.00  0.00    -0.141 NA
ATOM      6  C   UNL     1       3.224  -4.951   5.097  0.00  0.00    +0.177 C 
ATOM      7  C   UNL     1       4.109  -4.338   6.148  0.00  0.00    +0.060 C 
ATOM      8  C   UNL     1       4.176  -3.017   6.369  0.00  0.00    +0.018 C 
ATOM      9  N   UNL     1       3.443  -2.114   5.637  0.00  0.00    -0.287 N 
ATOM     10  C   UNL     1       5.085  -2.505   7.456  0.00  0.00    +0.061 C 
ATOM     11  H   UNL     1       3.361  -1.189   5.914  0.00  0.00    +0.155 HD
ENDROOT
BRANCH   6  12
ATOM     12  C   UNL     1       2.065  -5.650   5.760  0.00  0.00    -0.018 A 
ATOM     13  C   UNL     1       1.187  -4.933   6.552  0.00  0.00    +0.008 A 
ATOM     14  C   UNL     1       0.124  -5.574   7.161  0.00  0.00    +0.033 A 
ATOM     15  C   UNL     1      -0.061  -6.931   6.977  0.00  0.00    +0.126 A 
ATOM     16  C   UNL     1       0.816  -7.648   6.184  0.00  0.00    +0.033 A 
ATOM     17  C   UNL     1       1.876  -7.006   5.572  0.00  0.00    +0.008 A 
BRANCH  15  18
ATOM     18  N   UNL     1      -1.199  -7.618   7.630  0.00  0.00    +0.056 N 
ATOM     19  O   UNL     1      -1.966  -6.991   8.323  0.00  0.00    -0.126 OA
ATOM     20  O   UNL     1      -1.361  -8.805   7.469  0.00  0.00    -0.126 OA
ENDBRANCH  15  18
ENDBRANCH   6  12
BRANCH   7  21
ATOM     21  C   UNL     1       4.907  -5.195   6.942  0.00  0.00    +0.248 C 
ATOM     22  O   UNL     1       5.912  -5.699   6.472  0.00  0.00    -0.270 OA
ATOM     23  N   UNL     1       4.556  -5.454   8.217  0.00  0.00    -0.279 N 
ATOM     24  H   UNL     1       3.725  -5.103   8.572  0.00  0.00    +0.155 HD
BRANCH  23  25
ATOM     25  C   UNL     1       5.393  -6.229   9.030  0.00  0.00    +0.076 A 
ATOM     26  C   UNL     1       6.123  -7.274   8.481  0.00  0.00    +0.027 A 
ATOM     27  C   UNL     1       6.948  -8.037   9.285  0.00  0.00    +0.002 A 
ATOM     28  C   UNL     1       7.048  -7.762  10.637  0.00  0.00    +0.004 A 
ATOM     29  C   UNL     1       6.324  -6.723  11.191  0.00  0.00    +0.047 A 
ATOM     30  C   UNL     1       5.499  -5.949  10.390  0.00  0.00    +0.142 A 
BRANCH  30  31
ATOM     31  O   UNL     1       4.791  -4.923  10.933  0.00  0.00    -0.490 OA
BRANCH  31  32
ATOM     32  C   UNL     1       4.949  -4.695  12.335  0.00  0.00    +0.226 C 
ATOM     33  C   UNL     1       4.081  -3.510  12.760  0.00  0.00    +0.048 C 
ENDBRANCH  31  32
ENDBRANCH  30  31
ENDBRANCH  23  25
ENDBRANCH   7  21
BRANCH   1  34
ATOM     34  S   UNL     1       0.977  -2.345   1.097  0.00  0.00    -0.084 S 
BRANCH  34  35
ATOM     35  C   UNL     1       0.944  -0.531   1.129  0.00  0.00    +0.077 C 
BRANCH  35  37
ATOM     36  C   UNL     1       0.216   1.518  -0.101  0.00  0.00    +0.004 C 
ATOM     37  C   UNL     1       0.244  -0.011  -0.128  0.00  0.00    +0.008 C 
ENDBRANCH  35  37
ENDBRANCH  34  35
ENDBRANCH   1  34
TORSDOF 9
