REMARK  Name = ZINC20612800
REMARK  7 active torsions:
REMARK  status: ('A' for Active; 'I' for Inactive)
REMARK    1  A    between atoms: C_1  and  C_2
REMARK    2  A    between atoms: C_2  and  C_3
REMARK    3  A    between atoms: C_2  and  S_4
REMARK    4  A    between atoms: S_4  and  C_5
REMARK    5  A    between atoms: C_10  and  C_11
REMARK    6  A    between atoms: N_13  and  C_14
REMARK    7  A    between atoms: C_17  and  N_21
REMARK                            x       y       z     vdW  Elec       q    Type
REMARK                         _______ _______ _______ _____ _____    ______ ____
ROOT
ATOM      1  C   UNL     1       2.488  -0.254  -0.082  0.00  0.00    +0.249 C 
ATOM      2  O   UNL     1       1.441  -0.846   0.098  0.00  0.00    -0.270 OA
ATOM      3  N   UNL     1       2.488   1.086  -0.231  0.00  0.00    -0.280 N 
ATOM      4  H   UNL     1       3.425   1.614  -0.461  0.00  0.00    +0.155 HD
ENDROOT
BRANCH   3   5
ATOM      5  C   UNL     1       1.295   1.804  -0.093  0.00  0.00    +0.052 A 
ATOM      6  C   UNL     1       0.089   1.230  -0.470  0.00  0.00    +0.027 A 
ATOM      7  C   UNL     1      -1.086   1.944  -0.339  0.00  0.00    +0.034 A 
ATOM      8  C   UNL     1      -1.063   3.227   0.178  0.00  0.00    +0.128 A 
ATOM      9  C   UNL     1       0.136   3.803   0.555  0.00  0.00    +0.054 A 
ATOM     10  C   UNL     1       1.316   3.095   0.421  0.00  0.00    +0.064 A 
ATOM     11 CL   UNL     1       2.821   3.819   0.895  0.00  0.00    -0.082 Cl
BRANCH   8  12
ATOM     12  N   UNL     1      -2.325   3.987   0.322  0.00  0.00    +0.056 N 
ATOM     13  O   UNL     1      -2.307   5.119   0.772  0.00  0.00    -0.126 OA
ATOM     14  O   UNL     1      -3.382   3.481  -0.010  0.00  0.00    -0.126 OA
ENDBRANCH   8  12
ENDBRANCH   3   5
BRANCH   1  20
ATOM     15  C   UNL     1       3.763  -2.397   0.016  0.00  0.00    +0.020 A 
ATOM     16  C   UNL     1       4.967  -3.090  -0.038  0.00  0.00    +0.015 A 
ATOM     17  C   UNL     1       6.148  -2.407  -0.243  0.00  0.00    +0.001 A 
ATOM     18  C   UNL     1       6.145  -1.029  -0.396  0.00  0.00    +0.001 A 
ATOM     19  C   UNL     1       4.962  -0.326  -0.351  0.00  0.00    +0.014 A 
ATOM     20  C   UNL     1       3.757  -1.001  -0.138  0.00  0.00    +0.050 A 
BRANCH  15  21
ATOM     21  S   UNL     1       2.252  -3.265   0.277  0.00  0.00    -0.122 S 
BRANCH  21  23
ATOM     22  C   UNL     1       3.511  -5.060   1.914  0.00  0.00    +0.019 C 
ATOM     23  C   UNL     1       2.776  -4.977   0.575  0.00  0.00    +0.045 C 
ATOM     24  C   UNL     1       1.546  -5.887   0.611  0.00  0.00    +0.019 C 
ENDBRANCH  21  23
ENDBRANCH  15  21
ENDBRANCH   1  20
TORSDOF 5
