REMARK  Name = ZINC35596855
REMARK  6 active torsions:
REMARK  status: ('A' for Active; 'I' for Inactive)
REMARK    1  A    between atoms: C_8  and  C_10
REMARK    2  A    between atoms: N_12  and  C_13
REMARK    3  A    between atoms: N_17  and  C_18
REMARK    4  A    between atoms: C_18  and  C_19
REMARK    5  A    between atoms: N_21  and  C_22
REMARK    6  A    between atoms: C_22  and  C_23
REMARK                            x       y       z     vdW  Elec       q    Type
REMARK                         _______ _______ _______ _____ _____    ______ ____
ROOT
ATOM      1  C   UNL     1       5.950  -4.352  -0.167  0.00  0.00    +0.128 A 
ATOM      2  C   UNL     1       7.326  -4.365  -0.190  0.00  0.00    +0.026 A 
ATOM      3  C   UNL     1       7.734  -5.680  -0.336  0.00  0.00    +0.079 A 
ATOM      4  N   UNL     1       6.654  -6.445  -0.400  0.00  0.00    -0.173 NA
ATOM      5  N   UNL     1       5.526  -5.631  -0.290  0.00  0.00    -0.241 N 
ATOM      6  C   UNL     1       9.240  -5.931  -0.386  0.00  0.00    +0.127 C 
ATOM      7  S   UNL     1       9.893  -4.240  -0.703  0.00  0.00    -0.150 S 
ATOM      8  C   UNL     1       8.426  -3.310  -0.096  0.00  0.00    +0.110 C 
ENDROOT
BRANCH   1  11
ATOM      9  C   UNL     1       5.604  -2.134   0.606  0.00  0.00    +0.285 C 
ATOM     10  O   UNL     1       6.685  -2.168   1.162  0.00  0.00    -0.266 OA
ATOM     11  N   UNL     1       5.140  -3.225  -0.034  0.00  0.00    -0.264 N 
ATOM     12  H   UNL     1       4.243  -3.227  -0.403  0.00  0.00    +0.157 HD
BRANCH   9  20
ATOM     13  C   UNL     1       2.683   3.141   0.988  0.00  0.00    +0.001 A 
ATOM     14  C   UNL     1       1.738   2.452   0.240  0.00  0.00    +0.004 A 
ATOM     15  C   UNL     1       1.948   1.141  -0.127  0.00  0.00    +0.047 A 
ATOM     16  C   UNL     1       3.119   0.495   0.254  0.00  0.00    +0.136 A 
ATOM     17  C   UNL     1       4.074   1.198   1.012  0.00  0.00    +0.021 A 
ATOM     18  C   UNL     1       3.841   2.527   1.373  0.00  0.00    +0.011 A 
ATOM     19  C   UNL     1       5.167   0.254   1.244  0.00  0.00    +0.063 A 
ATOM     20  C   UNL     1       4.803  -0.902   0.632  0.00  0.00    +0.191 A 
ATOM     21  O   UNL     1       3.594  -0.749   0.052  0.00  0.00    -0.450 OA
ENDBRANCH   9  20
ENDBRANCH   1  11
BRANCH   5  22
ATOM     22  C   UNL     1       4.132  -6.080  -0.307  0.00  0.00    +0.241 C 
BRANCH  22  23
ATOM     23  C   UNL     1       3.668  -6.225  -1.734  0.00  0.00    +0.235 C 
ATOM     24  O   UNL     1       4.428  -5.978  -2.646  0.00  0.00    -0.274 OA
ATOM     25  N   UNL     1       2.410  -6.630  -1.996  0.00  0.00    -0.311 N 
ATOM     26  H   UNL     1       1.802  -6.829  -1.266  0.00  0.00    +0.149 HD
BRANCH  25  27
ATOM     27  C   UNL     1       1.959  -6.771  -3.383  0.00  0.00    +0.135 C 
BRANCH  27  28
ATOM     28  C   UNL     1       0.503  -7.241  -3.401  0.00  0.00    +0.135 C 
ATOM     29  C   UNL     1       0.018  -7.430  -4.860  0.00  0.00    +0.035 C 
ATOM     30  C   UNL     1      -1.126  -8.462  -4.659  0.00  0.00    +0.031 C 
ATOM     31  C   UNL     1      -0.593  -9.317  -3.489  0.00  0.00    +0.160 C 
ATOM     32  O   UNL     1       0.390  -8.538  -2.795  0.00  0.00    -0.375 OA
ENDBRANCH  27  28
ENDBRANCH  25  27
ENDBRANCH  22  23
ENDBRANCH   5  22
TORSDOF 6
