REMARK  Name = ZINC21425468
REMARK  8 active torsions:
REMARK  status: ('A' for Active; 'I' for Inactive)
REMARK    1  A    between atoms: C_1  and  C_2
REMARK    2  A    between atoms: C_2  and  C_3
REMARK    3  A    between atoms: C_2  and  S_10
REMARK    4  A    between atoms: N_8  and  C_9
REMARK    5  A    between atoms: S_10  and  C_11
REMARK    6  A    between atoms: C_12  and  C_20
REMARK    7  A    between atoms: C_14  and  C_18
REMARK    8  A    between atoms: C_15  and  N_17
REMARK                            x       y       z     vdW  Elec       q    Type
REMARK                         _______ _______ _______ _____ _____    ______ ____
ROOT
ATOM      1  C   UNL     1       2.509  -0.029  -1.285  0.00  0.00    +0.117 A 
ATOM      2  C   UNL     1       3.466  -0.307  -2.281  0.00  0.00    +0.085 A 
ATOM      3  C   UNL     1       4.777   0.143  -2.108  0.00  0.00    +0.043 A 
ATOM      4  C   UNL     1       5.086   0.854  -0.946  0.00  0.00    +0.092 A 
ATOM      5  C   UNL     1       4.072   1.091   0.003  0.00  0.00    +0.135 A 
ATOM      6  N   UNL     1       2.839   0.654  -0.199  0.00  0.00    -0.224 NA
ENDROOT
BRANCH   5   7
ATOM      7  N   UNL     1       4.366   1.792   1.155  0.00  0.00    -0.342 N 
ATOM      8  H   UNL     1       5.267   2.118   1.307  0.00  0.00    +0.144 HD
ATOM      9  H   UNL     1       3.672   1.958   1.812  0.00  0.00    +0.144 HD
ENDBRANCH   5   7
BRANCH   4  10
ATOM     10  C   UNL     1       6.416   1.335  -0.721  0.00  0.00    +0.103 C 
ATOM     11  N   UNL     1       7.471   1.717  -0.543  0.00  0.00    -0.191 NA
ENDBRANCH   4  10
BRANCH   2  12
ATOM     12  C   UNL     1       3.100  -1.040  -3.455  0.00  0.00    +0.102 C 
ATOM     13  N   UNL     1       2.810  -1.622  -4.387  0.00  0.00    -0.191 NA
ENDBRANCH   2  12
BRANCH   1  14
ATOM     14  S   UNL     1       0.851  -0.589  -1.490  0.00  0.00    -0.092 S 
BRANCH  14  16
ATOM     15  C   UNL     1      -0.019   1.526   0.010  0.00  0.00    +0.029 C 
ATOM     16  C   UNL     1       0.002  -0.004   0.002  0.00  0.00    +0.136 C 
BRANCH  16  17
ATOM     17  C   UNL     1      -1.412  -0.526   0.013  0.00  0.00    +0.233 C 
ATOM     18  O   UNL     1      -1.927  -0.901  -1.018  0.00  0.00    -0.274 OA
ATOM     19  N   UNL     1      -2.103  -0.575   1.169  0.00  0.00    -0.239 N 
ATOM     20  C   UNL     1      -3.368  -1.042   1.178  0.00  0.00    +0.306 C 
ATOM     21  O   UNL     1      -3.884  -1.418   0.144  0.00  0.00    -0.252 OA
ATOM     22  N   UNL     1      -4.059  -1.091   2.334  0.00  0.00    -0.302 N 
ATOM     23  C   UNL     1      -5.433  -1.598   2.344  0.00  0.00    +0.129 C 
ATOM     24  H   UNL     1      -1.691  -0.275   1.994  0.00  0.00    +0.159 HD
ATOM     25  H   UNL     1      -3.647  -0.790   3.159  0.00  0.00    +0.150 HD
ENDBRANCH  16  17
ENDBRANCH  14  16
ENDBRANCH   1  14
TORSDOF 6
