REMARK  Name = ZINC09692156
REMARK  11 active torsions:
REMARK  status: ('A' for Active; 'I' for Inactive)
REMARK    1  A    between atoms: C_1  and  C_2
REMARK    2  A    between atoms: C_2  and  C_3
REMARK    3  A    between atoms: C_12  and  S_14
REMARK    4  A    between atoms: S_14  and  N_17
REMARK    5  A    between atoms: N_17  and  C_18
REMARK    6  A    between atoms: C_18  and  C_20
REMARK    7  A    between atoms: C_18  and  C_23
REMARK    8  A    between atoms: C_20  and  C_21
REMARK    9  A    between atoms: C_20  and  C_22
REMARK   10  A    between atoms: N_25  and  C_26
REMARK   11  A    between atoms: C_26  and  C_27
REMARK                            x       y       z     vdW  Elec       q    Type
REMARK                         _______ _______ _______ _____ _____    ______ ____
ROOT
ATOM      1  C   UNL     1       4.306   5.747  -0.277  0.00  0.00    +0.165 C 
ENDROOT
BRANCH   1   2
ATOM      2  C   UNL     1       2.923   5.363  -0.736  0.00  0.00    +0.232 C 
ATOM      3  O   UNL     1       1.977   6.074  -0.470  0.00  0.00    -0.274 OA
ATOM      4  N   UNL     1       2.738   4.229  -1.440  0.00  0.00    -0.310 N 
ATOM      5  H   UNL     1       3.502   3.700  -1.717  0.00  0.00    +0.149 HD
BRANCH   4   6
ATOM      6  C   UNL     1       1.382   3.796  -1.789  0.00  0.00    +0.152 C 
BRANCH   6   7
ATOM      7  C   UNL     1       1.452   2.491  -2.583  0.00  0.00    +0.228 C 
ATOM      8  C   UNL     1       0.046   2.098  -3.058  0.00  0.00    +0.275 C 
ATOM      9  O   UNL     1       0.145   0.868  -3.784  0.00  0.00    -0.485 OA
ATOM     10  C   UNL     1       0.894  -0.118  -3.219  0.00  0.00    +0.162 A 
ATOM     11  C   UNL     1       0.751  -1.423  -3.666  0.00  0.00    +0.049 A 
ATOM     12  C   UNL     1       1.507  -2.434  -3.104  0.00  0.00    +0.004 A 
ATOM     13  C   UNL     1       2.408  -2.148  -2.095  0.00  0.00    +0.004 A 
ATOM     14  C   UNL     1       2.554  -0.850  -1.644  0.00  0.00    +0.049 A 
ATOM     15  C   UNL     1       1.798   0.169  -2.203  0.00  0.00    +0.163 A 
ATOM     16  O   UNL     1       1.951   1.442  -1.746  0.00  0.00    -0.480 OA
ENDBRANCH   6   7
ENDBRANCH   4   6
ENDBRANCH   1   2
BRANCH   1  17
ATOM     17  C   UNL     1       4.634   5.014   1.026  0.00  0.00    +0.010 C 
ATOM     18  C   UNL     1       6.084   5.300   1.421  0.00  0.00    +0.009 C 
ATOM     19  C   UNL     1       3.698   5.501   2.134  0.00  0.00    +0.009 C 
ENDBRANCH   1  17
BRANCH   1  20
ATOM     20  N   UNL     1       4.361   7.194  -0.051  0.00  0.00    -0.178 NA
ATOM     21  H   UNL     1       3.825   7.595   0.651  0.00  0.00    +0.149 HD
BRANCH  20  22
ATOM     22  S   UNL     1       5.338   8.143  -0.993  0.00  0.00    +0.059 S 
ATOM     23  O   UNL     1       5.107   9.486  -0.592  0.00  0.00    -0.153 OA
ATOM     24  O   UNL     1       6.629   7.550  -0.965  0.00  0.00    -0.153 OA
BRANCH  22  34
ATOM     25  C   UNL     1       2.616   8.190  -7.330  0.00  0.00    +0.220 C 
ATOM     26  O   UNL     1       2.015   9.122  -6.839  0.00  0.00    -0.275 OA
ATOM     27  N   UNL     1       3.518   7.508  -6.597  0.00  0.00    -0.271 N 
ATOM     28  C   UNL     1       4.303   6.369  -7.078  0.00  0.00    +0.118 C 
ATOM     29  C   UNL     1       5.175   5.947  -5.884  0.00  0.00    +0.056 C 
ATOM     30  C   UNL     1       4.804   6.912  -4.781  0.00  0.00    -0.023 A 
ATOM     31  C   UNL     1       3.841   7.785  -5.265  0.00  0.00    +0.040 A 
ATOM     32  C   UNL     1       3.339   8.775  -4.419  0.00  0.00    +0.026 A 
ATOM     33  C   UNL     1       3.796   8.881  -3.123  0.00  0.00    +0.030 A 
ATOM     34  C   UNL     1       4.756   8.005  -2.650  0.00  0.00    +0.106 A 
ATOM     35  C   UNL     1       5.262   7.024  -3.483  0.00  0.00    +0.034 A 
BRANCH  25  37
ATOM     36  C   UNL     1       1.296   8.722  -9.361  0.00  0.00    +0.013 C 
ATOM     37  C   UNL     1       2.354   7.794  -8.761  0.00  0.00    +0.093 C 
ENDBRANCH  25  37
ENDBRANCH  22  34
ENDBRANCH  20  22
ENDBRANCH   1  20
TORSDOF 8
