REMARK  Name = ZINC32587058
REMARK  1 active torsions:
REMARK  status: ('A' for Active; 'I' for Inactive)
REMARK    1  A    between atoms: C_10  and  N_12
REMARK                            x       y       z     vdW  Elec       q    Type
REMARK                         _______ _______ _______ _____ _____    ______ ____
ROOT
ATOM      1  N   UNL     1       3.471   2.005  -1.337  0.00  0.00    -0.322 N 
ATOM      2  C   UNL     1       4.137   2.333  -2.501  0.00  0.00    +0.135 A 
ATOM      3  C   UNL     1       5.519   2.609  -2.487  0.00  0.00    +0.078 A 
ATOM      4  C   UNL     1       6.513   2.642  -1.485  0.00  0.00    +0.147 A 
ATOM      5  N   UNL     1       7.648   2.962  -2.039  0.00  0.00    -0.180 NA
ATOM      6  N   UNL     1       7.463   3.155  -3.414  0.00  0.00    -0.260 N 
ATOM      7  H   UNL     1       8.317   3.433  -4.050  0.00  0.00    +0.191 HD
ATOM      8  C   UNL     1       6.149   2.939  -3.703  0.00  0.00    +0.163 A 
ATOM      9  N   UNL     1       5.418   2.978  -4.816  0.00  0.00    -0.195 NA
ATOM     10  C   UNL     1       4.124   2.712  -4.782  0.00  0.00    +0.216 A 
ATOM     11  N   UNL     1       3.492   2.391  -3.659  0.00  0.00    -0.199 NA
ATOM     12  N   UNL     1       3.402   2.764  -5.962  0.00  0.00    -0.327 N 
ATOM     13  H   UNL     1       4.020   1.956  -0.384  0.00  0.00    +0.148 HD
ATOM     14  H   UNL     1       2.324   2.546  -5.956  0.00  0.00    +0.145 HD
ATOM     15  H   UNL     1       3.906   3.022  -6.904  0.00  0.00    +0.145 HD
ENDROOT
BRANCH   1  25
ATOM     16  C   UNL     1       1.516  -2.371  -2.498  0.00  0.00    +0.000 A 
ATOM     17  C   UNL     1       2.459  -1.577  -3.125  0.00  0.00    +0.000 A 
ATOM     18  C   UNL     1       2.610  -0.261  -2.743  0.00  0.00    +0.006 A 
ATOM     19  C   UNL     1       1.822   0.275  -1.732  0.00  0.00    -0.024 A 
ATOM     20  C   UNL     1       0.886  -0.516  -1.105  0.00  0.00    -0.042 A 
ATOM     21  C   UNL     1       0.734  -1.841  -1.494  0.00  0.00    +0.004 A 
ATOM     22  C   UNL     1       0.002  -0.004   0.002  0.00  0.00    +0.035 C 
ATOM     23  C   UNL     1      -0.019   1.523   0.010  0.00  0.00    +0.007 C 
ATOM     24  C   UNL     1       1.430   2.027  -0.001  0.00  0.00    +0.027 C 
ATOM     25  C   UNL     1       2.034   1.722  -1.370  0.00  0.00    +0.102 C 
ENDBRANCH   1  25
TORSDOF 1
