REMARK  Name = ZINC00814220
REMARK  8 active torsions:
REMARK  status: ('A' for Active; 'I' for Inactive)
REMARK    1  A    between atoms: C_1  and  C_2
REMARK    2  A    between atoms: C_2  and  C_3
REMARK    3  A    between atoms: C_6  and  C_8
REMARK    4  A    between atoms: C_6  and  O_12
REMARK    5  A    between atoms: C_13  and  C_15
REMARK    6  A    between atoms: C_15  and  C_16
REMARK    7  A    between atoms: C_16  and  C_17
REMARK    8  A    between atoms: C_22  and  O_23
REMARK                            x       y       z     vdW  Elec       q    Type
REMARK                         _______ _______ _______ _____ _____    ______ ____
ROOT
ATOM      1  C   UNL     1       0.731  -0.503   1.223  0.00  0.00    +0.042 C 
ATOM      2  N   UNL     1       1.242   0.234   2.121  0.00  0.00    -0.183 NA
ATOM      3  N   UNL     1       1.865  -0.462   3.155  0.00  0.00    -0.152 N 
ATOM      4  C   UNL     1       1.742  -1.905   2.893  0.00  0.00    +0.256 C 
ATOM      5  C   UNL     1       0.958  -1.958   1.566  0.00  0.00    +0.118 C 
ATOM      6  C   UNL     1       2.477   0.094   4.219  0.00  0.00    +0.238 C 
ATOM      7  O   UNL     1       2.989  -0.612   5.062  0.00  0.00    -0.274 OA
ENDROOT
BRANCH   4   8
ATOM      8  C   UNL     1       0.953  -2.592   4.009  0.00  0.00    +0.438 C 
ATOM      9  F   UNL     1      -0.317  -2.013   4.106  0.00  0.00    -0.166 F 
ATOM     10  F   UNL     1       0.824  -3.954   3.719  0.00  0.00    -0.166 F 
ATOM     11  F   UNL     1       1.631  -2.436   5.223  0.00  0.00    -0.166 F 
ENDBRANCH   4   8
BRANCH   1  13
ATOM     12  C   UNL     1      -0.019   1.526   0.010  0.00  0.00    +0.010 C 
ATOM     13  C   UNL     1       0.002  -0.004   0.002  0.00  0.00    +0.049 C 
ENDBRANCH   1  13
BRANCH   4  14
ATOM     14  O   UNL     1       3.033  -2.502   2.745  0.00  0.00    -0.363 OA
ATOM     15  H   UNL     1       3.591  -2.431   3.531  0.00  0.00    +0.212 HD
ENDBRANCH   4  14
BRANCH   6  16
ATOM     16  C   UNL     1       2.527   1.594   4.361  0.00  0.00    +0.102 C 
BRANCH  16  17
ATOM     17  C   UNL     1       3.274   1.960   5.646  0.00  0.00    +0.048 C 
BRANCH  17  18
ATOM     18  C   UNL     1       3.323   3.459   5.788  0.00  0.00    -0.005 A 
ATOM     19  C   UNL     1       4.424   4.160   5.334  0.00  0.00    +0.007 A 
ATOM     20  C   UNL     1       4.470   5.536   5.465  0.00  0.00    +0.000 A 
ATOM     21  C   UNL     1       3.416   6.213   6.049  0.00  0.00    +0.004 A 
ATOM     22  C   UNL     1       2.314   5.517   6.505  0.00  0.00    +0.045 A 
ATOM     23  C   UNL     1       2.262   4.137   6.370  0.00  0.00    +0.120 A 
BRANCH  23  24
ATOM     24  O   UNL     1       1.176   3.450   6.812  0.00  0.00    -0.506 OA
ATOM     25  H   UNL     1       1.240   3.163   7.733  0.00  0.00    +0.292 HD
ENDBRANCH  23  24
ENDBRANCH  17  18
ENDBRANCH  16  17
ENDBRANCH   6  16
TORSDOF 7
