REMARK  Name = ZINC04868339
REMARK  6 active torsions:
REMARK  status: ('A' for Active; 'I' for Inactive)
REMARK    1  A    between atoms: C_1  and  C_2
REMARK    2  A    between atoms: C_3  and  O_14
REMARK    3  A    between atoms: C_4  and  C_13
REMARK    4  A    between atoms: C_6  and  S_8
REMARK    5  A    between atoms: S_8  and  C_9
REMARK    6  A    between atoms: C_9  and  C_10
REMARK                            x       y       z     vdW  Elec       q    Type
REMARK                         _______ _______ _______ _____ _____    ______ ____
ROOT
ATOM      1  C   UNL     1       3.211  -1.125   2.838  0.00  0.00    +0.069 C 
ATOM      2  C   UNL     1       2.021  -0.307   3.268  0.00  0.00    +0.084 A 
ATOM      3  C   UNL     1       1.746  -0.117   4.618  0.00  0.00    +0.159 A 
ATOM      4  C   UNL     1       0.638   0.645   4.968  0.00  0.00    +0.084 A 
ATOM      5  N   UNL     1      -0.117   1.162   4.012  0.00  0.00    -0.223 NA
ATOM      6  C   UNL     1       0.174   0.961   2.735  0.00  0.00    +0.189 A 
ATOM      7  N   UNL     1       1.220   0.235   2.366  0.00  0.00    -0.223 NA
ATOM      8  C   UNL     1       0.299   0.879   6.418  0.00  0.00    +0.069 C 
ENDROOT
BRANCH   3   9
ATOM      9  O   UNL     1       2.545  -0.665   5.574  0.00  0.00    -0.503 OA
ATOM     10  H   UNL     1       2.275  -1.551   5.850  0.00  0.00    +0.292 HD
ENDBRANCH   3   9
BRANCH   6  11
ATOM     11  S   UNL     1      -0.860   1.669   1.497  0.00  0.00    -0.077 S 
BRANCH  11  12
ATOM     12  C   UNL     1      -0.013   1.086   0.008  0.00  0.00    +0.172 C 
BRANCH  12  13
ATOM     13  C   UNL     1      -0.742   1.585  -1.213  0.00  0.00    +0.221 C 
ATOM     14  O   UNL     1      -1.736   2.268  -1.088  0.00  0.00    -0.275 OA
ATOM     15  N   UNL     1      -0.288   1.272  -2.443  0.00  0.00    -0.329 N 
ATOM     16  H   UNL     1       0.507   0.726  -2.543  0.00  0.00    +0.145 HD
ATOM     17  H   UNL     1      -0.758   1.594  -3.229  0.00  0.00    +0.145 HD
ENDBRANCH  12  13
ENDBRANCH  11  12
ENDBRANCH   6  11
TORSDOF 4
