REMARK  Name = ZINC49008426
REMARK  6 active torsions:
REMARK  status: ('A' for Active; 'I' for Inactive)
REMARK    1  A    between atoms: C_1  and  C_2
REMARK    2  A    between atoms: C_7  and  N_10
REMARK    3  A    between atoms: N_10  and  C_11
REMARK    4  A    between atoms: N_10  and  C_12
REMARK    5  A    between atoms: C_12  and  C_13
REMARK    6  A    between atoms: C_15  and  N_23
REMARK                            x       y       z     vdW  Elec       q    Type
REMARK                         _______ _______ _______ _____ _____    ______ ____
ROOT
ATOM      1  C   UNL     1       5.030  -0.556   3.564  0.00  0.00    -0.020 A 
ATOM      2  C   UNL     1       5.217   0.176   4.720  0.00  0.00    +0.028 A 
ATOM      3  C   UNL     1       5.922  -0.374   5.782  0.00  0.00    +0.025 A 
ATOM      4  C   UNL     1       6.439  -1.659   5.680  0.00  0.00    +0.032 A 
ATOM      5  C   UNL     1       6.252  -2.390   4.522  0.00  0.00    +0.022 A 
ATOM      6  C   UNL     1       5.541  -1.843   3.465  0.00  0.00    +0.130 A 
ATOM      7  O   UNL     1       5.338  -2.559   2.325  0.00  0.00    -0.466 OA
ATOM      8  C   UNL     1       6.168  -3.707   2.127  0.00  0.00    +0.394 C 
ATOM      9  O   UNL     1       6.186  -4.474   3.337  0.00  0.00    -0.339 OA
ATOM     10  C   UNL     1       6.821  -3.782   4.421  0.00  0.00    +0.202 C 
ENDROOT
BRANCH   3  11
ATOM     11  N   UNL     1       6.111   0.366   6.955  0.00  0.00    -0.358 N 
ATOM     12  H   UNL     1       5.750   1.263   7.026  0.00  0.00    +0.142 HD
ATOM     13  H   UNL     1       6.603  -0.019   7.697  0.00  0.00    +0.142 HD
ENDBRANCH   3  11
BRANCH   1  14
ATOM     14  C   UNL     1       4.266   0.041   2.410  0.00  0.00    -0.039 C 
BRANCH  14  15
ATOM     15  N   UNL     1       2.888  -0.468   2.421  0.00  0.00    +0.382 N 
ATOM     16  C   UNL     1       2.200   0.006   3.629  0.00  0.00    -0.095 C 
ATOM     17  H   UNL     1       2.902  -1.477   2.415  0.00  0.00    -0.081 HD
BRANCH  15  23
ATOM     18  C   UNL     1      -0.019   1.526   0.010  0.00  0.00    +0.007 C 
ATOM     19  C   UNL     1       0.002  -0.004   0.002  0.00  0.00    -0.016 C 
ATOM     20  C   UNL     1       0.718  -0.497  -1.257  0.00  0.00    +0.003 C 
ATOM     21  C   UNL     1       2.154   0.032  -1.268  0.00  0.00    -0.001 C 
ATOM     22  C   UNL     1       2.894  -0.475  -0.028  0.00  0.00    -0.015 C 
ATOM     23  C   UNL     1       2.178   0.019   1.231  0.00  0.00    -0.068 C 
ATOM     24  C   UNL     1       0.742  -0.511   1.242  0.00  0.00    -0.012 C 
ENDBRANCH  15  23
ENDBRANCH  14  15
ENDBRANCH   1  14
TORSDOF 4
