REMARK  Name = ZINC64890779
REMARK  7 active torsions:
REMARK  status: ('A' for Active; 'I' for Inactive)
REMARK    1  A    between atoms: C_1  and  C_2
REMARK    2  A    between atoms: C_5  and  C_9
REMARK    3  A    between atoms: C_7  and  C_8
REMARK    4  A    between atoms: C_11  and  C_14
REMARK    5  A    between atoms: N_26  and  C_27
REMARK    6  A    between atoms: C_27  and  C_28
REMARK    7  A    between atoms: C_27  and  C_29
REMARK                            x       y       z     vdW  Elec       q    Type
REMARK                         _______ _______ _______ _____ _____    ______ ____
ROOT
ATOM      1  C   UNL     1      -0.216  -7.481  -1.660  0.00  0.00    +0.025 A 
ATOM      2  C   UNL     1      -0.212  -7.268  -3.040  0.00  0.00    +0.014 A 
ATOM      3  C   UNL     1      -0.092  -8.333  -3.903  0.00  0.00    +0.028 A 
ATOM      4  C   UNL     1       0.025  -9.628  -3.405  0.00  0.00    +0.069 A 
ATOM      5  C   UNL     1       0.020  -9.847  -2.026  0.00  0.00    +0.067 A 
ATOM      6  C   UNL     1      -0.095  -8.771  -1.156  0.00  0.00    +0.039 A 
ATOM      7  N   UNL     1       0.136 -11.137  -1.513  0.00  0.00    -0.316 N 
ATOM      8  H   UNL     1       0.132 -11.278  -0.553  0.00  0.00    +0.169 HD
ATOM      9  C   UNL     1       0.254 -12.188  -2.348  0.00  0.00    +0.314 A 
ATOM     10  O   UNL     1       0.355 -13.315  -1.906  0.00  0.00    -0.262 OA
ATOM     11  C   UNL     1       0.258 -11.954  -3.821  0.00  0.00    +0.317 A 
ATOM     12  O   UNL     1       0.363 -12.887  -4.591  0.00  0.00    -0.262 OA
ATOM     13  N   UNL     1       0.144 -10.695  -4.290  0.00  0.00    -0.300 N 
ENDROOT
BRANCH   1  16
ATOM     14  C   UNL     1      -0.560  -4.285  -0.028  0.00  0.00    +0.259 A 
ATOM     15  N   UNL     1      -0.468  -5.044  -1.095  0.00  0.00    -0.187 NA
ATOM     16  C   UNL     1      -0.345  -6.330  -0.732  0.00  0.00    +0.202 A 
ATOM     17  N   UNL     1      -0.357  -6.404   0.577  0.00  0.00    -0.056 NA
ATOM     18  O   UNL     1      -0.491  -5.075   1.058  0.00  0.00    -0.332 OA
BRANCH  14  23
ATOM     19  C   UNL     1      -1.135   1.441  -0.002  0.00  0.00    +0.044 C 
ATOM     20  C   UNL     1      -0.984  -0.059  -0.009  0.00  0.00    -0.047 A 
ATOM     21  C   UNL     1      -0.904  -0.737  -1.212  0.00  0.00    +0.004 A 
ATOM     22  C   UNL     1      -0.766  -2.110  -1.225  0.00  0.00    +0.013 A 
ATOM     23  C   UNL     1      -0.707  -2.814  -0.021  0.00  0.00    +0.040 A 
ATOM     24  C   UNL     1      -0.788  -2.123   1.189  0.00  0.00    +0.017 A 
ATOM     25  C   UNL     1      -0.921  -0.750   1.188  0.00  0.00    -0.047 A 
ATOM     26  C   UNL     1      -1.003  -0.002   2.494  0.00  0.00    +0.044 C 
ENDBRANCH  14  23
ENDBRANCH   1  16
BRANCH  13  27
ATOM     27  C   UNL     1       0.146 -10.450  -5.734  0.00  0.00    +0.085 C 
ATOM     28  C   UNL     1       1.461 -10.951  -6.335  0.00  0.00    +0.030 C 
ATOM     29  C   UNL     1      -1.025 -11.193  -6.379  0.00  0.00    +0.030 C 
ENDBRANCH  13  27
TORSDOF 3
