REMARK  Name = ZINC21231283
REMARK  8 active torsions:
REMARK  status: ('A' for Active; 'I' for Inactive)
REMARK    1  A    between atoms: C_1  and  C_2
REMARK    2  A    between atoms: C_2  and  C_3
REMARK    3  A    between atoms: C_2  and  C_4
REMARK    4  A    between atoms: C_4  and  C_6
REMARK    5  A    between atoms: C_4  and  S_12
REMARK    6  A    between atoms: S_12  and  C_13
REMARK    7  A    between atoms: C_17  and  C_20
REMARK    8  A    between atoms: N_28  and  C_29
REMARK                            x       y       z     vdW  Elec       q    Type
REMARK                         _______ _______ _______ _____ _____    ______ ____
ROOT
ATOM      1  C   UNL     1      -5.056   0.466   1.186  0.00  0.00    +0.173 A 
ATOM      2  N   UNL     1      -4.746  -0.774   0.867  0.00  0.00    -0.216 NA
ATOM      3  C   UNL     1      -5.547  -1.783   1.192  0.00  0.00    +0.117 A 
ATOM      4  C   UNL     1      -6.758  -1.581   1.875  0.00  0.00    +0.080 A 
ATOM      5  C   UNL     1      -7.521  -2.795   2.149  0.00  0.00    +0.004 A 
ATOM      6  C   UNL     1      -7.023  -3.985   1.738  0.00  0.00    +0.056 A 
ATOM      7  S   UNL     1      -5.486  -3.540   0.953  0.00  0.00    -0.076 S 
ATOM      8  C   UNL     1      -7.071  -0.226   2.203  0.00  0.00    +0.263 A 
ATOM      9  O   UNL     1      -8.101   0.043   2.796  0.00  0.00    -0.267 OA
ATOM     10  N   UNL     1      -6.214   0.749   1.850  0.00  0.00    -0.290 N 
ATOM     11  C   UNL     1      -6.529   2.140   2.184  0.00  0.00    +0.154 C 
ENDROOT
BRANCH   5  12
ATOM     12  C   UNL     1      -8.818  -2.727   2.863  0.00  0.00    -0.017 A 
ATOM     13  C   UNL     1      -8.920  -2.023   4.063  0.00  0.00    +0.008 A 
ATOM     14  C   UNL     1     -10.132  -1.958   4.720  0.00  0.00    +0.001 A 
ATOM     15  C   UNL     1     -11.241  -2.598   4.197  0.00  0.00    +0.000 A 
ATOM     16  C   UNL     1     -11.144  -3.303   3.011  0.00  0.00    +0.001 A 
ATOM     17  C   UNL     1      -9.940  -3.370   2.341  0.00  0.00    +0.008 A 
ENDBRANCH   5  12
BRANCH   1  18
ATOM     18  S   UNL     1      -3.964   1.776   0.743  0.00  0.00    -0.075 S 
BRANCH  18  19
ATOM     19  C   UNL     1      -2.630   0.827  -0.029  0.00  0.00    +0.143 C 
BRANCH  19  20
ATOM     20  C   UNL     1      -1.438   1.723  -0.247  0.00  0.00    +0.234 C 
ATOM     21  O   UNL     1      -1.579   2.927  -0.265  0.00  0.00    -0.274 OA
ATOM     22  N   UNL     1      -0.214   1.185  -0.423  0.00  0.00    -0.239 N 
ATOM     23  C   UNL     1       0.851   1.986  -0.625  0.00  0.00    +0.303 C 
ATOM     24  O   UNL     1       0.709   3.193  -0.642  0.00  0.00    -0.253 OA
ATOM     25  N   UNL     1       2.073   1.448  -0.806  0.00  0.00    -0.313 N 
ATOM     26  H   UNL     1      -0.086   0.093  -0.403  0.00  0.00    +0.159 HD
ATOM     27  H   UNL     1       2.943   2.102  -0.970  0.00  0.00    +0.146 HD
ATOM     28  H   UNL     1       2.201   0.356  -0.790  0.00  0.00    +0.146 HD
ENDBRANCH  19  20
BRANCH  19  30
ATOM     29  C   UNL     1      -3.354   1.436  -2.341  0.00  0.00    +0.009 C 
ATOM     30  C   UNL     1      -3.108   0.276  -1.374  0.00  0.00    +0.005 C 
ATOM     31  C   UNL     1      -2.038  -0.652  -1.953  0.00  0.00    +0.009 C 
ENDBRANCH  19  30
ENDBRANCH  18  19
ENDBRANCH   1  18
TORSDOF 5
