REMARK  Name = ZINC02856919
REMARK  11 active torsions:
REMARK  status: ('A' for Active; 'I' for Inactive)
REMARK    1  A    between atoms: C_1  and  C_2
REMARK    2  A    between atoms: C_2  and  N_3
REMARK    3  A    between atoms: C_5  and  N_11
REMARK    4  A    between atoms: C_6  and  C_8
REMARK    5  A    between atoms: N_11  and  C_12
REMARK    6  A    between atoms: C_12  and  N_14
REMARK    7  A    between atoms: N_14  and  C_15
REMARK    8  A    between atoms: C_16  and  C_26
REMARK    9  A    between atoms: C_21  and  C_25
REMARK   10  A    between atoms: C_26  and  O_28
REMARK   11  A    between atoms: O_28  and  C_29
REMARK                            x       y       z     vdW  Elec       q    Type
REMARK                         _______ _______ _______ _____ _____    ______ ____
ROOT
ATOM      1  C   UNL     1      -1.193   2.039   0.018  0.00  0.00    +0.139 C 
ATOM      2  S   UNL     1      -2.664   1.163   0.006  0.00  0.00    -0.018 S 
ENDROOT
BRANCH   1   3
ATOM      3  N   UNL     1      -1.211   3.386   0.026  0.00  0.00    -0.294 N 
ATOM      4  H   UNL     1      -0.381   3.882   0.098  0.00  0.00    +0.154 HD
BRANCH   3   7
ATOM      5  N   UNL     1      -4.529   4.659   0.115  0.00  0.00    -0.269 N 
ATOM      6  C   UNL     1      -3.630   3.697   0.451  0.00  0.00    +0.132 A 
ATOM      7  C   UNL     1      -2.432   4.072  -0.070  0.00  0.00    +0.083 A 
ATOM      8  C   UNL     1      -2.678   5.300  -0.737  0.00  0.00    +0.168 A 
ATOM      9  N   UNL     1      -3.957   5.578  -0.577  0.00  0.00    -0.165 NA
BRANCH   8  10
ATOM     10  C   UNL     1      -1.689   6.112  -1.472  0.00  0.00    +0.263 C 
ATOM     11  O   UNL     1      -0.533   5.742  -1.547  0.00  0.00    -0.269 OA
ATOM     12  N   UNL     1      -2.067   7.264  -2.060  0.00  0.00    -0.324 N 
ATOM     13  H   UNL     1      -2.989   7.559  -2.000  0.00  0.00    +0.145 HD
ATOM     14  H   UNL     1      -1.417   7.798  -2.543  0.00  0.00    +0.145 HD
ENDBRANCH   8  10
BRANCH   5  16
ATOM     15  C   UNL     1      -6.297   5.948   1.206  0.00  0.00    +0.029 C 
ATOM     16  C   UNL     1      -5.947   4.646   0.483  0.00  0.00    +0.140 C 
ENDBRANCH   5  16
ENDBRANCH   3   7
ENDBRANCH   1   3
BRANCH   1  17
ATOM     17  N   UNL     1      -0.017   1.381   0.021  0.00  0.00    -0.291 N 
ATOM     18  H   UNL     1       0.817   1.877   0.024  0.00  0.00    +0.154 HD
BRANCH  17  19
ATOM     19  C   UNL     1       0.002  -0.004   0.013  0.00  0.00    +0.086 A 
ATOM     20  C   UNL     1       1.102  -0.853   0.008  0.00  0.00    +0.091 A 
ATOM     21  C   UNL     1       0.846  -2.283   0.000  0.00  0.00    -0.021 A 
ATOM     22  C   UNL     1      -0.458  -2.634  -0.002  0.00  0.00    -0.004 A 
ATOM     23  S   UNL     1      -1.341  -1.099   0.014  0.00  0.00    -0.077 S 
ATOM     24  C   UNL     1      -1.020  -4.022  -0.009  0.00  0.00    +0.046 C 
ATOM     25  C   UNL     1       0.103  -5.000   0.365  0.00  0.00    -0.009 C 
ATOM     26  C   UNL     1       1.343  -4.670  -0.470  0.00  0.00    +0.008 C 
ATOM     27  C   UNL     1       1.943  -3.341  -0.007  0.00  0.00    +0.037 C 
ATOM     28  C   UNL     1      -0.346  -6.433   0.071  0.00  0.00    +0.008 C 
BRANCH  20  29
ATOM     29  C   UNL     1       2.468  -0.326   0.011  0.00  0.00    +0.342 C 
ATOM     30  O   UNL     1       3.035  -0.113   1.066  0.00  0.00    -0.245 OA
BRANCH  29  31
ATOM     31  O   UNL     1       3.097  -0.076  -1.156  0.00  0.00    -0.464 OA
ATOM     32  C   UNL     1       4.450   0.445  -1.077  0.00  0.00    +0.280 C 
ENDBRANCH  29  31
ENDBRANCH  20  29
ENDBRANCH  17  19
ENDBRANCH   1  17
TORSDOF 8
