REMARK  Name = ZINC06061058
REMARK  8 active torsions:
REMARK  status: ('A' for Active; 'I' for Inactive)
REMARK    1  A    between atoms: C_4  and  C_7
REMARK    2  A    between atoms: C_7  and  C_8
REMARK    3  A    between atoms: C_8  and  C_9
REMARK    4  A    between atoms: N_11  and  C_12
REMARK    5  A    between atoms: C_12  and  C_13
REMARK    6  A    between atoms: N_15  and  N_16
REMARK    7  A    between atoms: N_24  and  C_27
REMARK    8  A    between atoms: C_27  and  C_28
REMARK                            x       y       z     vdW  Elec       q    Type
REMARK                         _______ _______ _______ _____ _____    ______ ____
ROOT
ATOM      1  C   UNL     1       7.819  -3.001   3.939  0.00  0.00    +0.249 C 
ATOM      2  O   UNL     1       7.141  -2.621   4.869  0.00  0.00    -0.272 OA
ATOM      3  N   UNL     1       8.977  -3.649   4.170  0.00  0.00    -0.205 N 
ATOM      4  H   UNL     1       9.520  -3.953   3.425  0.00  0.00    +0.177 HD
ENDROOT
BRANCH   3   5
ATOM      5  N   UNL     1       9.399  -3.884   5.485  0.00  0.00    -0.174 NA
ATOM      6  C   UNL     1      10.526  -4.514   5.710  0.00  0.00    +0.153 C 
ATOM      7  C   UNL     1      11.124  -4.854   7.022  0.00  0.00    +0.028 A 
ATOM      8  C   UNL     1      10.723  -4.637   8.335  0.00  0.00    +0.012 A 
ATOM      9  C   UNL     1      11.514  -5.083   9.375  0.00  0.00    +0.001 A 
ATOM     10  C   UNL     1      12.701  -5.745   9.109  0.00  0.00    +0.002 A 
ATOM     11  C   UNL     1      13.107  -5.965   7.809  0.00  0.00    +0.024 A 
ATOM     12  C   UNL     1      12.324  -5.523   6.748  0.00  0.00    +0.047 A 
ATOM     13  N   UNL     1      12.497  -5.613   5.372  0.00  0.00    -0.257 N 
ATOM     14  C   UNL     1      11.474  -5.046   4.710  0.00  0.00    +0.272 C 
ATOM     15  O   UNL     1      11.352  -4.979   3.501  0.00  0.00    -0.268 OA
BRANCH  13  16
ATOM     16  C   UNL     1      13.646  -6.251   4.725  0.00  0.00    +0.209 C 
BRANCH  16  17
ATOM     17  C   UNL     1      13.348  -7.710   4.497  0.00  0.00    +0.228 C 
ATOM     18  O   UNL     1      12.280  -8.172   4.841  0.00  0.00    -0.274 OA
ATOM     19  N   UNL     1      14.267  -8.503   3.910  0.00  0.00    -0.328 N 
ATOM     20  H   UNL     1      15.121  -8.133   3.635  0.00  0.00    +0.145 HD
ATOM     21  H   UNL     1      14.075  -9.442   3.764  0.00  0.00    +0.145 HD
ENDBRANCH  16  17
ENDBRANCH  13  16
ENDBRANCH   3   5
BRANCH   1  22
ATOM     22  C   UNL     1       7.365  -2.749   2.524  0.00  0.00    +0.201 C 
BRANCH  22  25
ATOM     23  C   UNL     1       5.487  -1.699   1.381  0.00  0.00    +0.214 C 
ATOM     24  O   UNL     1       6.005  -1.990   0.324  0.00  0.00    -0.276 OA
ATOM     25  N   UNL     1       6.087  -2.034   2.541  0.00  0.00    -0.307 N 
ATOM     26  H   UNL     1       5.672  -1.801   3.386  0.00  0.00    +0.149 HD
BRANCH  23  27
ATOM     27  C   UNL     1       4.171  -0.963   1.399  0.00  0.00    +0.100 C 
BRANCH  27  28
ATOM     28  C   UNL     1       3.711  -0.707  -0.038  0.00  0.00    +0.044 C 
BRANCH  28  32
ATOM     29  C   UNL     1      -0.017   1.378   0.010  0.00  0.00    +0.000 A 
ATOM     30  C   UNL     1       1.171   2.086   0.002  0.00  0.00    +0.000 A 
ATOM     31  C   UNL     1       2.377   1.411  -0.013  0.00  0.00    +0.003 A 
ATOM     32  C   UNL     1       2.396   0.029  -0.020  0.00  0.00    -0.047 A 
ATOM     33  C   UNL     1       1.208  -0.679  -0.012  0.00  0.00    +0.003 A 
ATOM     34  C   UNL     1       0.002  -0.004   0.002  0.00  0.00    +0.000 A 
ENDBRANCH  28  32
ENDBRANCH  27  28
ENDBRANCH  23  27
ENDBRANCH  22  25
ENDBRANCH   1  22
TORSDOF 8
