REMARK  Name = ZINC67240075
REMARK  7 active torsions:
REMARK  status: ('A' for Active; 'I' for Inactive)
REMARK    1  A    between atoms: C_1  and  C_2
REMARK    2  A    between atoms: C_5  and  C_8
REMARK    3  A    between atoms: C_8  and  N_9
REMARK    4  A    between atoms: C_10  and  N_25
REMARK    5  A    between atoms: C_11  and  C_14
REMARK    6  A    between atoms: N_16  and  C_17
REMARK    7  A    between atoms: C_20  and  C_24
REMARK                            x       y       z     vdW  Elec       q    Type
REMARK                         _______ _______ _______ _____ _____    ______ ____
ROOT
ATOM      1  N   UNL     1       1.457  -4.715  -0.033  0.00  0.00    -0.226 N 
ATOM      2  C   UNL     1       2.214  -4.972  -1.126  0.00  0.00    +0.147 A 
ATOM      3  C   UNL     1       3.449  -5.402  -0.656  0.00  0.00    +0.188 A 
ATOM      4  N   UNL     1       3.408  -5.394   0.689  0.00  0.00    -0.123 NA
ATOM      5  N   UNL     1       2.253  -4.989   1.087  0.00  0.00    -0.063 NA
ENDROOT
BRANCH   3   6
ATOM      6  C   UNL     1       4.596  -5.796  -1.482  0.00  0.00    +0.272 C 
ATOM      7  O   UNL     1       4.512  -5.762  -2.696  0.00  0.00    -0.268 OA
ATOM      8  N   UNL     1       5.742  -6.196  -0.897  0.00  0.00    -0.279 N 
ATOM      9  H   UNL     1       5.831  -6.161   0.069  0.00  0.00    +0.155 HD
BRANCH   8  10
ATOM     10  C   UNL     1       6.803  -6.661  -1.681  0.00  0.00    +0.048 A 
ATOM     11  C   UNL     1       7.039  -6.106  -2.932  0.00  0.00    +0.025 A 
ATOM     12  C   UNL     1       8.087  -6.567  -3.704  0.00  0.00    +0.005 A 
ATOM     13  C   UNL     1       8.902  -7.581  -3.233  0.00  0.00    -0.049 A 
ATOM     14  C   UNL     1       8.670  -8.136  -1.988  0.00  0.00    +0.020 A 
ATOM     15  C   UNL     1       7.627  -7.675  -1.208  0.00  0.00    +0.039 A 
ATOM     16 BR   UNL     1       7.316  -8.428   0.499  0.00  0.00    -0.048 Br
ATOM     17  C   UNL     1      10.044  -8.082  -4.079  0.00  0.00    +0.044 C 
ENDBRANCH   8  10
ENDBRANCH   3   6
BRANCH   2  18
ATOM     18  N   UNL     1       1.834  -4.834  -2.445  0.00  0.00    -0.341 N 
ATOM     19  H   UNL     1       0.941  -4.524  -2.663  0.00  0.00    +0.144 HD
ATOM     20  H   UNL     1       2.459  -5.047  -3.155  0.00  0.00    +0.144 HD
ENDBRANCH   2  18
BRANCH   1  21
ATOM     21  C   UNL     1       0.073  -4.235  -0.023  0.00  0.00    +0.182 C 
BRANCH  21  26
ATOM     22  C   UNL     1       0.032   1.543  -0.013  0.00  0.00    +0.044 C 
ATOM     23  C   UNL     1       0.043   0.036  -0.016  0.00  0.00    -0.050 A 
ATOM     24  C   UNL     1       0.041  -0.653  -1.214  0.00  0.00    +0.004 A 
ATOM     25  C   UNL     1       0.051  -2.035  -1.217  0.00  0.00    +0.006 A 
ATOM     26  C   UNL     1       0.063  -2.728  -0.021  0.00  0.00    -0.026 A 
ATOM     27  C   UNL     1       0.066  -2.039   1.178  0.00  0.00    +0.006 A 
ATOM     28  C   UNL     1       0.061  -0.657   1.180  0.00  0.00    +0.004 A 
ENDBRANCH  21  26
ENDBRANCH   1  21
TORSDOF 5
