REMARK  Name = ZINC21649036
REMARK  8 active torsions:
REMARK  status: ('A' for Active; 'I' for Inactive)
REMARK    1  A    between atoms: C_1  and  N_2
REMARK    2  A    between atoms: N_2  and  C_3
REMARK    3  A    between atoms: C_4  and  C_6
REMARK    4  A    between atoms: N_12  and  C_22
REMARK    5  A    between atoms: C_22  and  C_23
REMARK    6  A    between atoms: N_25  and  C_26
REMARK    7  A    between atoms: C_26  and  C_27
REMARK    8  A    between atoms: C_27  and  C_28
REMARK                            x       y       z     vdW  Elec       q    Type
REMARK                         _______ _______ _______ _____ _____    ______ ____
ROOT
ATOM      1  C   UNL     1      -4.030   1.763   4.898  0.00  0.00    +0.039 A 
ATOM      2  C   UNL     1      -2.640   1.615   4.861  0.00  0.00    +0.015 A 
ATOM      3  C   UNL     1      -2.002   1.378   3.664  0.00  0.00    +0.026 A 
ATOM      4  C   UNL     1      -2.735   1.286   2.485  0.00  0.00    +0.052 A 
ATOM      5  C   UNL     1      -4.123   1.449   2.516  0.00  0.00    +0.059 A 
ATOM      6  C   UNL     1      -4.769   1.678   3.715  0.00  0.00    +0.038 A 
ATOM      7  N   UNL     1      -4.856   1.407   1.320  0.00  0.00    -0.259 N 
ATOM      8  C   UNL     1      -4.193   1.477   0.145  0.00  0.00    +0.241 C 
ATOM      9  O   UNL     1      -4.789   1.348  -0.903  0.00  0.00    -0.273 OA
ATOM     10  C   UNL     1      -2.708   1.716   0.151  0.00  0.00    +0.160 C 
ATOM     11  N   UNL     1      -2.087   1.029   1.285  0.00  0.00    -0.317 N 
ATOM     12  C   UNL     1      -0.650   1.317   1.363  0.00  0.00    +0.106 C 
ATOM     13  C   UNL     1       0.037   0.804   0.094  0.00  0.00    +0.019 C 
ATOM     14  C   UNL     1      -0.582   1.482  -1.131  0.00  0.00    +0.004 C 
ATOM     15  C   UNL     1      -2.090   1.210  -1.154  0.00  0.00    +0.032 C 
ENDROOT
BRANCH   1  19
ATOM     16  C   UNL     1      -4.732   2.876   8.458  0.00  0.00    +0.132 C 
ATOM     17  N   UNL     1      -4.107   2.734   7.141  0.00  0.00    -0.304 N 
ATOM     18  C   UNL     1      -2.822   3.381   6.867  0.00  0.00    +0.132 C 
ATOM     19  C   UNL     1      -4.714   2.007   6.182  0.00  0.00    +0.246 C 
ATOM     20  O   UNL     1      -5.825   1.553   6.375  0.00  0.00    -0.270 OA
ENDBRANCH   1  19
BRANCH   7  21
ATOM     21  C   UNL     1      -6.316   1.289   1.345  0.00  0.00    +0.209 C 
BRANCH  21  22
ATOM     22  C   UNL     1      -6.931   2.664   1.373  0.00  0.00    +0.231 C 
ATOM     23  O   UNL     1      -6.219   3.647   1.373  0.00  0.00    -0.274 OA
ATOM     24  N   UNL     1      -8.271   2.803   1.400  0.00  0.00    -0.314 N 
ATOM     25  H   UNL     1      -8.916   1.912   1.401  0.00  0.00    +0.149 HD
BRANCH  24  26
ATOM     26  C   UNL     1      -8.869   4.141   1.427  0.00  0.00    +0.108 C 
BRANCH  26  27
ATOM     27  C   UNL     1     -10.393   4.017   1.454  0.00  0.00    +0.049 C 
BRANCH  27  28
ATOM     28  C   UNL     1     -11.008   5.393   1.482  0.00  0.00    -0.072 C 
ATOM     29  C   UNL     1     -11.368   5.920   0.356  0.00  0.00    -0.028 C 
ATOM     30  C   UNL     1     -11.983   7.283   0.224  0.00  0.00    +0.027 C 
ATOM     31  C   UNL     1     -12.505   7.759   1.581  0.00  0.00    +0.004 C 
ATOM     32  C   UNL     1     -11.395   7.567   2.622  0.00  0.00    +0.005 C 
ATOM     33  C   UNL     1     -11.171   6.064   2.814  0.00  0.00    +0.030 C 
ENDBRANCH  27  28
ENDBRANCH  26  27
ENDBRANCH  24  26
ENDBRANCH  21  22
ENDBRANCH   7  21
TORSDOF 6
