REMARK  Name = ZINC39561132
REMARK  7 active torsions:
REMARK  status: ('A' for Active; 'I' for Inactive)
REMARK    1  A    between atoms: C_1  and  C_2
REMARK    2  A    between atoms: C_2  and  C_29
REMARK    3  A    between atoms: C_13  and  C_15
REMARK    4  A    between atoms: C_15  and  O_16
REMARK    5  A    between atoms: O_16  and  C_17
REMARK    6  A    between atoms: C_17  and  C_19
REMARK    7  A    between atoms: C_21  and  N_27
REMARK                            x       y       z     vdW  Elec       q    Type
REMARK                         _______ _______ _______ _____ _____    ______ ____
ROOT
ATOM      1  C   UNL     1       0.022   1.537  -0.021  0.00  0.00    +0.042 C 
ATOM      2  C   UNL     1      -0.079   0.014   0.081  0.00  0.00    +0.113 C 
ATOM      3  C   UNL     1      -1.516  -0.382   0.306  0.00  0.00    +0.241 C 
ATOM      4  O   UNL     1      -2.405   0.299  -0.159  0.00  0.00    -0.273 OA
ATOM      5  N   UNL     1      -1.824  -1.484   1.016  0.00  0.00    -0.282 N 
ATOM      6  C   UNL     1      -0.819  -2.260   1.604  0.00  0.00    +0.055 A 
ATOM      7  C   UNL     1      -1.093  -3.532   2.079  0.00  0.00    +0.025 A 
ATOM      8  C   UNL     1      -0.087  -4.281   2.662  0.00  0.00    +0.002 A 
ATOM      9  C   UNL     1       1.192  -3.767   2.773  0.00  0.00    +0.002 A 
ATOM     10  C   UNL     1       1.475  -2.498   2.299  0.00  0.00    +0.025 A 
ATOM     11  C   UNL     1       0.474  -1.745   1.713  0.00  0.00    +0.059 A 
ATOM     12  N   UNL     1       0.731  -0.459   1.213  0.00  0.00    -0.253 N 
ATOM     13  C   UNL     1       1.691   0.318   1.753  0.00  0.00    +0.258 C 
ATOM     14  O   UNL     1       1.830   1.462   1.375  0.00  0.00    -0.271 OA
ATOM     15  C   UNL     1       0.432  -0.621  -1.214  0.00  0.00    +0.042 C 
ATOM     16  H   UNL     1      -2.753  -1.743   1.121  0.00  0.00    +0.155 HD
ENDROOT
BRANCH  13  17
ATOM     17  C   UNL     1       2.592  -0.234   2.828  0.00  0.00    +0.328 C 
BRANCH  17  18
ATOM     18  O   UNL     1       3.341   0.831   3.417  0.00  0.00    -0.451 OA
BRANCH  18  19
ATOM     19  C   UNL     1       4.199   0.504   4.401  0.00  0.00    +0.360 C 
ATOM     20  O   UNL     1       4.310  -0.654   4.751  0.00  0.00    -0.243 OA
BRANCH  19  21
ATOM     21  C   UNL     1       5.008   1.555   5.057  0.00  0.00    +0.169 A 
ATOM     22  C   UNL     1       5.898   1.208   6.070  0.00  0.00    +0.095 A 
ATOM     23  C   UNL     1       6.654   2.212   6.678  0.00  0.00    +0.067 A 
ATOM     24  C   UNL     1       6.484   3.525   6.242  0.00  0.00    +0.100 A 
ATOM     25  C   UNL     1       5.577   3.789   5.227  0.00  0.00    +0.150 A 
ATOM     26  N   UNL     1       4.882   2.820   4.669  0.00  0.00    -0.226 NA
ATOM     27 CL   UNL     1       5.361   5.422   4.678  0.00  0.00    -0.060 Cl
ATOM     28 CL   UNL     1       7.396   4.814   6.962  0.00  0.00    -0.078 Cl
ATOM     29 CL   UNL     1       6.064  -0.446   6.570  0.00  0.00    -0.079 Cl
BRANCH  23  30
ATOM     30  N   UNL     1       7.555   1.909   7.696  0.00  0.00    -0.356 N 
ATOM     31  H   UNL     1       7.664   0.991   7.991  0.00  0.00    +0.142 HD
ATOM     32  H   UNL     1       8.075   2.616   8.110  0.00  0.00    +0.142 HD
ENDBRANCH  23  30
ENDBRANCH  19  21
ENDBRANCH  18  19
ENDBRANCH  17  18
ENDBRANCH  13  17
TORSDOF 5
