REMARK  Name = ZINC03838939
REMARK  5 active torsions:
REMARK  status: ('A' for Active; 'I' for Inactive)
REMARK    1  A    between atoms: C_2  and  C_3
REMARK    2  A    between atoms: C_3  and  N_4
REMARK    3  A    between atoms: N_7  and  C_8
REMARK    4  A    between atoms: CA_18  and  CB_22
REMARK    5  A    between atoms: CB_22  and  CG_23
REMARK                            x       y       z     vdW  Elec       q    Type
REMARK                         _______ _______ _______ _____ _____    ______ ____
ROOT
ATOM      1  C   UNK A   1      -2.561   3.679   0.828  0.00  0.00    +0.105 C 
ATOM      2  C   UNK A   1      -3.386   2.377   0.828  0.00  0.00    +0.043 C 
ATOM      3  C   UNK A   1      -2.542   1.354   0.043  0.00  0.00    +0.110 C 
ATOM      4  N   UNK A   1      -1.177   1.885   0.018  0.00  0.00    -0.287 N 
ATOM      5  C   UNK A   1      -1.283   3.357   0.032  0.00  0.00    +0.182 C 
ATOM      6  C   UNK A   1      -0.084   3.905   0.765  0.00  0.00    +0.236 C 
ATOM      7  O   UNK A   1      -0.178   4.948   1.376  0.00  0.00    -0.274 OA
ATOM      8  N   PHE A   2       1.089   3.248   0.746  0.00  0.00    -0.302 N 
ATOM      9  CA  PHE A   2       1.271   2.003   0.001  0.00  0.00    +0.163 C 
ATOM     10  C   PHE A   2      -0.014   1.209   0.009  0.00  0.00    +0.237 C 
ATOM     11  O   PHE A   2       0.002  -0.004   0.002  0.00  0.00    -0.274 OA
ATOM     12  H   PHE A   2       1.838   3.611   1.244  0.00  0.00    +0.150 HD
ENDROOT
BRANCH   1  16
ATOM     13  N   UNK A   1      -4.831   6.520   0.286  0.00  0.00    -0.296 N 
ATOM     14  C   UNK A   1      -4.142   5.531   0.890  0.00  0.00    +0.300 C 
ATOM     15  O   UNK A   1      -4.272   5.341   2.084  0.00  0.00    -0.253 OA
ATOM     16  N   UNK A   1      -3.309   4.753   0.171  0.00  0.00    -0.294 N 
ATOM     17  H   UNK A   1      -4.728   6.671  -0.666  0.00  0.00    +0.151 HD
ATOM     18  H   UNK A   1      -3.206   4.904  -0.782  0.00  0.00    +0.151 HD
BRANCH  13  19
ATOM     19  C   UNK A   1      -5.736   7.365   1.068  0.00  0.00    +0.132 C 
BRANCH  19  21
ATOM     20  C   UNK A   1      -7.683   8.481   0.107  0.00  0.00    +0.005 C 
ATOM     21  C   UNK A   1      -6.378   8.385   0.163  0.00  0.00    -0.016 C 
ENDBRANCH  19  21
ENDBRANCH  13  19
ENDBRANCH   1  16
BRANCH   9  22
ATOM     22  CB  PHE A   2       1.659   2.328  -1.443  0.00  0.00    +0.067 C 
BRANCH  22  23
ATOM     23  CG  PHE A   2       3.001   3.013  -1.461  0.00  0.00    -0.045 A 
ATOM     24  CD2 PHE A   2       3.075   4.391  -1.381  0.00  0.00    +0.004 A 
ATOM     25  CE2 PHE A   2       4.307   5.019  -1.393  0.00  0.00    +0.000 A 
ATOM     26  CZ  PHE A   2       5.464   4.270  -1.494  0.00  0.00    +0.000 A 
ATOM     27  CE1 PHE A   2       5.390   2.892  -1.578  0.00  0.00    +0.000 A 
ATOM     28  CD1 PHE A   2       4.158   2.264  -1.562  0.00  0.00    +0.004 A 
ENDBRANCH  22  23
ENDBRANCH   9  22
TORSDOF 5
