REMARK  Name = ZINC02651171
REMARK  9 active torsions:
REMARK  status: ('A' for Active; 'I' for Inactive)
REMARK    1  A    between atoms: C_3  and  O_8
REMARK    2  A    between atoms: O_8  and  C_9
REMARK    3  A    between atoms: C_9  and  C_10
REMARK    4  A    between atoms: C_10  and  C_12
REMARK    5  A    between atoms: C_10  and  O_32
REMARK    6  A    between atoms: C_12  and  N_53
REMARK    7  A    between atoms: N_15  and  S_18
REMARK    8  A    between atoms: S_18  and  C_21
REMARK    9  A    between atoms: C_23  and  C_28
REMARK                            x       y       z     vdW  Elec       q    Type
REMARK                         _______ _______ _______ _____ _____    ______ ____
ROOT
ATOM      1  C   UNL     1      -0.770  -0.666  -2.676  0.00  0.00    -0.061 C 
ATOM      2  C   UNL     1      -1.787  -0.070  -3.655  0.00  0.00    +0.091 C 
ATOM      3  N   UNL     1      -1.169  -0.005  -4.988  0.00  0.00    -0.180 NA
ATOM      4  C   UNL     1       0.151   0.631  -5.114  0.00  0.00    +0.091 C 
ATOM      5  C   UNL     1       1.092   0.006  -4.077  0.00  0.00    -0.061 C 
ATOM      6  N   UNL     1       0.474   0.131  -2.739  0.00  0.00    +0.383 N 
ATOM      7  H   UNL     1       0.246   1.118  -2.569  0.00  0.00    -0.082 HD
ENDROOT
BRANCH   3   8
ATOM      8  S   UNL     1      -1.940  -0.631  -6.314  0.00  0.00    +0.062 S 
ATOM      9  O   UNL     1      -0.924  -1.083  -7.199  0.00  0.00    -0.153 OA
ATOM     10  O   UNL     1      -2.959  -1.491  -5.822  0.00  0.00    -0.153 OA
BRANCH   8  11
ATOM     11  C   UNL     1      -2.755   0.705  -7.122  0.00  0.00    +0.124 A 
ATOM     12  C   UNL     1      -2.353   1.098  -8.385  0.00  0.00    +0.042 A 
ATOM     13  C   UNL     1      -2.995   2.143  -9.021  0.00  0.00    +0.057 A 
ATOM     14  C   UNL     1      -4.033   2.804  -8.391  0.00  0.00    +0.014 A 
ATOM     15  C   UNL     1      -4.433   2.416  -7.127  0.00  0.00    +0.022 A 
ATOM     16  C   UNL     1      -3.794   1.366  -6.491  0.00  0.00    +0.067 A 
ATOM     17 CL   UNL     1      -4.296   0.877  -4.903  0.00  0.00    -0.082 Cl
BRANCH  13  18
ATOM     18  C   UNL     1      -2.559   2.567 -10.400  0.00  0.00    +0.417 C 
ATOM     19  F   UNL     1      -3.348   3.640 -10.829  0.00  0.00    -0.166 F 
ATOM     20  F   UNL     1      -1.217   2.960 -10.365  0.00  0.00    -0.166 F 
ATOM     21  F   UNL     1      -2.708   1.496 -11.287  0.00  0.00    -0.166 F 
ENDBRANCH  13  18
ENDBRANCH   8  11
ENDBRANCH   3   8
BRANCH   6  22
ATOM     22  C   UNL     1       1.421  -0.328  -1.702  0.00  0.00    -0.044 C 
BRANCH  22  23
ATOM     23  C   UNL     1       0.848   0.016  -0.326  0.00  0.00    +0.135 C 
BRANCH  23  24
ATOM     24  O   UNL     1       0.647   1.428  -0.233  0.00  0.00    -0.390 OA
ATOM     25  H   UNL     1       1.455   1.949  -0.345  0.00  0.00    +0.210 HD
ENDBRANCH  23  24
BRANCH  23  26
ATOM     26  C   UNL     1       1.828  -0.431   0.761  0.00  0.00    +0.258 C 
BRANCH  26  27
ATOM     27  O   UNL     1       1.244  -0.216   2.047  0.00  0.00    -0.489 OA
BRANCH  27  30
ATOM     28  C   UNL     1       2.243  -0.736   5.507  0.00  0.00    +0.005 A 
ATOM     29  C   UNL     1       1.483  -0.382   4.408  0.00  0.00    +0.046 A 
ATOM     30  C   UNL     1       1.989  -0.564   3.129  0.00  0.00    +0.122 A 
ATOM     31  C   UNL     1       3.254  -1.106   2.956  0.00  0.00    +0.061 A 
ATOM     32  C   UNL     1       4.012  -1.454   4.059  0.00  0.00    +0.021 A 
ATOM     33  C   UNL     1       3.505  -1.272   5.333  0.00  0.00    +0.015 A 
ATOM     34 BR   UNL     1       5.739  -2.187   3.825  0.00  0.00    -0.050 Br
ENDBRANCH  27  30
ENDBRANCH  26  27
ENDBRANCH  23  26
ENDBRANCH  22  23
ENDBRANCH   6  22
TORSDOF 9
