REMARK  Name = ZINC13458268
REMARK  7 active torsions:
REMARK  status: ('A' for Active; 'I' for Inactive)
REMARK    1  A    between atoms: C_1  and  C_2
REMARK    2  A    between atoms: C_2  and  N_3
REMARK    3  A    between atoms: C_9  and  C_29
REMARK    4  A    between atoms: C_13  and  S_14
REMARK    5  A    between atoms: S_14  and  C_15
REMARK    6  A    between atoms: C_15  and  C_16
REMARK    7  A    between atoms: C_18  and  C_21
REMARK                            x       y       z     vdW  Elec       q    Type
REMARK                         _______ _______ _______ _____ _____    ______ ____
ROOT
ATOM      1  N   UNL     1      -0.698   1.558   1.213  0.00  0.00    -0.288 N 
ATOM      2  C   UNL     1      -0.344   2.740   1.767  0.00  0.00    +0.262 A 
ATOM      3  O   UNL     1       0.539   3.424   1.283  0.00  0.00    -0.267 OA
ATOM      4  C   UNL     1      -1.067   3.172   2.974  0.00  0.00    +0.065 A 
ATOM      5  C   UNL     1      -0.774   4.377   3.612  0.00  0.00    +0.016 A 
ATOM      6  C   UNL     1      -1.465   4.739   4.733  0.00  0.00    +0.016 A 
ATOM      7  C   UNL     1      -2.468   3.909   5.251  0.00  0.00    +0.065 A 
ATOM      8  C   UNL     1      -2.776   2.705   4.632  0.00  0.00    +0.043 A 
ATOM      9  C   UNL     1      -2.076   2.324   3.484  0.00  0.00    +0.080 A 
ATOM     10  N   UNL     1      -2.342   1.159   2.848  0.00  0.00    -0.223 NA
ATOM     11  C   UNL     1      -1.687   0.799   1.772  0.00  0.00    +0.173 A 
ENDROOT
BRANCH   7  12
ATOM     12  C   UNL     1      -3.205   4.320   6.467  0.00  0.00    +0.387 C 
ATOM     13  O   UNL     1      -4.075   3.604   6.920  0.00  0.00    -0.241 OA
ATOM     14  O   UNL     1      -2.910   5.487   7.071  0.00  0.00    -0.241 OA
ENDBRANCH   7  12
BRANCH   1  16
ATOM     15  C   UNL     1      -0.753   1.593  -1.232  0.00  0.00    +0.027 C 
ATOM     16  C   UNL     1      -0.013   1.086   0.008  0.00  0.00    +0.124 C 
ENDBRANCH   1  16
BRANCH  11  17
ATOM     17  S   UNL     1      -2.100  -0.735   1.009  0.00  0.00    -0.080 S 
BRANCH  17  18
ATOM     18  C   UNL     1      -3.415  -1.294   2.121  0.00  0.00    +0.154 C 
BRANCH  18  19
ATOM     19  C   UNL     1      -3.936  -2.627   1.651  0.00  0.00    +0.148 A 
ATOM     20  C   UNL     1      -3.479  -3.847   2.016  0.00  0.00    +0.077 A 
ATOM     21  C   UNL     1      -4.307  -4.753   1.295  0.00  0.00    +0.115 A 
ATOM     22  N   UNL     1      -5.138  -4.013   0.603  0.00  0.00    -0.078 NA
ATOM     23  O   UNL     1      -4.947  -2.835   0.795  0.00  0.00    -0.358 OA
BRANCH  21  24
ATOM     24  C   UNL     1      -4.242  -6.235   1.323  0.00  0.00    +0.022 A 
ATOM     25  C   UNL     1      -3.292  -6.878   2.113  0.00  0.00    +0.013 A 
ATOM     26  C   UNL     1      -3.239  -8.257   2.140  0.00  0.00    +0.021 A 
ATOM     27  C   UNL     1      -4.121  -9.001   1.375  0.00  0.00    +0.042 A 
ATOM     28  C   UNL     1      -5.064  -8.368   0.585  0.00  0.00    +0.040 A 
ATOM     29  C   UNL     1      -5.129  -6.988   0.555  0.00  0.00    +0.052 A 
ATOM     30 CL   UNL     1      -6.312  -6.194  -0.437  0.00  0.00    -0.083 Cl
ATOM     31 CL   UNL     1      -4.045 -10.735   1.409  0.00  0.00    -0.083 Cl
ENDBRANCH  21  24
ENDBRANCH  18  19
ENDBRANCH  17  18
ENDBRANCH  11  17
TORSDOF 6
