REMARK  Name = ZINC01066327
REMARK  8 active torsions:
REMARK  status: ('A' for Active; 'I' for Inactive)
REMARK    1  A    between atoms: C_1  and  C_2
REMARK    2  A    between atoms: C_2  and  O_3
REMARK    3  A    between atoms: O_3  and  C_4
REMARK    4  A    between atoms: C_4  and  C_6
REMARK    5  A    between atoms: C_7  and  C_35
REMARK    6  A    between atoms: C_11  and  C_13
REMARK    7  A    between atoms: C_16  and  N_19
REMARK    8  A    between atoms: C_25  and  C_28
REMARK                            x       y       z     vdW  Elec       q    Type
REMARK                         _______ _______ _______ _____ _____    ______ ____
ROOT
ATOM      1  C   UNL     1       1.308   1.647  -0.125  0.00  0.00    +0.065 C 
ATOM      2  C   UNL     1       1.748   2.666   0.634  0.00  0.00    +0.016 C 
ATOM      3  N   UNL     1       0.934   3.228   1.578  0.00  0.00    -0.321 N 
ATOM      4  C   UNL     1      -0.156   2.548   2.053  0.00  0.00    +0.016 C 
ATOM      5  C   UNL     1      -0.682   1.522   1.350  0.00  0.00    +0.024 C 
ATOM      6  C   UNL     1      -0.081   1.102   0.032  0.00  0.00    +0.092 C 
ATOM      7  C   UNL     1      -1.803   0.818   1.824  0.00  0.00    +0.162 C 
ATOM      8  O   UNL     1      -2.243  -0.110   1.175  0.00  0.00    -0.292 OA
ATOM      9  C   UNL     1      -2.467   1.193   3.121  0.00  0.00    +0.088 C 
ATOM     10  C   UNL     1      -2.252   2.688   3.377  0.00  0.00    +0.032 C 
ATOM     11  C   UNL     1      -0.748   2.970   3.374  0.00  0.00    +0.059 C 
ATOM     12  C   UNL     1       3.146   3.193   0.442  0.00  0.00    +0.061 C 
ATOM     13  H   UNL     1       1.153   4.234   1.964  0.00  0.00    +0.152 HD
ENDROOT
BRANCH  10  14
ATOM     14  C   UNL     1      -2.835   3.062   4.715  0.00  0.00    -0.043 A 
ATOM     15  C   UNL     1      -2.369   2.454   5.866  0.00  0.00    +0.005 A 
ATOM     16  C   UNL     1      -2.899   2.800   7.094  0.00  0.00    +0.020 A 
ATOM     17  C   UNL     1      -3.905   3.748   7.171  0.00  0.00    +0.041 A 
ATOM     18  C   UNL     1      -4.375   4.352   6.019  0.00  0.00    +0.020 A 
ATOM     19  C   UNL     1      -3.840   4.009   4.792  0.00  0.00    +0.005 A 
ATOM     20 CL   UNL     1      -4.576   4.178   8.713  0.00  0.00    -0.084 Cl
ENDBRANCH  10  14
BRANCH   6  21
ATOM     21  C   UNL     1      -0.945   1.617  -1.090  0.00  0.00    -0.035 A 
ATOM     22  C   UNL     1      -1.148   2.977  -1.238  0.00  0.00    +0.007 A 
ATOM     23  C   UNL     1      -1.936   3.450  -2.270  0.00  0.00    +0.033 A 
ATOM     24  C   UNL     1      -2.529   2.562  -3.149  0.00  0.00    +0.126 A 
ATOM     25  C   UNL     1      -2.330   1.203  -2.998  0.00  0.00    +0.033 A 
ATOM     26  C   UNL     1      -1.538   0.730  -1.969  0.00  0.00    +0.007 A 
BRANCH  24  27
ATOM     27  N   UNL     1      -3.377   3.068  -4.252  0.00  0.00    +0.056 N 
ATOM     28  O   UNL     1      -3.899   2.287  -5.026  0.00  0.00    -0.126 OA
ATOM     29  O   UNL     1      -3.552   4.266  -4.385  0.00  0.00    -0.126 OA
ENDBRANCH  24  27
ENDBRANCH   6  21
BRANCH   1  30
ATOM     30  C   UNL     1       2.171   1.078  -1.090  0.00  0.00    +0.338 C 
ATOM     31  O   UNL     1       2.676  -0.011  -0.888  0.00  0.00    -0.245 OA
BRANCH  30  32
ATOM     32  O   UNL     1       2.436   1.743  -2.234  0.00  0.00    -0.462 OA
BRANCH  32  34
ATOM     33  C   UNL     1       3.495   2.006  -4.390  0.00  0.00    +0.048 C 
ATOM     34  C   UNL     1       3.316   1.109  -3.164  0.00  0.00    +0.229 C 
ENDBRANCH  32  34
ENDBRANCH  30  32
ENDBRANCH   1  30
TORSDOF 6
