REMARK  Name = ZINC02765438
REMARK  7 active torsions:
REMARK  status: ('A' for Active; 'I' for Inactive)
REMARK    1  A    between atoms: C_1  and  C_2
REMARK    2  A    between atoms: C_7  and  C_8
REMARK    3  A    between atoms: C_10  and  C_23
REMARK    4  A    between atoms: C_11  and  N_22
REMARK    5  A    between atoms: C_13  and  C_18
REMARK    6  A    between atoms: C_14  and  C_15
REMARK    7  A    between atoms: C_15  and  C_17
REMARK                            x       y       z     vdW  Elec       q    Type
REMARK                         _______ _______ _______ _____ _____    ______ ____
ROOT
ATOM      1  C   UNL     1      -3.737   1.583   0.108  0.00  0.00    +0.101 C 
ATOM      2  C   UNL     1      -2.372   0.951   0.052  0.00  0.00    +0.098 C 
ATOM      3  C   UNL     1      -1.257   1.716  -0.027  0.00  0.00    +0.198 C 
ATOM      4  O   UNL     1      -1.317   3.059  -0.056  0.00  0.00    -0.436 OA
ATOM      5  C   UNL     1      -2.430   3.677   0.357  0.00  0.00    +0.217 C 
ATOM      6  C   UNL     1      -3.609   3.040   0.460  0.00  0.00    +0.054 C 
ENDROOT
BRANCH   1  13
ATOM      7  C   UNL     1      -6.058  -0.111  -0.188  0.00  0.00    +0.044 C 
ATOM      8  C   UNL     1      -5.517   0.639  -1.377  0.00  0.00    -0.046 A 
ATOM      9  C   UNL     1      -6.131   0.517  -2.610  0.00  0.00    +0.003 A 
ATOM     10  C   UNL     1      -5.635   1.205  -3.701  0.00  0.00    +0.000 A 
ATOM     11  C   UNL     1      -4.524   2.016  -3.559  0.00  0.00    +0.000 A 
ATOM     12  C   UNL     1      -3.912   2.142  -2.326  0.00  0.00    +0.005 A 
ATOM     13  C   UNL     1      -4.406   1.450  -1.236  0.00  0.00    -0.032 A 
ENDBRANCH   1  13
BRANCH   5  14
ATOM     14  C   UNL     1      -2.356   5.137   0.726  0.00  0.00    +0.451 C 
ATOM     15  F   UNL     1      -2.763   5.303   2.054  0.00  0.00    -0.163 F 
ATOM     16  F   UNL     1      -1.040   5.588   0.581  0.00  0.00    -0.163 F 
ATOM     17  F   UNL     1      -3.197   5.873  -0.116  0.00  0.00    -0.163 F 
ENDBRANCH   5  14
BRANCH   6  18
ATOM     18  C   UNL     1      -4.741   3.747   0.905  0.00  0.00    +0.161 C 
ATOM     19  O   UNL     1      -4.666   4.940   1.122  0.00  0.00    -0.293 OA
ATOM     20  C   UNL     1      -6.047   3.024   1.113  0.00  0.00    +0.091 C 
ENDBRANCH   6  18
BRANCH   3  21
ATOM     21  N   UNL     1      -0.029   1.103  -0.074  0.00  0.00    -0.328 N 
ATOM     22  H   UNL     1       0.030   0.135  -0.050  0.00  0.00    +0.145 HD
ATOM     23  H   UNL     1       0.778   1.637  -0.135  0.00  0.00    +0.145 HD
ENDBRANCH   3  21
BRANCH   2  24
ATOM     24  C   UNL     1      -2.251  -0.475   0.083  0.00  0.00    +0.101 C 
ATOM     25  N   UNL     1      -2.155  -1.607   0.108  0.00  0.00    -0.191 NA
ENDBRANCH   2  24
TORSDOF 5
