REMARK  Name = ZINC62702824
REMARK  7 active torsions:
REMARK  status: ('A' for Active; 'I' for Inactive)
REMARK    1  A    between atoms: C_1  and  C_2
REMARK    2  A    between atoms: C_4  and  N_12
REMARK    3  A    between atoms: C_5  and  N_9
REMARK    4  A    between atoms: C_7  and  C_8
REMARK    5  A    between atoms: N_12  and  C_13
REMARK    6  A    between atoms: C_13  and  C_14
REMARK    7  A    between atoms: C_17  and  O_21
REMARK                            x       y       z     vdW  Elec       q    Type
REMARK                         _______ _______ _______ _____ _____    ______ ____
ROOT
ATOM      1  N   UNL     1      -0.076  -2.815  -2.389  0.00  0.00    -0.338 N 
ATOM      2  H   UNL     1       0.010  -3.781  -2.380  0.00  0.00    +0.146 HD
ENDROOT
BRANCH   1   6
ATOM      3  C   UNL     1      -0.486   1.458   0.004  0.00  0.00    +0.044 C 
ATOM      4  C   UNL     1      -0.222  -0.026  -0.001  0.00  0.00    -0.046 A 
ATOM      5  C   UNL     1      -0.271  -0.731  -1.187  0.00  0.00    +0.028 A 
ATOM      6  C   UNL     1      -0.027  -2.098  -1.191  0.00  0.00    +0.058 A 
ATOM      7  C   UNL     1       0.265  -2.752  -0.001  0.00  0.00    +0.147 A 
ATOM      8  C   UNL     1       0.313  -2.041   1.182  0.00  0.00    +0.038 A 
ATOM      9  C   UNL     1       0.074  -0.678   1.181  0.00  0.00    -0.045 A 
ATOM     10  C   UNL     1       0.133   0.096   2.473  0.00  0.00    +0.044 C 
BRANCH   7  11
ATOM     11  N   UNL     1       0.525  -4.209   0.000  0.00  0.00    +0.058 N 
ATOM     12  O   UNL     1       0.129  -4.893   0.915  0.00  0.00    -0.126 OA
ATOM     13  O   UNL     1       1.135  -4.715  -0.913  0.00  0.00    -0.126 OA
ENDBRANCH   7  11
ENDBRANCH   1   6
BRANCH   1  14
ATOM     14  C   UNL     1      -0.257  -2.107  -3.659  0.00  0.00    +0.137 C 
BRANCH  14  15
ATOM     15  C   UNL     1      -0.275  -3.102  -4.790  0.00  0.00    -0.029 A 
ATOM     16  C   UNL     1       0.905  -3.458  -5.416  0.00  0.00    +0.009 A 
ATOM     17  C   UNL     1       0.892  -4.370  -6.454  0.00  0.00    +0.047 A 
ATOM     18  C   UNL     1      -0.308  -4.929  -6.868  0.00  0.00    +0.131 A 
ATOM     19  C   UNL     1      -1.492  -4.571  -6.239  0.00  0.00    +0.060 A 
ATOM     20  C   UNL     1      -1.472  -3.663  -5.197  0.00  0.00    +0.024 A 
ATOM     21 BR   UNL     1      -3.130  -5.331  -6.801  0.00  0.00    -0.047 Br
BRANCH  18  22
ATOM     22  O   UNL     1      -0.324  -5.826  -7.889  0.00  0.00    -0.506 OA
ATOM     23  H   UNL     1      -0.221  -6.745  -7.607  0.00  0.00    +0.292 HD
ENDBRANCH  18  22
ENDBRANCH  14  15
ENDBRANCH   1  14
TORSDOF 5
