REMARK  Name = ZINC12314489
REMARK  12 active torsions:
REMARK  status: ('A' for Active; 'I' for Inactive)
REMARK    1  A    between atoms: C_1  and  N_60
REMARK    2  A    between atoms: C_2  and  C_3
REMARK    3  A    between atoms: C_2  and  N_60
REMARK    4  A    between atoms: C_6  and  S_12
REMARK    5  A    between atoms: N_7  and  C_8
REMARK    6  A    between atoms: C_8  and  C_9
REMARK    7  A    between atoms: C_9  and  O_10
REMARK    8  A    between atoms: O_10  and  C_11
REMARK    9  A    between atoms: S_12  and  C_15
REMARK   10  A    between atoms: C_15  and  C_16
REMARK   11  A    between atoms: C_19  and  C_20
REMARK   12  A    between atoms: C_19  and  N_60
REMARK                            x       y       z     vdW  Elec       q    Type
REMARK                         _______ _______ _______ _____ _____    ______ ____
ROOT
ATOM      1  C   UNL     1      -2.447  -0.855   6.448  0.00  0.00    +0.023 A 
ATOM      2  C   UNL     1      -1.312  -1.435   6.883  0.00  0.00    +0.133 A 
ATOM      3  N   UNL     1      -1.634  -2.613   7.438  0.00  0.00    -0.220 NA
ATOM      4  C   UNL     1      -2.925  -2.785   7.364  0.00  0.00    +0.251 A 
ATOM      5  N   UNL     1      -3.471  -1.709   6.758  0.00  0.00    -0.313 N 
ENDROOT
BRANCH   4   6
ATOM      6  S   UNL     1      -3.811  -4.186   7.962  0.00  0.00    +0.030 S 
ATOM      7  O   UNL     1      -4.985  -4.241   7.163  0.00  0.00    -0.166 OA
ATOM      8  O   UNL     1      -2.868  -5.249   7.937  0.00  0.00    -0.166 OA
BRANCH   6   9
ATOM      9  C   UNL     1      -4.239  -3.771   9.675  0.00  0.00    +0.179 C 
BRANCH   9  10
ATOM     10  C   UNL     1      -5.019  -4.929  10.301  0.00  0.00    +0.011 C 
ATOM     11  C   UNL     1      -6.463  -4.659  10.726  0.00  0.00    +0.005 C 
ATOM     12  C   UNL     1      -5.372  -4.821  11.786  0.00  0.00    +0.005 C 
ENDBRANCH   9  10
ENDBRANCH   6   9
ENDBRANCH   4   6
BRANCH   1  13
ATOM     13  C   UNL     1      -2.567   0.480   5.760  0.00  0.00    -0.023 C 
BRANCH  13  15
ATOM     14  C   UNL     1      -1.280  -0.237   3.838  0.00  0.00    -0.095 C 
ATOM     15  N   UNL     1      -2.593   0.262   4.298  0.00  0.00    +0.385 N 
ATOM     16  H   UNL     1      -3.311  -0.438   4.078  0.00  0.00    -0.081 HD
BRANCH  15  17
ATOM     17  C   UNL     1      -2.924   1.524   3.605  0.00  0.00    -0.020 C 
BRANCH  17  18
ATOM     18  C   UNL     1      -3.161   1.230   2.146  0.00  0.00    +0.050 A 
ATOM     19  C   UNL     1      -2.198   1.259   1.139  0.00  0.00    -0.006 A 
ATOM     20  C   UNL     1      -2.806   0.939  -0.031  0.00  0.00    +0.039 A 
ATOM     21  N   UNL     1      -4.105   0.714   0.227  0.00  0.00    -0.281 N 
ATOM     22  H   UNL     1      -4.803   0.457  -0.441  0.00  0.00    +0.189 HD
ATOM     23  N   UNL     1      -4.308   0.903   1.603  0.00  0.00    -0.180 NA
ATOM     24  C   UNL     1      -2.097   0.865  -1.360  0.00  0.00    +0.055 C 
ATOM     25  C   UNL     1      -0.753   1.593  -1.233  0.00  0.00    +0.006 C 
ATOM     26  C   UNL     1      -0.013   1.086   0.008  0.00  0.00    +0.005 C 
ATOM     27  C   UNL     1      -0.730   1.580   1.270  0.00  0.00    +0.039 C 
ENDBRANCH  17  18
ENDBRANCH  15  17
ENDBRANCH  13  15
ENDBRANCH   1  13
BRANCH   5  28
ATOM     28  C   UNL     1      -4.894  -1.496   6.481  0.00  0.00    +0.152 C 
BRANCH  28  29
ATOM     29  C   UNL     1      -5.237  -2.068   5.104  0.00  0.00    +0.181 C 
BRANCH  29  30
ATOM     30  O   UNL     1      -6.625  -1.861   4.833  0.00  0.00    -0.381 OA
ATOM     31  C   UNL     1      -7.051  -2.361   3.565  0.00  0.00    +0.194 C 
ENDBRANCH  29  30
ENDBRANCH  28  29
ENDBRANCH   5  28
TORSDOF 10
