REMARK  Name = ZINC65259911
REMARK  3 active torsions:
REMARK  status: ('A' for Active; 'I' for Inactive)
REMARK    1  A    between atoms: C_4  and  C_7
REMARK    2  A    between atoms: C_7  and  N_8
REMARK    3  A    between atoms: C_24  and  C_26
REMARK                            x       y       z     vdW  Elec       q    Type
REMARK                         _______ _______ _______ _____ _____    ______ ____
ROOT
ATOM      1  N   UNL     1       3.992  -2.419   1.618  0.00  0.00    -0.371 N 
ATOM      2  C   UNL     1       5.205  -2.791   1.871  0.00  0.00    +0.098 C 
ATOM      3  N   UNL     1       6.036  -3.281   0.880  0.00  0.00    -0.301 N 
ATOM      4  C   UNL     1       6.899  -4.338   1.217  0.00  0.00    +0.053 A 
ATOM      5  C   UNL     1       7.563  -5.033   0.218  0.00  0.00    +0.025 A 
ATOM      6  C   UNL     1       8.419  -6.068   0.549  0.00  0.00    +0.002 A 
ATOM      7  C   UNL     1       8.616  -6.411   1.874  0.00  0.00    +0.002 A 
ATOM      8  C   UNL     1       7.954  -5.725   2.876  0.00  0.00    +0.025 A 
ATOM      9  C   UNL     1       7.090  -4.689   2.552  0.00  0.00    +0.049 A 
ATOM     10  N   UNL     1       6.404  -4.010   3.569  0.00  0.00    -0.329 N 
ATOM     11  C   UNL     1       5.790  -2.706   3.264  0.00  0.00    +0.102 C 
ATOM     12  C   UNL     1       4.682  -2.406   4.270  0.00  0.00    +0.036 C 
ATOM     13  C   UNL     1       5.269  -2.356   5.683  0.00  0.00    +0.021 C 
ATOM     14  C   UNL     1       6.316  -1.240   5.756  0.00  0.00    +0.108 C 
ATOM     15  N   UNL     1       7.313  -1.454   4.699  0.00  0.00    -0.295 N 
ATOM     16  C   UNL     1       6.850  -1.606   3.312  0.00  0.00    +0.141 C 
ATOM     17  C   UNL     1       8.627  -1.509   4.994  0.00  0.00    +0.247 C 
ATOM     18  O   UNL     1       9.002  -1.313   6.133  0.00  0.00    -0.270 OA
ATOM     19  H   UNL     1       3.432  -2.075   2.332  0.00  0.00    +0.161 HD
ATOM     20  H   UNL     1       6.337  -4.392   4.459  0.00  0.00    +0.147 HD
ATOM     21  H   UNL     1       6.024  -2.909  -0.016  0.00  0.00    +0.153 HD
ENDROOT
BRANCH  17  22
ATOM     22  C   UNL     1       9.613  -1.809   3.930  0.00  0.00    +0.040 A 
ATOM     23  C   UNL     1       9.595  -1.115   2.717  0.00  0.00    +0.033 A 
ATOM     24  C   UNL     1      10.534  -1.426   1.752  0.00  0.00    +0.111 A 
ATOM     25  N   UNL     1      11.437  -2.363   1.965  0.00  0.00    -0.263 NA
ATOM     26  C   UNL     1      11.489  -3.041   3.094  0.00  0.00    +0.111 A 
ATOM     27  C   UNL     1      10.592  -2.790   4.114  0.00  0.00    +0.033 A 
ENDBRANCH  17  22
BRANCH   1  28
ATOM     28  C   UNL     1       3.464  -2.517   0.255  0.00  0.00    +0.149 C 
BRANCH  28  32
ATOM     29  C   UNL     1      -0.571  -1.119   0.185  0.00  0.00    +0.000 A 
ATOM     30  C   UNL     1       0.470  -0.236  -0.033  0.00  0.00    +0.000 A 
ATOM     31  C   UNL     1       1.776  -0.688  -0.010  0.00  0.00    +0.005 A 
ATOM     32  C   UNL     1       2.041  -2.023   0.231  0.00  0.00    -0.028 A 
ATOM     33  C   UNL     1       0.999  -2.906   0.450  0.00  0.00    +0.005 A 
ATOM     34  C   UNL     1      -0.307  -2.454   0.425  0.00  0.00    +0.000 A 
ENDBRANCH  28  32
ENDBRANCH   1  28
TORSDOF 3
