REMARK  Name = ZINC20527829
REMARK  7 active torsions:
REMARK  status: ('A' for Active; 'I' for Inactive)
REMARK    1  A    between atoms: C_7  and  C_11
REMARK    2  A    between atoms: N_12  and  N_13
REMARK    3  A    between atoms: C_17  and  S_20
REMARK    4  A    between atoms: N_18  and  N_19
REMARK    5  A    between atoms: S_20  and  C_21
REMARK    6  A    between atoms: C_21  and  C_22
REMARK    7  A    between atoms: C_22  and  C_24
REMARK                            x       y       z     vdW  Elec       q    Type
REMARK                         _______ _______ _______ _____ _____    ______ ____
ROOT
ATOM      1  N   UNL     1      -4.893   1.749  -0.741  0.00  0.00    -0.204 N 
ATOM      2  C   UNL     1      -5.930   2.663  -0.624  0.00  0.00    +0.254 A 
ATOM      3  N   UNL     1      -5.819   3.967  -0.697  0.00  0.00    -0.109 NA
ATOM      4  N   UNL     1      -7.096   4.520  -0.532  0.00  0.00    -0.119 NA
ATOM      5  C   UNL     1      -7.944   3.535  -0.354  0.00  0.00    +0.210 A 
ATOM      6  N   UNL     1      -7.245   2.362  -0.406  0.00  0.00    -0.211 N 
ATOM      7  H   UNL     1      -5.097   0.672  -0.658  0.00  0.00    +0.177 HD
ENDROOT
BRANCH   6   8
ATOM      8  N   UNL     1      -7.770   1.108  -0.265  0.00  0.00    -0.294 N 
ATOM      9  H   UNL     1      -8.848   0.979  -0.093  0.00  0.00    +0.163 HD
ATOM     10  H   UNL     1      -7.113   0.228  -0.324  0.00  0.00    +0.163 HD
ENDBRANCH   6   8
BRANCH   1  12
ATOM     11  C   UNL     1      -2.613   1.343  -1.073  0.00  0.00    +0.140 C 
ATOM     12  N   UNL     1      -3.585   2.199  -0.964  0.00  0.00    -0.187 NA
BRANCH  11  19
ATOM     13  C   UNL     1      -0.747   5.601  -1.562  0.00  0.00    +0.001 A 
ATOM     14  C   UNL     1       0.623   5.561  -1.780  0.00  0.00    +0.002 A 
ATOM     15  C   UNL     1       1.291   4.357  -1.829  0.00  0.00    +0.026 A 
ATOM     16  C   UNL     1       0.587   3.169  -1.659  0.00  0.00    +0.047 A 
ATOM     17  C   UNL     1      -0.799   3.216  -1.439  0.00  0.00    +0.008 A 
ATOM     18  C   UNL     1      -1.456   4.444  -1.393  0.00  0.00    +0.010 A 
ATOM     19  C   UNL     1      -1.239   1.816  -1.308  0.00  0.00    +0.020 A 
ATOM     20  C   UNL     1      -0.126   1.046  -1.443  0.00  0.00    +0.093 A 
ATOM     21  N   UNL     1       0.961   1.842  -1.656  0.00  0.00    -0.360 N 
ATOM     22  H   UNL     1       2.015   1.567  -1.812  0.00  0.00    +0.165 HD
ENDBRANCH  11  19
ENDBRANCH   1  12
BRANCH   5  23
ATOM     23  S   UNL     1      -9.679   3.696  -0.095  0.00  0.00    -0.077 S 
BRANCH  23  24
ATOM     24  C   UNL     1      -9.965   5.487  -0.136  0.00  0.00    +0.152 C 
BRANCH  24  25
ATOM     25  C   UNL     1     -11.430   5.767   0.076  0.00  0.00    +0.147 C 
ATOM     26  O   UNL     1     -12.202   4.853   0.238  0.00  0.00    -0.296 OA
BRANCH  25  27
ATOM     27  C   UNL     1     -11.932   7.188   0.086  0.00  0.00    +0.062 C 
ATOM     28  C   UNL     1     -11.523   7.864   1.396  0.00  0.00    +0.000 C 
ATOM     29  C   UNL     1     -12.032   9.307   1.406  0.00  0.00    +0.007 C 
ATOM     30  C   UNL     1     -13.557   9.310   1.285  0.00  0.00    -0.010 C 
ATOM     31  C   UNL     1     -14.164   8.547   2.465  0.00  0.00    +0.007 C 
ATOM     32  C   UNL     1     -13.654   7.104   2.454  0.00  0.00    -0.010 C 
ATOM     33  C   UNL     1     -12.129   7.101   2.575  0.00  0.00    +0.007 C 
ATOM     34  C   UNL     1     -14.064   6.428   1.144  0.00  0.00    +0.007 C 
ATOM     35  C   UNL     1     -13.457   7.191  -0.035  0.00  0.00    +0.000 C 
ATOM     36  C   UNL     1     -13.966   8.634  -0.025  0.00  0.00    +0.007 C 
ENDBRANCH  25  27
ENDBRANCH  24  25
ENDBRANCH  23  24
ENDBRANCH   5  23
TORSDOF 7
