REMARK  Name = ZINC08172027
REMARK  6 active torsions:
REMARK  status: ('A' for Active; 'I' for Inactive)
REMARK    1  A    between atoms: C_6  and  C_7
REMARK    2  A    between atoms: C_7  and  N_8
REMARK    3  A    between atoms: N_8  and  C_21
REMARK    4  A    between atoms: C_9  and  C_11
REMARK    5  A    between atoms: C_11  and  N_65
REMARK    6  A    between atoms: C_15  and  C_18
REMARK                            x       y       z     vdW  Elec       q    Type
REMARK                         _______ _______ _______ _____ _____    ______ ____
ROOT
ATOM      1  N   UNL     1       3.779  -1.037  -1.612  0.00  0.00    -0.293 N 
ATOM      2  C   UNL     1       3.820  -2.359  -1.869  0.00  0.00    +0.200 C 
ATOM      3  O   UNL     1       3.459  -3.153  -1.027  0.00  0.00    -0.278 OA
ENDROOT
BRANCH   1   4
ATOM      4  C   UNL     1       4.387  -0.089  -2.548  0.00  0.00    +0.038 C 
ATOM      5  C   UNL     1       5.749  -0.621  -3.000  0.00  0.00    +0.029 C 
ATOM      6  C   UNL     1       6.384   0.370  -3.978  0.00  0.00    -0.008 C 
ATOM      7  C   UNL     1       6.569   1.722  -3.287  0.00  0.00    +0.007 C 
ATOM      8  C   UNL     1       5.207   2.254  -2.835  0.00  0.00    -0.008 C 
ATOM      9  C   UNL     1       4.572   1.264  -1.857  0.00  0.00    +0.029 C 
ATOM     10  C   UNL     1       4.296   2.424  -4.053  0.00  0.00    +0.007 C 
ATOM     11  C   UNL     1       4.111   1.071  -4.744  0.00  0.00    -0.008 C 
ATOM     12  C   UNL     1       5.473   0.539  -5.196  0.00  0.00    +0.007 C 
ATOM     13  C   UNL     1       3.476   0.081  -3.766  0.00  0.00    +0.029 C 
ENDBRANCH   1   4
BRANCH   1  14
ATOM     14  C   UNL     1       3.126  -0.548  -0.395  0.00  0.00    +0.143 C 
BRANCH  14  20
ATOM     15  C   UNL     1       0.877  -1.647  -0.438  0.00  0.00    +0.008 A 
ATOM     16  C   UNL     1      -0.490  -1.606  -0.633  0.00  0.00    +0.038 A 
ATOM     17  C   UNL     1      -1.102  -0.420  -1.000  0.00  0.00    +0.123 A 
ATOM     18  C   UNL     1      -0.342   0.725  -1.172  0.00  0.00    +0.038 A 
ATOM     19  C   UNL     1       1.025   0.683  -0.976  0.00  0.00    +0.008 A 
ATOM     20  C   UNL     1       1.635  -0.503  -0.609  0.00  0.00    -0.030 A 
ATOM     21  F   UNL     1      -2.438  -0.380  -1.197  0.00  0.00    -0.205 F 
ENDBRANCH  14  20
ENDBRANCH   1  14
BRANCH   2  22
ATOM     22  C   UNL     1       4.316  -2.852  -3.204  0.00  0.00    +0.019 C 
BRANCH  22  28
ATOM     23  C   UNL     1       2.293  -4.104  -3.653  0.00  0.00    -0.078 C 
ATOM     24  C   UNL     1       1.721  -5.516  -3.790  0.00  0.00    -0.018 C 
ATOM     25  C   UNL     1       2.363  -6.206  -4.997  0.00  0.00    +0.009 C 
ATOM     26  C   UNL     1       3.883  -6.229  -4.813  0.00  0.00    +0.058 C 
ATOM     27  C   UNL     1       4.393  -4.795  -4.646  0.00  0.00    -0.065 C 
ATOM     28  N   UNL     1       3.755  -4.195  -3.454  0.00  0.00    +0.386 N 
ATOM     29  H   UNL     1       3.944  -4.792  -2.640  0.00  0.00    -0.081 HD
BRANCH  26  30
ATOM     30  C   UNL     1       4.527  -6.853  -6.024  0.00  0.00    +0.212 C 
ATOM     31  O   UNL     1       5.319  -6.217  -6.686  0.00  0.00    -0.276 OA
ATOM     32  N   UNL     1       4.223  -8.120  -6.371  0.00  0.00    -0.329 N 
ATOM     33  H   UNL     1       3.590  -8.629  -5.841  0.00  0.00    +0.145 HD
ATOM     34  H   UNL     1       4.638  -8.522  -7.150  0.00  0.00    +0.145 HD
ENDBRANCH  26  30
ENDBRANCH  22  28
ENDBRANCH   2  22
TORSDOF 6
