REMARK  Name = ZINC09331919
REMARK  4 active torsions:
REMARK  status: ('A' for Active; 'I' for Inactive)
REMARK    1  A    between atoms: C_14  and  C_15
REMARK    2  A    between atoms: N_22  and  C_25
REMARK    3  A    between atoms: C_25  and  C_26
REMARK    4  A    between atoms: C_26  and  C_27
REMARK                            x       y       z     vdW  Elec       q    Type
REMARK                         _______ _______ _______ _____ _____    ______ ____
ROOT
ATOM      1  C   UNL     1      -2.451   5.334   0.054  0.00  0.00    +0.027 C 
ATOM      2  C   UNL     1      -3.151   6.034  -0.922  0.00  0.00    +0.102 C 
ATOM      3  C   UNL     1      -3.089   7.504  -1.006  0.00  0.00    +0.276 C 
ATOM      4  O   UNL     1      -2.420   8.148  -0.220  0.00  0.00    -0.268 OA
ATOM      5  N   UNL     1      -3.790   8.117  -1.983  0.00  0.00    -0.123 NA
ATOM      6  C   UNL     1      -4.537   7.420  -2.852  0.00  0.00    +0.335 C 
ATOM      7  O   UNL     1      -5.149   8.033  -3.704  0.00  0.00    -0.250 OA
ATOM      8  N   UNL     1      -4.643   6.084  -2.830  0.00  0.00    -0.220 N 
ATOM      9  C   UNL     1      -3.992   5.340  -1.912  0.00  0.00    +0.259 C 
ATOM     10  O   UNL     1      -4.097   4.128  -1.903  0.00  0.00    -0.269 OA
ENDROOT
BRANCH   1  24
ATOM     11  C   UNL     1      -0.581   1.901  -3.167  0.00  0.00    +0.001 A 
ATOM     12  C   UNL     1      -0.614   3.294  -3.139  0.00  0.00    +0.001 A 
ATOM     13  C   UNL     1      -1.204   3.967  -2.112  0.00  0.00    +0.009 A 
ATOM     14  C   UNL     1      -1.793   3.253  -1.060  0.00  0.00    -0.010 A 
ATOM     15  C   UNL     1      -1.766   1.812  -1.088  0.00  0.00    -0.017 A 
ATOM     16  C   UNL     1      -1.137   1.162  -2.170  0.00  0.00    +0.008 A 
ATOM     17  C   UNL     1      -2.340   1.075  -0.048  0.00  0.00    +0.017 A 
ATOM     18  C   UNL     1      -2.955   1.730   1.022  0.00  0.00    -0.017 A 
ATOM     19  C   UNL     1      -3.543   0.998   2.075  0.00  0.00    +0.008 A 
ATOM     20  C   UNL     1      -4.135   1.658   3.105  0.00  0.00    +0.001 A 
ATOM     21  C   UNL     1      -4.174   3.050   3.144  0.00  0.00    +0.001 A 
ATOM     22  C   UNL     1      -3.621   3.802   2.152  0.00  0.00    +0.009 A 
ATOM     23  C   UNL     1      -2.998   3.171   1.067  0.00  0.00    -0.010 A 
ATOM     24  C   UNL     1      -2.414   3.929   0.021  0.00  0.00    -0.009 A 
ENDBRANCH   1  24
BRANCH   8  25
ATOM     25  C   UNL     1      -5.486   5.417  -3.825  0.00  0.00    +0.123 C 
BRANCH  25  26
ATOM     26  C   UNL     1      -6.911   5.290  -3.284  0.00  0.00    +0.054 C 
BRANCH  26  27
ATOM     27  C   UNL     1      -7.778   4.603  -4.308  0.00  0.00    -0.046 A 
ATOM     28  C   UNL     1      -8.457   5.352  -5.251  0.00  0.00    +0.006 A 
ATOM     29  C   UNL     1      -9.247   4.723  -6.194  0.00  0.00    +0.038 A 
ATOM     30  C   UNL     1      -9.369   3.344  -6.187  0.00  0.00    +0.123 A 
ATOM     31  C   UNL     1      -8.694   2.596  -5.238  0.00  0.00    +0.038 A 
ATOM     32  C   UNL     1      -7.899   3.226  -4.299  0.00  0.00    +0.006 A 
ATOM     33  F   UNL     1     -10.147   2.729  -7.104  0.00  0.00    -0.205 F 
ENDBRANCH  26  27
ENDBRANCH  25  26
ENDBRANCH   8  25
TORSDOF 4
