REMARK  Name = ZINC50389832
REMARK  7 active torsions:
REMARK  status: ('A' for Active; 'I' for Inactive)
REMARK    1  A    between atoms: C_1  and  C_2
REMARK    2  A    between atoms: C_2  and  C_4
REMARK    3  A    between atoms: C_2  and  N_9
REMARK    4  A    between atoms: C_4  and  C_5
REMARK    5  A    between atoms: N_6  and  O_7
REMARK    6  A    between atoms: N_9  and  S_10
REMARK    7  A    between atoms: S_10  and  C_13
REMARK                            x       y       z     vdW  Elec       q    Type
REMARK                         _______ _______ _______ _____ _____    ______ ____
ROOT
ATOM      1  N   UNL     1       0.768  -0.470   1.485  0.00  0.00    -0.187 NA
ATOM      2  H   UNL     1       0.430  -0.633   2.380  0.00  0.00    +0.148 HD
ENDROOT
BRANCH   1   3
ATOM      3  S   UNL     1       2.288  -0.978   1.069  0.00  0.00    +0.061 S 
ATOM      4  O   UNL     1       2.832  -1.615   2.217  0.00  0.00    -0.153 OA
ATOM      5  O   UNL     1       2.167  -1.640  -0.183  0.00  0.00    -0.153 OA
BRANCH   3   6
ATOM      6  C   UNL     1       3.260   0.464   0.785  0.00  0.00    +0.132 A 
ATOM      7  C   UNL     1       4.259   0.824   1.671  0.00  0.00    +0.057 A 
ATOM      8  C   UNL     1       4.989   1.939   1.422  0.00  0.00    +0.081 A 
ATOM      9  S   UNL     1       4.266   2.520  -0.104  0.00  0.00    -0.063 S 
ATOM     10  C   UNL     1       3.044   1.234  -0.310  0.00  0.00    +0.106 A 
ATOM     11 CL   UNL     1       1.881   1.026  -1.581  0.00  0.00    -0.074 Cl
ATOM     12 CL   UNL     1       6.288   2.625   2.347  0.00  0.00    -0.076 Cl
ENDBRANCH   3   6
ENDBRANCH   1   3
BRANCH   1  14
ATOM     13  C   UNL     1       0.036   1.737   0.726  0.00  0.00    +0.026 C 
ATOM     14  C   UNL     1      -0.066   0.227   0.503  0.00  0.00    +0.081 C 
BRANCH  14  15
ATOM     15  C   UNL     1      -1.522  -0.216   0.665  0.00  0.00    +0.094 C 
BRANCH  15  16
ATOM     16  C   UNL     1      -1.643  -1.679   0.325  0.00  0.00    +0.133 C 
ATOM     17  N   UNL     1      -0.598  -2.347  -0.035  0.00  0.00    -0.077 NA
ATOM     18  N   UNL     1      -2.868  -2.304   0.399  0.00  0.00    -0.344 N 
ATOM     19  H   UNL     1      -3.653  -1.802   0.669  0.00  0.00    +0.144 HD
ATOM     20  H   UNL     1      -2.946  -3.246   0.180  0.00  0.00    +0.144 HD
BRANCH  17  21
ATOM     21  O   UNL     1      -0.711  -3.722  -0.354  0.00  0.00    -0.408 OA
ATOM     22  H   UNL     1       0.123  -4.136  -0.612  0.00  0.00    +0.328 HD
ENDBRANCH  17  21
ENDBRANCH  15  16
ENDBRANCH  14  15
ENDBRANCH   1  14
TORSDOF 6
