REMARK  Name = ZINC19838296
REMARK  7 active torsions:
REMARK  status: ('A' for Active; 'I' for Inactive)
REMARK    1  A    between atoms: C_1  and  C_2
REMARK    2  A    between atoms: C_6  and  C_9
REMARK    3  A    between atoms: C_7  and  O_8
REMARK    4  A    between atoms: N_11  and  C_12
REMARK    5  A    between atoms: N_16  and  C_17
REMARK    6  A    between atoms: C_17  and  C_18
REMARK    7  A    between atoms: C_17  and  C_19
REMARK                            x       y       z     vdW  Elec       q    Type
REMARK                         _______ _______ _______ _____ _____    ______ ____
ROOT
ATOM      1  C   UNL     1       0.002  -0.004   0.002  0.00  0.00    +0.253 C 
ATOM      2  O   UNL     1       1.063  -0.598  -0.011  0.00  0.00    -0.270 OA
ATOM      3  N   UNL     1      -0.016   1.344   0.009  0.00  0.00    -0.266 N 
ATOM      4  H   UNL     1      -0.976   1.881   0.021  0.00  0.00    +0.157 HD
ENDROOT
BRANCH   1  10
ATOM      5  C   UNL     1      -2.440  -4.367   0.001  0.00  0.00    +0.047 C 
ATOM      6  C   UNL     1      -2.448  -2.860   0.010  0.00  0.00    -0.008 A 
ATOM      7  C   UNL     1      -3.649  -2.177   0.025  0.00  0.00    +0.007 A 
ATOM      8  C   UNL     1      -3.667  -0.792   0.033  0.00  0.00    +0.001 A 
ATOM      9  C   UNL     1      -2.486  -0.081   0.025  0.00  0.00    +0.017 A 
ATOM     10  C   UNL     1      -1.265  -0.759   0.010  0.00  0.00    +0.079 A 
ATOM     11  C   UNL     1      -1.251  -2.161  -0.003  0.00  0.00    +0.132 A 
BRANCH  11  12
ATOM     12  O   UNL     1      -0.071  -2.830  -0.024  0.00  0.00    -0.506 OA
ATOM     13  H   UNL     1       0.877  -2.273  -0.035  0.00  0.00    +0.292 HD
ENDBRANCH  11  12
ENDBRANCH   1  10
BRANCH   3  14
ATOM     14  C   UNL     1       1.181   2.057   0.002  0.00  0.00    +0.124 A 
ATOM     15  C   UNL     1       2.435   1.526  -0.007  0.00  0.00    +0.065 A 
ATOM     16  C   UNL     1       3.348   2.583  -0.015  0.00  0.00    +0.136 A 
ATOM     17  N   UNL     1       2.679   3.708  -0.003  0.00  0.00    -0.178 NA
ATOM     18  N   UNL     1       1.311   3.409   0.008  0.00  0.00    -0.248 N 
BRANCH  18  19
ATOM     19  C   UNL     1       0.215   4.381   0.022  0.00  0.00    +0.103 C 
ATOM     20  C   UNL     1       0.323   5.252   1.275  0.00  0.00    +0.032 C 
ATOM     21  C   UNL     1       0.302   5.265  -1.223  0.00  0.00    +0.032 C 
ENDBRANCH  18  19
ENDBRANCH   3  14
TORSDOF 4
