REMARK  Name = ZINC39443738
REMARK  5 active torsions:
REMARK  status: ('A' for Active; 'I' for Inactive)
REMARK    1  A    between atoms: C_1  and  N_2
REMARK    2  A    between atoms: C_8  and  N_17
REMARK    3  A    between atoms: C_13  and  N_16
REMARK    4  A    between atoms: N_17  and  C_18
REMARK    5  A    between atoms: C_18  and  C_19
REMARK                            x       y       z     vdW  Elec       q    Type
REMARK                         _______ _______ _______ _____ _____    ______ ____
ROOT
ATOM      1  C   UNL     1      -0.018   1.465   0.010  0.00  0.00    +0.105 C 
ATOM      2  N   UNL     1       0.002  -0.004   0.002  0.00  0.00    -0.301 NA
ATOM      3  C   UNL     1      -1.364  -0.550  -0.051  0.00  0.00    +0.089 C 
ATOM      4  C   UNL     1      -1.273  -2.039  -0.385  0.00  0.00    +0.051 C 
ATOM      5  C   UNL     1      -0.279  -2.716   0.523  0.00  0.00    -0.028 C 
ATOM      6  C   UNL     1       0.618  -2.028   1.227  0.00  0.00    -0.013 C 
ATOM      7  C   UNL     1       0.705  -0.526   1.178  0.00  0.00    +0.118 C 
ATOM      8  C   UNL     1       1.589  -2.777   2.113  0.00  0.00    +0.203 C 
ATOM      9  N   UNL     1       1.534  -4.238   2.195  0.00  0.00    -0.240 NA
ATOM     10  C   UNL     1       0.657  -4.894   1.509  0.00  0.00    +0.181 C 
ATOM     11  C   UNL     1      -0.303  -4.178   0.631  0.00  0.00    +0.063 C 
ATOM     12  C   UNL     1      -1.071  -5.173   0.068  0.00  0.00    +0.121 C 
ATOM     13  N   UNL     1      -0.632  -6.355   0.545  0.00  0.00    -0.262 N 
ATOM     14  N   UNL     1       0.348  -6.224   1.365  0.00  0.00    -0.152 NA
ATOM     15  H   UNL     1      -1.015  -7.211   0.297  0.00  0.00    +0.190 HD
ENDROOT
BRANCH  12  16
ATOM     16  N   UNL     1      -2.115  -4.990  -0.833  0.00  0.00    -0.343 N 
ATOM     17  H   UNL     1      -2.359  -4.096  -1.119  0.00  0.00    +0.144 HD
ATOM     18  H   UNL     1      -2.599  -5.757  -1.176  0.00  0.00    +0.144 HD
ENDBRANCH  12  16
BRANCH   8  19
ATOM     19  N   UNL     1       1.425  -2.259   3.478  0.00  0.00    -0.288 NA
ATOM     20  H   UNL     1       0.856  -1.425   3.482  0.00  0.00    +0.125 HD
BRANCH  19  21
ATOM     21  C   UNL     1       2.728  -2.010   4.107  0.00  0.00    +0.118 C 
BRANCH  21  22
ATOM     22  C   UNL     1       2.520  -1.480   5.503  0.00  0.00    -0.034 A 
ATOM     23  C   UNL     1       2.411  -0.119   5.716  0.00  0.00    +0.005 A 
ATOM     24  C   UNL     1       2.219   0.367   6.995  0.00  0.00    +0.000 A 
ATOM     25  C   UNL     1       2.136  -0.508   8.062  0.00  0.00    +0.000 A 
ATOM     26  C   UNL     1       2.244  -1.869   7.849  0.00  0.00    +0.000 A 
ATOM     27  C   UNL     1       2.431  -2.356   6.569  0.00  0.00    +0.005 A 
ENDBRANCH  21  22
ENDBRANCH  19  21
ENDBRANCH   8  19
TORSDOF 4
