REMARK  Name = ZINC08873270
REMARK  5 active torsions:
REMARK  status: ('A' for Active; 'I' for Inactive)
REMARK    1  A    between atoms: C_3  and  C_9
REMARK    2  A    between atoms: N_10  and  N_11
REMARK    3  A    between atoms: C_12  and  C_14
REMARK    4  A    between atoms: C_15  and  C_25
REMARK    5  A    between atoms: C_25  and  N_50
REMARK                            x       y       z     vdW  Elec       q    Type
REMARK                         _______ _______ _______ _____ _____    ______ ____
ROOT
ATOM      1  C   UNL     1       7.244   4.042  -0.059  0.00  0.00    +0.154 A 
ATOM      2  C   UNL     1       8.475   3.441  -0.121  0.00  0.00    +0.079 A 
ATOM      3  N   UNL     1       9.375   4.424  -0.100  0.00  0.00    -0.135 NA
ATOM      4  N   UNL     1       8.772   5.557  -0.030  0.00  0.00    -0.058 NA
ATOM      5  N   UNL     1       7.496   5.391  -0.008  0.00  0.00    -0.183 N 
ATOM      6  C   UNL     1       6.535   6.406   0.059  0.00  0.00    +0.241 A 
ATOM      7  C   UNL     1       6.803   7.846   0.001  0.00  0.00    +0.206 A 
ATOM      8  N   UNL     1       5.666   8.478   0.094  0.00  0.00    -0.032 NA
ATOM      9  O   UNL     1       4.639   7.510   0.213  0.00  0.00    -0.239 OA
ATOM     10  N   UNL     1       5.250   6.232   0.179  0.00  0.00    -0.027 NA
ATOM     11  N   UNL     1       8.055   8.436  -0.131  0.00  0.00    -0.337 N 
ATOM     12  H   UNL     1       8.848   7.882  -0.194  0.00  0.00    +0.144 HD
ATOM     13  H   UNL     1       8.134   9.403  -0.161  0.00  0.00    +0.144 HD
ENDROOT
BRANCH   1  15
ATOM     14  N   UNL     1       5.199   3.328  -1.185  0.00  0.00    -0.202 N 
ATOM     15  C   UNL     1       5.930   3.381  -0.054  0.00  0.00    +0.284 C 
ATOM     16  O   UNL     1       5.504   2.883   0.971  0.00  0.00    -0.267 OA
ATOM     17  H   UNL     1       5.510   3.778  -1.986  0.00  0.00    +0.178 HD
BRANCH  14  19
ATOM     18  C   UNL     1       3.284   2.570  -2.292  0.00  0.00    +0.139 C 
ATOM     19  N   UNL     1       3.989   2.622  -1.203  0.00  0.00    -0.187 NA
BRANCH  18  22
ATOM     20  C   UNL     1       0.059   1.074  -3.494  0.00  0.00    +0.021 A 
ATOM     21  C   UNL     1       1.250   1.770  -3.482  0.00  0.00    +0.012 A 
ATOM     22  C   UNL     1       2.011   1.827  -2.312  0.00  0.00    +0.013 A 
ATOM     23  C   UNL     1       1.559   1.177  -1.159  0.00  0.00    +0.051 A 
ATOM     24  C   UNL     1       0.366   0.484  -1.185  0.00  0.00    +0.040 A 
ATOM     25  C   UNL     1      -0.380   0.427  -2.350  0.00  0.00    +0.042 A 
ATOM     26 CL   UNL     1      -1.876  -0.453  -2.377  0.00  0.00    -0.083 Cl
ATOM     27 CL   UNL     1       2.496   1.242   0.301  0.00  0.00    -0.083 Cl
ENDBRANCH  18  22
ENDBRANCH  14  19
ENDBRANCH   1  15
BRANCH   2  28
ATOM     28  C   UNL     1       8.754   1.962  -0.199  0.00  0.00    -0.018 C 
BRANCH  28  34
ATOM     29  C   UNL     1       7.494   1.694  -2.249  0.00  0.00    -0.078 C 
ATOM     30  C   UNL     1       7.619   1.394  -3.744  0.00  0.00    -0.019 C 
ATOM     31  C   UNL     1       8.142  -0.033  -3.931  0.00  0.00    -0.004 C 
ATOM     32  C   UNL     1       9.487  -0.173  -3.212  0.00  0.00    -0.019 C 
ATOM     33  C   UNL     1       9.308   0.173  -1.733  0.00  0.00    -0.078 C 
ATOM     34  N   UNL     1       8.826   1.566  -1.621  0.00  0.00    +0.383 N 
ATOM     35  H   UNL     1       9.485   2.186  -2.107  0.00  0.00    -0.081 HD
ENDBRANCH  28  34
ENDBRANCH   2  28
TORSDOF 5
