REMARK  Name = ZINC43190739
REMARK  8 active torsions:
REMARK  status: ('A' for Active; 'I' for Inactive)
REMARK    1  A    between atoms: C_1  and  C_2
REMARK    2  A    between atoms: C_5  and  C_20
REMARK    3  A    between atoms: C_7  and  O_8
REMARK    4  A    between atoms: O_8  and  C_9
REMARK    5  A    between atoms: C_9  and  C_10
REMARK    6  A    between atoms: N_12  and  N_13
REMARK    7  A    between atoms: C_20  and  C_21
REMARK    8  A    between atoms: C_20  and  C_22
REMARK                            x       y       z     vdW  Elec       q    Type
REMARK                         _______ _______ _______ _____ _____    ______ ____
ROOT
ATOM      1  C   UNL     1       0.192  -0.830   3.579  0.00  0.00    +0.326 C 
ENDROOT
BRANCH   1   2
ATOM      2  C   UNL     1       0.226   0.077   4.782  0.00  0.00    +0.270 C 
ATOM      3  O   UNL     1       0.425   1.265   4.640  0.00  0.00    -0.270 OA
ATOM      4  N   UNL     1       0.034  -0.431   6.016  0.00  0.00    -0.204 N 
ATOM      5  H   UNL     1      -0.126  -1.381   6.129  0.00  0.00    +0.177 HD
BRANCH   4   6
ATOM      6  N   UNL     1       0.066   0.412   7.134  0.00  0.00    -0.189 NA
ATOM      7  C   UNL     1      -0.013  -0.083   8.312  0.00  0.00    +0.037 C 
ATOM      8  C   UNL     1       0.013  -1.580   8.527  0.00  0.00    +0.052 C 
ATOM      9  C   UNL     1       1.078  -1.902   9.580  0.00  0.00    +0.006 C 
ATOM     10  C   UNL     1       0.804  -1.088  10.846  0.00  0.00    +0.001 C 
ATOM     11  C   UNL     1       0.936   0.405  10.541  0.00  0.00    +0.006 C 
ATOM     12  C   UNL     1      -0.128   0.814   9.524  0.00  0.00    +0.052 C 
ENDBRANCH   4   6
ENDBRANCH   1   2
BRANCH   1  13
ATOM     13  O   UNL     1       0.420  -0.062   2.396  0.00  0.00    -0.482 OA
BRANCH  13  20
ATOM     14  C   UNL     1       0.868   1.439   0.046  0.00  0.00    +0.047 C 
ATOM     15  C   UNL     1       0.636  -0.050   0.027  0.00  0.00    -0.009 A 
ATOM     16  C   UNL     1       0.643  -0.736  -1.172  0.00  0.00    +0.007 A 
ATOM     17  C   UNL     1       0.429  -2.102  -1.189  0.00  0.00    +0.004 A 
ATOM     18  C   UNL     1       0.209  -2.785  -0.007  0.00  0.00    -0.041 A 
ATOM     19  C   UNL     1       0.202  -2.103   1.194  0.00  0.00    +0.049 A 
ATOM     20  C   UNL     1       0.421  -0.734   1.215  0.00  0.00    +0.124 A 
BRANCH  18  21
ATOM     21  C   UNL     1      -0.024  -4.274  -0.030  0.00  0.00    +0.013 C 
ATOM     22  C   UNL     1      -1.263  -4.583  -0.872  0.00  0.00    +0.012 C 
ATOM     23  C   UNL     1       1.194  -4.971  -0.638  0.00  0.00    +0.012 C 
ENDBRANCH  18  21
ENDBRANCH  13  20
ENDBRANCH   1  13
TORSDOF 5
