REMARK  Name = ZINC04632427
REMARK  10 active torsions:
REMARK  status: ('A' for Active; 'I' for Inactive)
REMARK    1  A    between atoms: C_1  and  O_2
REMARK    2  A    between atoms: O_2  and  C_3
REMARK    3  A    between atoms: C_6  and  C_9
REMARK    4  A    between atoms: C_9  and  C_11
REMARK    5  A    between atoms: C_12  and  O_29
REMARK    6  A    between atoms: N_15  and  C_24
REMARK    7  A    between atoms: C_16  and  C_18
REMARK    8  A    between atoms: C_24  and  C_25
REMARK    9  A    between atoms: C_25  and  C_26
REMARK   10  A    between atoms: C_26  and  N_49
REMARK                            x       y       z     vdW  Elec       q    Type
REMARK                         _______ _______ _______ _____ _____    ______ ____
ROOT
ATOM      1  C   UNL     1      -1.507   2.027   0.066  0.00  0.00    +0.071 C 
ATOM      2  C   UNL     1      -2.823   1.817   0.303  0.00  0.00    +0.188 C 
ATOM      3  C   UNL     1      -3.481   3.113   0.573  0.00  0.00    +0.282 C 
ATOM      4  O   UNL     1      -4.661   3.257   0.825  0.00  0.00    -0.267 OA
ATOM      5  N   UNL     1      -2.581   4.110   0.493  0.00  0.00    -0.284 N 
ATOM      6  C   UNL     1      -1.278   3.517   0.171  0.00  0.00    +0.144 C 
ENDROOT
BRANCH   6   7
ATOM      7  C   UNL     1      -0.773   4.057  -1.142  0.00  0.00    -0.022 A 
ATOM      8  C   UNL     1      -1.619   4.126  -2.233  0.00  0.00    +0.006 A 
ATOM      9  C   UNL     1      -1.157   4.625  -3.436  0.00  0.00    +0.000 A 
ATOM     10  C   UNL     1       0.154   5.048  -3.551  0.00  0.00    +0.000 A 
ATOM     11  C   UNL     1       1.002   4.974  -2.462  0.00  0.00    +0.000 A 
ATOM     12  C   UNL     1       0.539   4.479  -1.258  0.00  0.00    +0.006 A 
ENDBRANCH   6   7
BRANCH   1  13
ATOM     13  C   UNL     1      -0.500   1.007  -0.240  0.00  0.00    +0.195 C 
ATOM     14  O   UNL     1      -0.568   0.377  -1.279  0.00  0.00    -0.287 OA
BRANCH  13  18
ATOM     15  C   UNL     1       2.663   0.259   2.494  0.00  0.00    +0.120 A 
ATOM     16  C   UNL     1       2.552  -0.504   1.337  0.00  0.00    +0.046 A 
ATOM     17  C   UNL     1       1.528  -0.265   0.448  0.00  0.00    +0.015 A 
ATOM     18  C   UNL     1       0.600   0.747   0.710  0.00  0.00    +0.022 A 
ATOM     19  C   UNL     1       0.719   1.517   1.871  0.00  0.00    +0.015 A 
ATOM     20  C   UNL     1       1.742   1.267   2.758  0.00  0.00    +0.046 A 
BRANCH  15  22
ATOM     21  C   UNL     1       3.730   0.842   4.535  0.00  0.00    +0.277 C 
ATOM     22  O   UNL     1       3.674   0.021   3.367  0.00  0.00    -0.495 OA
ENDBRANCH  15  22
ENDBRANCH  13  18
ENDBRANCH   1  13
BRANCH   2  23
ATOM     23  O   UNL     1      -3.438   0.612   0.296  0.00  0.00    -0.502 OA
ATOM     24  H   UNL     1      -4.410   0.733   0.501  0.00  0.00    +0.292 HD
ENDBRANCH   2  23
BRANCH   5  25
ATOM     25  C   UNL     1      -2.854   5.536   0.691  0.00  0.00    +0.107 C 
BRANCH  25  26
ATOM     26  C   UNL     1      -3.232   6.174  -0.647  0.00  0.00    -0.001 C 
BRANCH  26  27
ATOM     27  C   UNL     1      -3.517   7.663  -0.440  0.00  0.00    -0.085 C 
BRANCH  27  30
ATOM     28  H   UNL     1      -4.664   7.798  -2.144  0.00  0.00    -0.090 HD
ATOM     29  H   UNL     1      -4.073   9.259  -1.614  0.00  0.00    -0.090 HD
ATOM     30  N   UNL     1      -3.859   8.271  -1.737  0.00  0.00    +0.378 N 
ATOM     31  H   UNL     1      -3.059   8.179  -2.374  0.00  0.00    -0.090 HD
ENDBRANCH  27  30
ENDBRANCH  26  27
ENDBRANCH  25  26
ENDBRANCH   5  25
TORSDOF 9
