REMARK  Name = ZINC43743790
REMARK  9 active torsions:
REMARK  status: ('A' for Active; 'I' for Inactive)
REMARK    1  A    between atoms: C_1  and  C_2
REMARK    2  A    between atoms: N_4  and  C_5
REMARK    3  A    between atoms: C_7  and  O_42
REMARK    4  A    between atoms: C_9  and  O_41
REMARK    5  A    between atoms: C_11  and  C_39
REMARK    6  A    between atoms: C_14  and  O_16
REMARK    7  A    between atoms: O_16  and  C_17
REMARK    8  A    between atoms: C_31  and  C_38
REMARK    9  A    between atoms: C_39  and  O_40
REMARK                            x       y       z     vdW  Elec       q    Type
REMARK                         _______ _______ _______ _____ _____    ______ ____
ROOT
ATOM      1  O   UNL     1      -1.788  -2.656   2.024  0.00  0.00    -0.462 OA
ENDROOT
BRANCH   1   2
ATOM      2  C   UNL     1      -3.124  -2.893   1.970  0.00  0.00    +0.124 A 
ATOM      3  C   UNL     1      -3.674  -3.552   0.879  0.00  0.00    +0.046 A 
ATOM      4  C   UNL     1      -5.032  -3.784   0.835  0.00  0.00    +0.008 A 
ATOM      5  C   UNL     1      -5.858  -3.366   1.871  0.00  0.00    -0.041 A 
ATOM      6  C   UNL     1      -5.312  -2.715   2.955  0.00  0.00    -0.040 A 
ATOM      7  C   UNL     1      -3.946  -2.477   3.004  0.00  0.00    +0.049 A 
ATOM      8  C   UNL     1      -6.147  -2.239   4.117  0.00  0.00    +0.036 C 
ATOM      9  C   UNL     1      -7.610  -2.104   3.673  0.00  0.00    +0.009 C 
ATOM     10  C   UNL     1      -8.035  -3.444   3.089  0.00  0.00    +0.001 C 
ATOM     11  C   UNL     1      -7.331  -3.664   1.746  0.00  0.00    +0.023 C 
ATOM     12  C   UNL     1      -7.937  -2.801   0.644  0.00  0.00    +0.009 C 
ATOM     13  C   UNL     1      -9.446  -3.043   0.500  0.00  0.00    +0.015 C 
ATOM     14  C   UNL     1     -10.120  -2.741   1.821  0.00  0.00    +0.029 C 
ATOM     15  C   UNL     1      -9.506  -3.638   2.915  0.00  0.00    +0.006 C 
ATOM     16  C   UNL     1     -10.437  -3.362   4.101  0.00  0.00    +0.012 C 
ATOM     17  C   UNL     1     -11.833  -3.297   3.416  0.00  0.00    +0.075 C 
ATOM     18  C   UNL     1     -11.579  -3.144   1.919  0.00  0.00    +0.139 C 
ATOM     19  O   UNL     1     -12.349  -3.303   1.013  0.00  0.00    -0.297 OA
ATOM     20  C   UNL     1     -10.044  -1.252   2.142  0.00  0.00    +0.019 C 
ENDBRANCH   1   2
BRANCH   1  26
ATOM     21  C   UNL     1       0.446  -2.650   1.100  0.00  0.00    +0.173 C 
ATOM     22  C   UNL     1       1.295  -3.195  -0.053  0.00  0.00    +0.172 C 
ATOM     23  C   UNL     1       1.173  -4.722  -0.085  0.00  0.00    +0.176 C 
ATOM     24  C   UNL     1      -0.303  -5.105  -0.218  0.00  0.00    +0.179 C 
ATOM     25  O   UNL     1      -1.041  -4.541   0.868  0.00  0.00    -0.332 OA
ATOM     26  C   UNL     1      -1.002  -3.114   0.922  0.00  0.00    +0.331 C 
BRANCH  21  30
ATOM     27  C   UNL     1       0.326   1.006   2.228  0.00  0.00    +0.109 C 
ATOM     28  C   UNL     1       0.275  -0.500   2.234  0.00  0.00    +0.210 C 
ATOM     29  O   UNL     1       0.036  -1.095   3.263  0.00  0.00    -0.276 OA
ATOM     30  N   UNL     1       0.495  -1.186   1.095  0.00  0.00    -0.304 N 
ATOM     31  H   UNL     1       0.687  -0.710   0.271  0.00  0.00    +0.149 HD
ENDBRANCH  21  30
BRANCH  23  32
ATOM     32  O   UNL     1       1.904  -5.236  -1.199  0.00  0.00    -0.387 OA
ATOM     33  H   UNL     1       1.871  -6.199  -1.282  0.00  0.00    +0.210 HD
ENDBRANCH  23  32
BRANCH  22  34
ATOM     34  O   UNL     1       2.662  -2.827   0.145  0.00  0.00    -0.387 OA
ATOM     35  H   UNL     1       3.257  -3.140  -0.550  0.00  0.00    +0.210 HD
ENDBRANCH  22  34
BRANCH  24  36
ATOM     36  C   UNL     1      -0.439  -6.629  -0.191  0.00  0.00    +0.190 C 
BRANCH  36  37
ATOM     37  O   UNL     1      -1.800  -6.990  -0.432  0.00  0.00    -0.392 OA
ATOM     38  H   UNL     1      -1.960  -7.944  -0.429  0.00  0.00    +0.210 HD
ENDBRANCH  36  37
ENDBRANCH  24  36
ENDBRANCH   1  26
TORSDOF 7
