REMARK  Name = ZINC12686686
REMARK  11 active torsions:
REMARK  status: ('A' for Active; 'I' for Inactive)
REMARK    1  A    between atoms: C_1  and  C_2
REMARK    2  A    between atoms: C_2  and  O_3
REMARK    3  A    between atoms: O_3  and  C_4
REMARK    4  A    between atoms: C_9  and  O_10
REMARK    5  A    between atoms: O_10  and  C_11
REMARK    6  A    between atoms: C_11  and  C_12
REMARK    7  A    between atoms: C_12  and  C_13
REMARK    8  A    between atoms: C_13  and  C_14
REMARK    9  A    between atoms: N_16  and  N_17
REMARK   10  A    between atoms: C_18  and  C_20
REMARK   11  A    between atoms: N_29  and  C_31
REMARK                            x       y       z     vdW  Elec       q    Type
REMARK                         _______ _______ _______ _____ _____    ______ ____
ROOT
ATOM      1  C   UNL     1       4.294  -0.572  -7.586  0.00  0.00    +0.229 C 
ATOM      2  O   UNL     1       4.125   0.597  -7.307  0.00  0.00    -0.274 OA
ATOM      3  N   UNL     1       4.938  -0.908  -8.721  0.00  0.00    -0.234 N 
ATOM      4  H   UNL     1       5.074  -1.842  -8.943  0.00  0.00    +0.173 HD
ENDROOT
BRANCH   3   5
ATOM      5  N   UNL     1       5.413   0.093  -9.579  0.00  0.00    -0.229 N 
ATOM      6  C   UNL     1       6.057  -0.243 -10.714  0.00  0.00    +0.281 C 
ATOM      7  O   UNL     1       6.227  -1.414 -10.993  0.00  0.00    -0.267 OA
ATOM      8  H   UNL     1       5.277   1.027  -9.357  0.00  0.00    +0.173 HD
BRANCH   6   9
ATOM      9  C   UNL     1       6.557   0.811 -11.619  0.00  0.00    +0.155 A 
ATOM     10  C   UNL     1       7.257   0.454 -12.863  0.00  0.00    +0.020 A 
ATOM     11  C   UNL     1       7.483  -0.863 -13.249  0.00  0.00    +0.011 A 
ATOM     12  C   UNL     1       8.147  -1.117 -14.431  0.00  0.00    +0.001 A 
ATOM     13  C   UNL     1       8.591  -0.076 -15.235  0.00  0.00    +0.001 A 
ATOM     14  C   UNL     1       8.378   1.236 -14.871  0.00  0.00    +0.014 A 
ATOM     15  C   UNL     1       7.709   1.514 -13.683  0.00  0.00    +0.050 A 
ATOM     16  C   UNL     1       7.441   2.882 -13.219  0.00  0.00    +0.275 A 
ATOM     17  O   UNL     1       7.801   3.844 -13.873  0.00  0.00    -0.266 OA
ATOM     18  N   UNL     1       6.785   3.048 -12.051  0.00  0.00    -0.231 N 
ATOM     19  N   UNL     1       6.379   2.076 -11.325  0.00  0.00    -0.163 NA
ATOM     20  C   UNL     1       6.520   4.414 -11.593  0.00  0.00    +0.176 C 
ENDBRANCH   6   9
ENDBRANCH   3   5
BRANCH   1  21
ATOM     21  C   UNL     1       3.783  -1.648  -6.662  0.00  0.00    +0.100 C 
BRANCH  21  22
ATOM     22  C   UNL     1       3.096  -1.002  -5.457  0.00  0.00    +0.050 C 
BRANCH  22  23
ATOM     23  C   UNL     1       2.578  -2.095  -4.520  0.00  0.00    +0.229 C 
BRANCH  23  24
ATOM     24  O   UNL     1       1.936  -1.492  -3.394  0.00  0.00    -0.488 OA
BRANCH  24  30
ATOM     25  C   UNL     1       0.777  -1.811  -1.336  0.00  0.00    +0.162 A 
ATOM     26  C   UNL     1       0.243  -2.669  -0.388  0.00  0.00    +0.049 A 
ATOM     27  C   UNL     1       0.352  -4.037  -0.555  0.00  0.00    +0.004 A 
ATOM     28  C   UNL     1       0.992  -4.552  -1.667  0.00  0.00    +0.004 A 
ATOM     29  C   UNL     1       1.526  -3.702  -2.616  0.00  0.00    +0.049 A 
ATOM     30  C   UNL     1       1.416  -2.330  -2.458  0.00  0.00    +0.162 A 
BRANCH  25  31
ATOM     31  O   UNL     1       0.671  -0.465  -1.174  0.00  0.00    -0.489 OA
BRANCH  31  33
ATOM     32  C   UNL     1      -0.019   1.526   0.010  0.00  0.00    +0.048 C 
ATOM     33  C   UNL     1       0.002  -0.004   0.002  0.00  0.00    +0.226 C 
ENDBRANCH  31  33
ENDBRANCH  25  31
ENDBRANCH  24  30
ENDBRANCH  23  24
ENDBRANCH  22  23
ENDBRANCH  21  22
ENDBRANCH   1  21
TORSDOF 9
