REMARK  Name = ZINC15251013
REMARK  8 active torsions:
REMARK  status: ('A' for Active; 'I' for Inactive)
REMARK    1  A    between atoms: C_1  and  C_2
REMARK    2  A    between atoms: C_2  and  C_3
REMARK    3  A    between atoms: C_2  and  C_4
REMARK    4  A    between atoms: C_4  and  C_5
REMARK    5  A    between atoms: N_9  and  C_13
REMARK    6  A    between atoms: C_13  and  N_14
REMARK    7  A    between atoms: N_17  and  C_20
REMARK    8  A    between atoms: C_25  and  O_26
REMARK                            x       y       z     vdW  Elec       q    Type
REMARK                         _______ _______ _______ _____ _____    ______ ____
ROOT
ATOM      1  N   UNL     1      -5.201  -2.954  -2.221  0.00  0.00    -0.283 NA
ATOM      2  C   UNL     1      -5.897  -2.139  -1.215  0.00  0.00    +0.105 C 
ATOM      3  C   UNL     1      -6.700  -1.041  -1.919  0.00  0.00    +0.120 C 
ATOM      4  N   UNL     1      -7.573  -1.670  -2.922  0.00  0.00    -0.325 N 
ATOM      5  C   UNL     1      -6.968  -2.608  -3.881  0.00  0.00    +0.120 C 
ATOM      6  C   UNL     1      -6.154  -3.645  -3.099  0.00  0.00    +0.105 C 
ENDROOT
BRANCH   4   7
ATOM      7  C   UNL     1      -8.942  -1.384  -2.964  0.00  0.00    +0.072 A 
ATOM      8  C   UNL     1      -9.410  -0.337  -3.745  0.00  0.00    +0.027 A 
ATOM      9  C   UNL     1     -10.763  -0.057  -3.784  0.00  0.00    +0.002 A 
ATOM     10  C   UNL     1     -11.652  -0.817  -3.048  0.00  0.00    +0.004 A 
ATOM     11  C   UNL     1     -11.193  -1.862  -2.268  0.00  0.00    +0.047 A 
ATOM     12  C   UNL     1      -9.839  -2.153  -2.226  0.00  0.00    +0.138 A 
BRANCH  12  13
ATOM     13  O   UNL     1      -9.387  -3.184  -1.463  0.00  0.00    -0.505 OA
ATOM     14  H   UNL     1      -9.162  -2.933  -0.557  0.00  0.00    +0.292 HD
ENDBRANCH  12  13
ENDBRANCH   4   7
BRANCH   1  15
ATOM     15  C   UNL     1      -4.285  -3.909  -1.583  0.00  0.00    +0.205 C 
BRANCH  15  19
ATOM     16  C   UNL     1      -1.416  -2.058  -0.121  0.00  0.00    +0.161 C 
ATOM     17  C   UNL     1      -2.823  -2.616  -0.043  0.00  0.00    +0.244 C 
ATOM     18  O   UNL     1      -3.593  -2.532   0.890  0.00  0.00    -0.273 OA
ATOM     19  N   UNL     1      -3.039  -3.226  -1.225  0.00  0.00    -0.211 N 
ATOM     20  C   UNL     1      -1.976  -3.131  -2.031  0.00  0.00    +0.310 C 
ATOM     21  O   UNL     1      -1.932  -3.603  -3.150  0.00  0.00    -0.252 OA
ATOM     22  N   UNL     1      -0.956  -2.455  -1.463  0.00  0.00    -0.288 N 
ATOM     23  H   UNL     1      -0.091  -2.265  -1.860  0.00  0.00    +0.151 HD
BRANCH  16  24
ATOM     24  C   UNL     1      -1.433  -0.534   0.013  0.00  0.00    +0.034 C 
BRANCH  24  26
ATOM     25  C   UNL     1      -0.019   1.526   0.010  0.00  0.00    +0.007 C 
ATOM     26  C   UNL     1       0.002  -0.004   0.002  0.00  0.00    -0.015 C 
ATOM     27  C   UNL     1       0.742  -0.511   1.242  0.00  0.00    +0.007 C 
ENDBRANCH  24  26
ENDBRANCH  16  24
ENDBRANCH  15  19
ENDBRANCH   1  15
TORSDOF 6
