REMARK  Name = ZINC32089447
REMARK  4 active torsions:
REMARK  status: ('A' for Active; 'I' for Inactive)
REMARK    1  A    between atoms: C_4  and  N_7
REMARK    2  A    between atoms: C_14  and  O_16
REMARK    3  A    between atoms: N_24  and  C_27
REMARK    4  A    between atoms: C_27  and  C_28
REMARK                            x       y       z     vdW  Elec       q    Type
REMARK                         _______ _______ _______ _____ _____    ______ ____
ROOT
ATOM      1  N   UNL     1       3.623  -0.651  -0.037  0.00  0.00    -0.214 N 
ATOM      2  C   UNL     1       3.888  -1.827   0.576  0.00  0.00    +0.164 A 
ATOM      3  C   UNL     1       5.218  -2.136   0.310  0.00  0.00    +0.036 A 
ATOM      4  C   UNL     1       5.737  -1.126  -0.478  0.00  0.00    +0.142 A 
ATOM      5  N   UNL     1       4.792  -0.240  -0.697  0.00  0.00    -0.173 NA
ATOM      6  C   UNL     1       5.853  -3.384   0.857  0.00  0.00    +0.113 C 
ATOM      7  C   UNL     1       4.769  -4.445   1.041  0.00  0.00    +0.121 C 
ATOM      8  C   UNL     1       3.509  -3.850   1.602  0.00  0.00    +0.191 C 
ATOM      9  N   UNL     1       3.113  -2.639   1.350  0.00  0.00    -0.197 NA
ATOM     10  C   UNL     1       6.572  -3.115   2.139  0.00  0.00    +0.012 A 
ATOM     11  C   UNL     1       7.915  -3.444   1.909  0.00  0.00    +0.043 A 
ATOM     12  C   UNL     1       8.857  -3.303   2.928  0.00  0.00    +0.024 A 
ATOM     13  C   UNL     1       8.405  -2.830   4.151  0.00  0.00    +0.003 A 
ATOM     14  C   UNL     1       7.081  -2.510   4.365  0.00  0.00    +0.020 A 
ATOM     15  C   UNL     1       6.130  -2.646   3.357  0.00  0.00    +0.047 A 
ATOM     16 CL   UNL     1       4.462  -2.243   3.623  0.00  0.00    -0.083 Cl
ATOM     17  N   UNL     1       8.085  -3.888   0.609  0.00  0.00    -0.261 N 
ATOM     18  C   UNL     1       6.926  -3.886  -0.083  0.00  0.00    +0.236 C 
ATOM     19  O   UNL     1       6.775  -4.223  -1.238  0.00  0.00    -0.274 OA
ENDROOT
BRANCH   1  23
ATOM     20  C   UNL     1      -0.017   1.379   0.010  0.00  0.00    +0.000 A 
ATOM     21  C   UNL     1       1.170   2.089   0.002  0.00  0.00    +0.002 A 
ATOM     22  C   UNL     1       2.377   1.419  -0.013  0.00  0.00    +0.028 A 
ATOM     23  C   UNL     1       2.400   0.031  -0.021  0.00  0.00    +0.068 A 
ATOM     24  C   UNL     1       1.206  -0.680  -0.013  0.00  0.00    +0.028 A 
ATOM     25  C   UNL     1       0.002  -0.004   0.002  0.00  0.00    +0.002 A 
ENDBRANCH   1  23
BRANCH   8  26
ATOM     26  O   UNL     1       2.748  -4.616   2.410  0.00  0.00    -0.495 OA
ATOM     27  H   UNL     1       1.952  -4.173   2.736  0.00  0.00    +0.293 HD
ENDBRANCH   8  26
BRANCH  17  28
ATOM     28  C   UNL     1       9.372  -4.310   0.050  0.00  0.00    +0.209 C 
BRANCH  28  29
ATOM     29  C   UNL     1       9.559  -5.788   0.280  0.00  0.00    +0.228 C 
ATOM     30  O   UNL     1       8.701  -6.426   0.854  0.00  0.00    -0.274 OA
ATOM     31  N   UNL     1      10.678  -6.401  -0.152  0.00  0.00    -0.328 N 
ATOM     32  H   UNL     1      11.364  -5.891  -0.612  0.00  0.00    +0.145 HD
ATOM     33  H   UNL     1      10.799  -7.352  -0.005  0.00  0.00    +0.145 HD
ENDBRANCH  28  29
ENDBRANCH  17  28
TORSDOF 4
