REMARK  Name = ZINC43965051
REMARK  7 active torsions:
REMARK  status: ('A' for Active; 'I' for Inactive)
REMARK    1  A    between atoms: C_1  and  C_2
REMARK    2  A    between atoms: C_2  and  O_3
REMARK    3  A    between atoms: O_3  and  C_4
REMARK    4  A    between atoms: C_4  and  C_35
REMARK    5  A    between atoms: C_15  and  C_34
REMARK    6  A    between atoms: C_17  and  O_33
REMARK    7  A    between atoms: C_31  and  C_32
REMARK                            x       y       z     vdW  Elec       q    Type
REMARK                         _______ _______ _______ _____ _____    ______ ____
ROOT
ATOM      1  C   UNL     1       0.747  -1.904  -1.281  0.00  0.00    +0.284 C 
ATOM      2  O   UNL     1       1.578  -2.355  -0.218  0.00  0.00    -0.319 OA
ATOM      3  C   UNL     1       1.450  -3.740   0.117  0.00  0.00    +0.243 C 
ATOM      4  C   UNL     1      -0.010  -3.925   0.497  0.00  0.00    +0.191 C 
ATOM      5  O   UNL     1      -0.317  -4.368   1.575  0.00  0.00    -0.292 OA
ATOM      6  C   UNL     1      -1.029  -3.492  -0.521  0.00  0.00    +0.140 C 
ATOM      7  O   UNL     1      -0.564  -2.411  -1.303  0.00  0.00    -0.312 OA
ATOM      8  C   UNL     1      -2.318  -3.064   0.222  0.00  0.00    +0.044 C 
ATOM      9  C   UNL     1      -3.333  -4.211   0.082  0.00  0.00    +0.008 C 
ATOM     10  C   UNL     1      -2.608  -5.356  -0.665  0.00  0.00    +0.002 C 
ATOM     11  C   UNL     1      -1.481  -4.645  -1.419  0.00  0.00    +0.010 C 
ATOM     12  C   UNL     1      -0.398  -5.572  -1.893  0.00  0.00    +0.041 C 
ATOM     13  C   UNL     1       0.099  -6.530  -0.810  0.00  0.00    +0.120 C 
ATOM     14  C   UNL     1      -1.072  -7.319  -0.229  0.00  0.00    +0.035 C 
ATOM     15  C   UNL     1      -2.101  -6.361   0.370  0.00  0.00    -0.000 C 
ATOM     16  C   UNL     1      -3.327  -7.145   0.867  0.00  0.00    +0.008 C 
ATOM     17  C   UNL     1      -2.920  -8.132   1.958  0.00  0.00    +0.032 C 
ATOM     18  C   UNL     1      -1.811  -9.005   1.406  0.00  0.00    -0.056 C 
ATOM     19  C   UNL     1      -1.954 -10.319   1.447  0.00  0.00    +0.051 C 
ATOM     20  C   UNL     1      -0.911 -11.206   0.915  0.00  0.00    +0.179 C 
ATOM     21  O   UNL     1      -1.035 -12.416   0.952  0.00  0.00    -0.288 OA
ATOM     22  C   UNL     1       0.295 -10.592   0.333  0.00  0.00    +0.047 C 
ATOM     23  C   UNL     1       0.417  -9.271   0.315  0.00  0.00    -0.012 C 
ATOM     24  C   UNL     1      -0.603  -8.316   0.829  0.00  0.00    +0.013 C 
ATOM     25  C   UNL     1       0.067  -7.555   1.978  0.00  0.00    +0.020 C 
ATOM     26  C   UNL     1      -2.109  -4.009  -2.682  0.00  0.00    +0.015 C 
ATOM     27  C   UNL     1       1.448  -2.218  -2.614  0.00  0.00    +0.110 C 
ENDROOT
BRANCH  13  28
ATOM     28  O   UNL     1       1.030  -7.418  -1.452  0.00  0.00    -0.391 OA
ATOM     29  H   UNL     1       1.791  -6.971  -1.848  0.00  0.00    +0.210 HD
ENDBRANCH  13  28
BRANCH   1  30
ATOM     30  O   UNL     1       0.671  -0.465  -1.174  0.00  0.00    -0.327 OA
BRANCH  30  32
ATOM     31  C   UNL     1      -0.019   1.526   0.010  0.00  0.00    +0.034 C 
ATOM     32  C   UNL     1       0.002  -0.004   0.002  0.00  0.00    +0.162 C 
ENDBRANCH  30  32
ENDBRANCH   1  30
TORSDOF 3
