REMARK  Name = ZINC50630606
REMARK  6 active torsions:
REMARK  status: ('A' for Active; 'I' for Inactive)
REMARK    1  A    between atoms: C_1  and  C_2
REMARK    2  A    between atoms: C_2  and  C_3
REMARK    3  A    between atoms: N_8  and  S_9
REMARK    4  A    between atoms: S_9  and  C_12
REMARK    5  A    between atoms: C_14  and  N_19
REMARK    6  A    between atoms: C_17  and  N_18
REMARK                            x       y       z     vdW  Elec       q    Type
REMARK                         _______ _______ _______ _____ _____    ______ ____
ROOT
ATOM      1  C   UNL     1      -3.978   1.361  -1.031  0.00  0.00    +0.128 A 
ATOM      2  C   UNL     1      -4.068   2.375  -0.098  0.00  0.00    +0.063 A 
ATOM      3  C   UNL     1      -5.295   2.942   0.193  0.00  0.00    +0.128 A 
ATOM      4  C   UNL     1      -6.436   2.496  -0.449  0.00  0.00    +0.034 A 
ATOM      5  C   UNL     1      -6.353   1.483  -1.383  0.00  0.00    +0.027 A 
ATOM      6  C   UNL     1      -5.121   0.915  -1.682  0.00  0.00    +0.051 A 
ENDROOT
BRANCH   1   7
ATOM      7  S   UNL     1      -2.414   0.639  -1.401  0.00  0.00    +0.063 S 
ATOM      8  O   UNL     1      -1.455   1.313  -0.597  0.00  0.00    -0.153 OA
ATOM      9  O   UNL     1      -2.316   0.584  -2.817  0.00  0.00    -0.153 OA
BRANCH   7  14
ATOM     10  C   UNL     1      -2.183  -1.375   0.505  0.00  0.00    +0.080 C 
ATOM     11  C   UNL     1      -2.374  -2.906   0.540  0.00  0.00    +0.022 C 
ATOM     12  C   UNL     1      -3.297  -3.169  -0.680  0.00  0.00    +0.019 C 
ATOM     13  C   UNL     1      -2.785  -2.112  -1.690  0.00  0.00    +0.110 C 
ATOM     14  N   UNL     1      -2.459  -0.928  -0.868  0.00  0.00    -0.173 NA
BRANCH  10  16
ATOM     15  C   UNL     1      -0.503  -1.383   2.354  0.00  0.00    +0.005 C 
ATOM     16  C   UNL     1      -0.744  -1.022   0.887  0.00  0.00    +0.017 C 
ENDBRANCH  10  16
ENDBRANCH   7  14
ENDBRANCH   1   7
BRANCH   6  17
ATOM     17  N   UNL     1      -5.032  -0.107  -2.631  0.00  0.00    -0.356 N 
ATOM     18  H   UNL     1      -4.164  -0.405  -2.943  0.00  0.00    +0.142 HD
ATOM     19  H   UNL     1      -5.840  -0.518  -2.977  0.00  0.00    +0.142 HD
ENDBRANCH   6  17
BRANCH   3  20
ATOM     20  N   UNL     1      -5.388   4.028   1.194  0.00  0.00    +0.056 N 
ATOM     21  O   UNL     1      -4.391   4.419   1.756  0.00  0.00    -0.126 OA
ATOM     22  O   UNL     1      -6.460   4.525   1.449  0.00  0.00    -0.126 OA
ENDBRANCH   3  20
TORSDOF 5
