REMARK  Name = ZINC26362653
REMARK  7 active torsions:
REMARK  status: ('A' for Active; 'I' for Inactive)
REMARK    1  A    between atoms: C_1  and  C_2
REMARK    2  A    between atoms: C_2  and  C_4
REMARK    3  A    between atoms: C_2  and  N_11
REMARK    4  A    between atoms: N_11  and  C_12
REMARK    5  A    between atoms: C_12  and  C_14
REMARK    6  A    between atoms: C_12  and  C_15
REMARK    7  A    between atoms: C_18  and  C_20
REMARK                            x       y       z     vdW  Elec       q    Type
REMARK                         _______ _______ _______ _____ _____    ______ ____
ROOT
ATOM      1  C   UNL     1      -3.417   5.007  -0.028  0.00  0.00    +0.015 C 
ATOM      2  C   UNL     1      -3.922   5.136   1.411  0.00  0.00    -0.004 C 
ENDROOT
BRANCH   1   3
ATOM      3  C   UNL     1      -2.646   3.721  -0.176  0.00  0.00    +0.204 A 
ATOM      4  N   UNL     1      -3.154   2.522  -0.246  0.00  0.00    -0.114 NA
ATOM      5  N   UNL     1      -2.207   1.661  -0.370  0.00  0.00    -0.107 NA
ATOM      6  C   UNL     1      -1.053   2.285  -0.383  0.00  0.00    +0.248 A 
ATOM      7  O   UNL     1      -1.310   3.602  -0.255  0.00  0.00    -0.422 OA
BRANCH   6   8
ATOM      8  C   UNL     1       0.281   1.660  -0.507  0.00  0.00    +0.038 A 
ATOM      9  C   UNL     1       1.429   2.453  -0.511  0.00  0.00    +0.013 A 
ATOM     10  C   UNL     1       2.671   1.864  -0.633  0.00  0.00    +0.001 A 
ATOM     11  C   UNL     1       2.779   0.489  -0.752  0.00  0.00    +0.000 A 
ATOM     12  C   UNL     1       1.645  -0.303  -0.749  0.00  0.00    +0.001 A 
ATOM     13  C   UNL     1       0.397   0.274  -0.627  0.00  0.00    +0.013 A 
ENDBRANCH   6   8
ENDBRANCH   1   3
BRANCH   1  14
ATOM     14  N   UNL     1      -4.561   5.001  -0.949  0.00  0.00    +0.391 N 
ATOM     15  H   UNL     1      -5.408   4.499  -0.458  0.00  0.00    -0.084 HD
ATOM     16  H   UNL     1      -4.281   4.445  -1.856  0.00  0.00    -0.084 HD
BRANCH  14  18
ATOM     17  C   UNL     1      -6.433   6.397  -1.688  0.00  0.00    -0.009 C 
ATOM     18  C   UNL     1      -4.950   6.370  -1.315  0.00  0.00    -0.042 C 
BRANCH  18  19
ATOM     19  C   UNL     1      -4.127   6.828  -2.492  0.00  0.00    -0.043 A 
ATOM     20  C   UNL     1      -3.582   5.898  -3.358  0.00  0.00    +0.003 A 
ATOM     21  C   UNL     1      -2.832   6.318  -4.440  0.00  0.00    +0.000 A 
ATOM     22  C   UNL     1      -2.617   7.668  -4.651  0.00  0.00    +0.001 A 
ATOM     23  C   UNL     1      -3.158   8.598  -3.784  0.00  0.00    +0.020 A 
ATOM     24  C   UNL     1      -3.914   8.178  -2.703  0.00  0.00    +0.043 A 
ATOM     25 CL   UNL     1      -4.593   9.346  -1.613  0.00  0.00    -0.083 Cl
ENDBRANCH  18  19
ENDBRANCH  14  18
ENDBRANCH   1  14
TORSDOF 5
