REMARK  Name = ZINC63249851
REMARK  6 active torsions:
REMARK  status: ('A' for Active; 'I' for Inactive)
REMARK    1  A    between atoms: C_1  and  N_2
REMARK    2  A    between atoms: N_9  and  C_12
REMARK    3  A    between atoms: N_13  and  C_17
REMARK    4  A    between atoms: C_17  and  C_18
REMARK    5  A    between atoms: C_18  and  S_19
REMARK    6  A    between atoms: S_19  and  C_20
REMARK                            x       y       z     vdW  Elec       q    Type
REMARK                         _______ _______ _______ _____ _____    ______ ____
ROOT
ATOM      1  C   UNL     1      -0.018   1.461   0.010  0.00  0.00    +0.136 C 
ATOM      2  N   UNL     1       0.002  -0.004   0.002  0.00  0.00    -0.264 N 
ATOM      3  C   UNL     1      -1.203  -0.788   0.003  0.00  0.00    +0.227 C 
ATOM      4  C   UNL     1      -1.022  -1.896  -1.083  0.00  0.00    +0.205 C 
ATOM      5  C   UNL     1       0.106  -2.740  -0.591  0.00  0.00    +0.247 C 
ATOM      6  O   UNL     1       0.074  -3.952  -0.620  0.00  0.00    -0.273 OA
ATOM      7  N   UNL     1       1.176  -2.046  -0.105  0.00  0.00    -0.227 N 
ATOM      8  C   UNL     1       1.166  -0.718  -0.013  0.00  0.00    +0.312 C 
ATOM      9  O   UNL     1       2.226  -0.126   0.049  0.00  0.00    -0.252 OA
ATOM     10  C   UNL     1       2.363  -2.780   0.339  0.00  0.00    +0.143 C 
ATOM     11  N   UNL     1      -2.391  -2.407  -1.052  0.00  0.00    -0.294 N 
ATOM     12  C   UNL     1      -3.153  -1.245  -0.951  0.00  0.00    +0.163 C 
ATOM     13  N   UNL     1      -2.497  -0.274  -0.377  0.00  0.00    -0.238 NA
ATOM     14 BR   UNL     1      -4.925  -1.089  -1.590  0.00  0.00    -0.011 Br
ENDROOT
BRANCH  11  15
ATOM     15  C   UNL     1      -2.849  -3.797  -1.113  0.00  0.00    +0.118 C 
BRANCH  15  16
ATOM     16  C   UNL     1      -2.943  -4.365   0.305  0.00  0.00    +0.092 C 
BRANCH  16  17
ATOM     17  S   UNL     1      -3.510  -6.087   0.229  0.00  0.00    -0.113 S 
BRANCH  17  18
ATOM     18  C   UNL     1      -3.569  -6.606   1.966  0.00  0.00    +0.235 C 
ATOM     19  N   UNL     1      -4.446  -5.710   2.731  0.00  0.00    -0.355 N 
ATOM     20  C   UNL     1      -3.721  -5.152   3.657  0.00  0.00    +0.061 A 
ATOM     21  C   UNL     1      -4.028  -4.179   4.715  0.00  0.00    +0.027 A 
ATOM     22  C   UNL     1      -3.050  -3.772   5.549  0.00  0.00    +0.002 A 
ATOM     23  C   UNL     1      -1.728  -4.242   5.453  0.00  0.00    +0.002 A 
ATOM     24  C   UNL     1      -1.340  -5.135   4.520  0.00  0.00    +0.027 A 
ATOM     25  C   UNL     1      -2.322  -5.649   3.555  0.00  0.00    +0.061 A 
ATOM     26  N   UNL     1      -2.235  -6.495   2.571  0.00  0.00    -0.355 N 
ATOM     27  H   UNL     1      -5.391  -5.562   2.575  0.00  0.00    +0.162 HD
ATOM     28  H   UNL     1      -1.436  -6.967   2.288  0.00  0.00    +0.162 HD
ENDBRANCH  17  18
ENDBRANCH  16  17
ENDBRANCH  15  16
ENDBRANCH  11  15
TORSDOF 4
