REMARK  Name = ZINC63038252
REMARK  7 active torsions:
REMARK  status: ('A' for Active; 'I' for Inactive)
REMARK    1  A    between atoms: C_1  and  C_2
REMARK    2  A    between atoms: C_2  and  C_3
REMARK    3  A    between atoms: C_3  and  C_5
REMARK    4  A    between atoms: C_3  and  C_18
REMARK    5  A    between atoms: C_10  and  N_11
REMARK    6  A    between atoms: C_18  and  C_20
REMARK    7  A    between atoms: C_18  and  O_21
REMARK                            x       y       z     vdW  Elec       q    Type
REMARK                         _______ _______ _______ _____ _____    ______ ____
ROOT
ATOM      1  C   UNL     1      -2.634  -0.633  -1.363  0.00  0.00    -0.008 A 
ATOM      2  C   UNL     1      -2.080  -0.972  -2.583  0.00  0.00    +0.055 A 
ATOM      3  C   UNL     1      -2.206  -0.114  -3.665  0.00  0.00    +0.162 A 
ATOM      4  C   UNL     1      -2.890   1.087  -3.519  0.00  0.00    +0.164 A 
ATOM      5  C   UNL     1      -3.441   1.423  -2.292  0.00  0.00    +0.082 A 
ATOM      6  C   UNL     1      -3.317   0.560  -1.218  0.00  0.00    +0.133 A 
ATOM      7  O   UNL     1      -3.031   1.941  -4.570  0.00  0.00    -0.485 OA
ATOM      8  C   UNL     1      -2.149   1.745  -5.681  0.00  0.00    +0.270 C 
ATOM      9  C   UNL     1      -2.120   0.247  -6.014  0.00  0.00    +0.270 C 
ATOM     10  O   UNL     1      -1.653  -0.459  -4.860  0.00  0.00    -0.485 OA
ENDROOT
BRANCH   6  11
ATOM     11  N   UNL     1      -3.912   0.917   0.089  0.00  0.00    +0.057 N 
ATOM     12  O   UNL     1      -4.998   1.446   0.134  0.00  0.00    -0.126 OA
ATOM     13  O   UNL     1      -3.312   0.679   1.111  0.00  0.00    -0.126 OA
ENDBRANCH   6  11
BRANCH   1  14
ATOM     14  C   UNL     1      -2.497  -1.568  -0.189  0.00  0.00    +0.049 C 
BRANCH  14  16
ATOM     15  C   UNL     1      -0.498  -0.349   0.684  0.00  0.00    +0.004 C 
ATOM     16  C   UNL     1      -1.020  -1.700   0.189  0.00  0.00    +0.007 C 
ENDBRANCH  14  16
BRANCH  14  17
ATOM     17  C   UNL     1      -3.052  -2.943  -0.565  0.00  0.00    +0.119 C 
ATOM     18  C   UNL     1      -4.528  -2.811  -0.943  0.00  0.00    +0.038 C 
BRANCH  17  19
ATOM     19  O   UNL     1      -2.922  -3.830   0.548  0.00  0.00    -0.391 OA
ATOM     20  H   UNL     1      -3.254  -4.722   0.381  0.00  0.00    +0.210 HD
ENDBRANCH  17  19
ENDBRANCH  14  17
ENDBRANCH   1  14
TORSDOF 5
