REMARK  Name = ZINC36313586
REMARK  11 active torsions:
REMARK  status: ('A' for Active; 'I' for Inactive)
REMARK    1  A    between atoms: C_1  and  C_2
REMARK    2  A    between atoms: C_2  and  C_3
REMARK    3  A    between atoms: C_2  and  C_4
REMARK    4  A    between atoms: C_4  and  N_5
REMARK    5  A    between atoms: N_5  and  C_6
REMARK    6  A    between atoms: N_5  and  C_23
REMARK    7  A    between atoms: C_6  and  C_7
REMARK    8  A    between atoms: C_23  and  C_24
REMARK    9  A    between atoms: C_24  and  C_25
REMARK   10  A    between atoms: C_24  and  C_26
REMARK   11  A    between atoms: C_24  and  O_27
REMARK                            x       y       z     vdW  Elec       q    Type
REMARK                         _______ _______ _______ _____ _____    ______ ____
ROOT
ATOM      1  C   UNL     1      -2.076  -1.531  -1.652  0.00  0.00    +0.094 A 
ATOM      2  N   UNL     1      -3.147  -1.525  -2.486  0.00  0.00    -0.312 N 
ATOM      3  H   UNL     1      -3.799  -2.242  -2.428  0.00  0.00    +0.170 HD
ATOM      4  C   UNL     1      -3.324  -0.546  -3.393  0.00  0.00    +0.260 A 
ATOM      5  O   UNL     1      -4.290  -0.554  -4.135  0.00  0.00    -0.267 OA
ATOM      6  C   UNL     1      -2.354   0.508  -3.470  0.00  0.00    +0.075 A 
ATOM      7  C   UNL     1      -2.345   1.664  -4.370  0.00  0.00    -0.023 A 
ATOM      8  C   UNL     1      -1.309   2.520  -4.247  0.00  0.00    -0.004 A 
ATOM      9  S   UNL     1      -0.311   1.853  -2.939  0.00  0.00    -0.073 S 
ATOM     10  C   UNL     1      -1.285   0.417  -2.568  0.00  0.00    +0.116 A 
ATOM     11  N   UNL     1      -1.180  -0.581  -1.695  0.00  0.00    -0.229 NA
ATOM     12  C   UNL     1      -1.040   3.759  -5.043  0.00  0.00    +0.043 C 
ATOM     13  C   UNL     1      -2.313   4.615  -5.090  0.00  0.00    +0.005 C 
ATOM     14  C   UNL     1      -3.133   4.191  -6.305  0.00  0.00    +0.001 C 
ATOM     15  C   UNL     1      -2.949   2.697  -6.564  0.00  0.00    +0.005 C 
ATOM     16  C   UNL     1      -3.464   1.882  -5.384  0.00  0.00    +0.037 C 
ENDROOT
BRANCH   1  17
ATOM     17  C   UNL     1      -1.921  -2.650  -0.654  0.00  0.00    -0.003 C 
BRANCH  17  18
ATOM     18  N   UNL     1      -0.901  -2.284   0.337  0.00  0.00    +0.386 N 
ATOM     19  H   UNL     1      -0.175  -1.744  -0.110  0.00  0.00    -0.081 HD
BRANCH  18  20
ATOM     20  C   UNL     1      -1.518  -1.485   1.404  0.00  0.00    -0.075 C 
BRANCH  20  22
ATOM     21  C   UNL     1      -2.779   0.616   1.894  0.00  0.00    +0.005 C 
ATOM     22  C   UNL     1      -1.972  -0.139   0.836  0.00  0.00    -0.034 C 
ATOM     23  C   UNL     1      -0.746   0.688   0.443  0.00  0.00    +0.005 C 
ENDBRANCH  20  22
ENDBRANCH  18  20
BRANCH  18  24
ATOM     24  C   UNL     1      -0.319  -3.504   0.913  0.00  0.00    -0.044 C 
BRANCH  24  25
ATOM     25  C   UNL     1       0.901  -3.136   1.760  0.00  0.00    +0.046 C 
ATOM     26  C   UNL     1       1.610  -4.413   2.215  0.00  0.00    +0.039 C 
ATOM     27  C   UNL     1       1.864  -2.288   0.926  0.00  0.00    +0.039 C 
BRANCH  25  28
ATOM     28  O   UNL     1       0.480  -2.391   2.905  0.00  0.00    -0.391 OA
ATOM     29  H   UNL     1      -0.071  -2.894   3.520  0.00  0.00    +0.210 HD
ENDBRANCH  25  28
ENDBRANCH  24  25
ENDBRANCH  18  24
ENDBRANCH  17  18
ENDBRANCH   1  17
TORSDOF 7
