REMARK  Name = ZINC65901726
REMARK  8 active torsions:
REMARK  status: ('A' for Active; 'I' for Inactive)
REMARK    1  A    between atoms: C_1  and  C_2
REMARK    2  A    between atoms: C_2  and  C_3
REMARK    3  A    between atoms: C_2  and  C_4
REMARK    4  A    between atoms: C_4  and  C_5
REMARK    5  A    between atoms: C_5  and  C_6
REMARK    6  A    between atoms: C_5  and  N_16
REMARK    7  A    between atoms: C_17  and  O_19
REMARK    8  A    between atoms: O_19  and  C_20
REMARK                            x       y       z     vdW  Elec       q    Type
REMARK                         _______ _______ _______ _____ _____    ______ ____
ROOT
ATOM      1  C   UNL     1       2.188  -0.072  -1.207  0.00  0.00    +0.162 C 
ENDROOT
BRANCH   1   2
ATOM      2  C   UNL     1       2.893  -0.559  -2.447  0.00  0.00    +0.236 C 
ATOM      3  O   UNL     1       3.495  -1.611  -2.429  0.00  0.00    -0.274 OA
ATOM      4  N   UNL     1       2.853   0.175  -3.577  0.00  0.00    -0.298 N 
ATOM      5  C   UNL     1       2.218   1.491  -3.537  0.00  0.00    +0.117 C 
ATOM      6  C   UNL     1       0.990   1.495  -4.455  0.00  0.00    +0.114 C 
ATOM      7  C   UNL     1       1.454   1.683  -5.882  0.00  0.00    +0.215 C 
ATOM      8  O   UNL     1       1.243   2.733  -6.451  0.00  0.00    -0.276 OA
ATOM      9  N   UNL     1       2.096   0.700  -6.520  0.00  0.00    -0.314 N 
ATOM     10  C   UNL     1       2.356  -0.582  -5.851  0.00  0.00    +0.123 C 
ATOM     11  C   UNL     1       3.451  -0.373  -4.792  0.00  0.00    +0.126 C 
ATOM     12  H   UNL     1       2.393   0.834  -7.434  0.00  0.00    +0.149 HD
ENDBRANCH   1   2
BRANCH   1  13
ATOM     13  N   UNL     1       2.705  -0.790  -0.039  0.00  0.00    -0.270 N 
ATOM     14  C   UNL     1       2.632  -0.228   1.184  0.00  0.00    +0.401 C 
ATOM     15  O   UNL     1       2.137   0.874   1.317  0.00  0.00    -0.226 OA
ATOM     16  H   UNL     1       3.099  -1.669  -0.145  0.00  0.00    +0.153 HD
BRANCH  14  17
ATOM     17  O   UNL     1       3.106  -0.887   2.258  0.00  0.00    -0.454 OA
ATOM     18  C   UNL     1       2.996  -0.231   3.522  0.00  0.00    +0.282 C 
ENDBRANCH  14  17
ENDBRANCH   1  13
BRANCH   1  19
ATOM     19  C   UNL     1       0.686  -0.329  -1.340  0.00  0.00    +0.035 C 
BRANCH  19  21
ATOM     20  C   UNL     1       0.111   1.833  -0.228  0.00  0.00    +0.007 C 
ATOM     21  C   UNL     1      -0.048   0.313  -0.160  0.00  0.00    -0.015 C 
ATOM     22  C   UNL     1      -1.533  -0.049  -0.226  0.00  0.00    +0.007 C 
ENDBRANCH  19  21
ENDBRANCH   1  19
TORSDOF 5
