REMARK  Name = ZINC66664468
REMARK  11 active torsions:
REMARK  status: ('A' for Active; 'I' for Inactive)
REMARK    1  A    between atoms: C_1  and  C_2
REMARK    2  A    between atoms: C_2  and  C_3
REMARK    3  A    between atoms: C_2  and  C_4
REMARK    4  A    between atoms: C_2  and  C_5
REMARK    5  A    between atoms: C_7  and  N_14
REMARK    6  A    between atoms: N_8  and  C_10
REMARK    7  A    between atoms: C_10  and  C_11
REMARK    8  A    between atoms: C_10  and  C_12
REMARK    9  A    between atoms: C_10  and  C_13
REMARK   10  A    between atoms: C_15  and  C_17
REMARK   11  A    between atoms: N_27  and  C_28
REMARK                            x       y       z     vdW  Elec       q    Type
REMARK                         _______ _______ _______ _____ _____    ______ ____
ROOT
ATOM      1  N   UNL     1       3.573  -1.155  -3.288  0.00  0.00    -0.267 N 
ATOM      2  C   UNL     1       4.689  -0.777  -2.635  0.00  0.00    +0.249 C 
ATOM      3  O   UNL     1       4.609  -0.295  -1.522  0.00  0.00    -0.270 OA
ATOM      4  H   UNL     1       3.637  -1.540  -4.176  0.00  0.00    +0.157 HD
ENDROOT
BRANCH   2   5
ATOM      5  C   UNL     1       6.009  -0.948  -3.271  0.00  0.00    +0.039 A 
ATOM      6  C   UNL     1       6.101  -1.497  -4.553  0.00  0.00    +0.015 A 
ATOM      7  C   UNL     1       7.334  -1.655  -5.149  0.00  0.00    +0.026 A 
ATOM      8  C   UNL     1       8.483  -1.270  -4.476  0.00  0.00    +0.051 A 
ATOM      9  C   UNL     1       8.401  -0.723  -3.190  0.00  0.00    +0.055 A 
ATOM     10  C   UNL     1       7.168  -0.555  -2.593  0.00  0.00    +0.038 A 
ATOM     11  N   UNL     1       9.575  -0.351  -2.522  0.00  0.00    -0.283 N 
ATOM     12  C   UNL     1      10.738  -0.240  -3.191  0.00  0.00    +0.235 C 
ATOM     13  O   UNL     1      11.752   0.043  -2.588  0.00  0.00    -0.274 OA
ATOM     14  C   UNL     1      10.795  -0.464  -4.680  0.00  0.00    +0.200 C 
ATOM     15  N   UNL     1       9.741  -1.416  -5.062  0.00  0.00    -0.323 N 
ATOM     16  C   UNL     1      10.004  -2.485  -6.029  0.00  0.00    +0.130 C 
ATOM     17  H   UNL     1       9.549  -0.171  -1.569  0.00  0.00    +0.155 HD
ENDBRANCH   2   5
BRANCH   1  20
ATOM     18  C   UNL     1       0.707  -0.490  -1.238  0.00  0.00    +0.070 A 
ATOM     19  C   UNL     1       2.088  -0.471  -1.453  0.00  0.00    +0.069 A 
ATOM     20  C   UNL     1       2.326  -0.994  -2.687  0.00  0.00    +0.124 A 
ATOM     21  N   UNL     1       1.125  -1.329  -3.226  0.00  0.00    -0.245 N 
ATOM     22  N   UNL     1       0.131  -1.006  -2.293  0.00  0.00    -0.174 NA
BRANCH  18  24
ATOM     23  C   UNL     1      -0.019   1.526   0.010  0.00  0.00    +0.017 C 
ATOM     24  C   UNL     1       0.002  -0.004   0.002  0.00  0.00    +0.006 C 
ATOM     25  C   UNL     1       0.742  -0.511   1.242  0.00  0.00    +0.017 C 
ATOM     26  C   UNL     1      -1.433  -0.534   0.013  0.00  0.00    +0.017 C 
ENDBRANCH  18  24
BRANCH  21  27
ATOM     27  C   UNL     1       0.908  -1.927  -4.546  0.00  0.00    +0.057 C 
ATOM     28  C   UNL     1       1.638  -3.269  -4.625  0.00  0.00    +0.036 C 
ATOM     29  C   UNL     1      -0.590  -2.147  -4.766  0.00  0.00    +0.036 C 
ATOM     30  C   UNL     1       1.449  -0.988  -5.626  0.00  0.00    +0.036 C 
ENDBRANCH  21  27
ENDBRANCH   1  20
TORSDOF 4
