REMARK  Name = ZINC04488809
REMARK  6 active torsions:
REMARK  status: ('A' for Active; 'I' for Inactive)
REMARK    1  A    between atoms: C_1  and  C_2
REMARK    2  A    between atoms: C_2  and  O_3
REMARK    3  A    between atoms: O_3  and  C_4
REMARK    4  A    between atoms: C_4  and  C_6
REMARK    5  A    between atoms: C_9  and  C_12
REMARK    6  A    between atoms: C_15  and  C_17
REMARK                            x       y       z     vdW  Elec       q    Type
REMARK                         _______ _______ _______ _____ _____    ______ ____
ROOT
ATOM      1  C   UNL     1      -3.338  -0.905  -1.171  0.00  0.00    +0.135 A 
ATOM      2  C   UNL     1      -3.334  -1.567   0.019  0.00  0.00    +0.050 A 
ATOM      3  C   UNL     1      -2.082  -1.324   0.614  0.00  0.00    +0.046 A 
ATOM      4  C   UNL     1      -1.393  -0.526  -0.227  0.00  0.00    +0.114 A 
ATOM      5  O   UNL     1      -2.154  -0.279  -1.305  0.00  0.00    -0.459 OA
ENDROOT
BRANCH   4   6
ATOM      6  C   UNL     1       0.002  -0.004   0.002  0.00  0.00    +0.096 C 
ATOM      7  C   UNL     1      -0.019   1.527   0.010  0.00  0.00    +0.112 C 
ATOM      8  C   UNL     1       1.394   2.051  -0.000  0.00  0.00    +0.218 C 
ATOM      9  O   UNL     1       1.663   3.066   0.607  0.00  0.00    -0.275 OA
ATOM     10  N   UNL     1       2.359   1.401  -0.678  0.00  0.00    -0.285 N 
ATOM     11  C   UNL     1       2.049   0.251  -1.416  0.00  0.00    +0.041 A 
ATOM     12  C   UNL     1       0.908  -0.477  -1.106  0.00  0.00    -0.012 A 
ATOM     13  C   UNL     1       0.606  -1.627  -1.810  0.00  0.00    +0.055 A 
ATOM     14  C   UNL     1       1.439  -2.050  -2.832  0.00  0.00    +0.167 A 
ATOM     15  C   UNL     1       2.580  -1.316  -3.151  0.00  0.00    +0.168 A 
ATOM     16  C   UNL     1       2.884  -0.167  -2.443  0.00  0.00    +0.073 A 
ATOM     17  O   UNL     1       3.217  -1.944  -4.188  0.00  0.00    -0.453 OA
ATOM     18  C   UNL     1       2.744  -3.310  -4.111  0.00  0.00    +0.466 C 
ATOM     19  O   UNL     1       1.377  -3.131  -3.671  0.00  0.00    -0.453 OA
ATOM     20  H   UNL     1       3.272   1.731  -0.655  0.00  0.00    +0.155 HD
ENDBRANCH   4   6
BRANCH   1  24
ATOM     21  C   UNL     1      -6.525  -0.831  -3.966  0.00  0.00    +0.059 A 
ATOM     22  C   UNL     1      -5.343  -0.131  -4.233  0.00  0.00    +0.015 A 
ATOM     23  C   UNL     1      -4.317  -0.155  -3.333  0.00  0.00    +0.012 A 
ATOM     24  C   UNL     1      -4.447  -0.880  -2.143  0.00  0.00    +0.017 A 
ATOM     25  C   UNL     1      -5.626  -1.584  -1.879  0.00  0.00    +0.012 A 
ATOM     26  C   UNL     1      -6.655  -1.556  -2.776  0.00  0.00    +0.015 A 
BRANCH  21  27
ATOM     27  C   UNL     1      -7.633  -0.806  -4.939  0.00  0.00    +0.339 C 
ATOM     28  O   UNL     1      -7.519  -0.177  -5.972  0.00  0.00    -0.245 OA
BRANCH  27  29
ATOM     29  O   UNL     1      -8.771  -1.481  -4.681  0.00  0.00    -0.461 OA
BRANCH  29  31
ATOM     30  C   UNL     1     -11.024  -2.232  -5.219  0.00  0.00    +0.048 C 
ATOM     31  C   UNL     1      -9.819  -1.411  -5.684  0.00  0.00    +0.229 C 
ENDBRANCH  29  31
ENDBRANCH  27  29
ENDBRANCH  21  27
ENDBRANCH   1  24
TORSDOF 5
