REMARK  Name = ZINC20110076
REMARK  8 active torsions:
REMARK  status: ('A' for Active; 'I' for Inactive)
REMARK    1  A    between atoms: C_1  and  C_2
REMARK    2  A    between atoms: C_2  and  C_3
REMARK    3  A    between atoms: C_2  and  C_4
REMARK    4  A    between atoms: C_2  and  O_27
REMARK    5  A    between atoms: C_5  and  C_6
REMARK    6  A    between atoms: C_9  and  C_11
REMARK    7  A    between atoms: C_17  and  C_19
REMARK    8  A    between atoms: C_22  and  C_24
REMARK                            x       y       z     vdW  Elec       q    Type
REMARK                         _______ _______ _______ _____ _____    ______ ____
ROOT
ATOM      1  C   UNL     1       2.485   1.488  -0.014  0.00  0.00    +0.282 C 
ATOM      2  O   UNL     1       2.762   0.302  -0.023  0.00  0.00    -0.267 OA
ATOM      3  N   UNL     1       3.468   2.410  -0.018  0.00  0.00    -0.287 N 
ATOM      4  C   UNL     1       3.275   3.871  -0.008  0.00  0.00    +0.109 C 
ATOM      5  C   UNL     1       4.572   4.447  -0.629  0.00  0.00    +0.021 C 
ATOM      6  C   UNL     1       5.645   3.482  -0.059  0.00  0.00    +0.029 C 
ATOM      7  C   UNL     1       4.910   2.125  -0.028  0.00  0.00    +0.113 C 
ENDROOT
BRANCH   1  11
ATOM      8  C   UNL     1      -0.701   3.197   0.025  0.00  0.00    +0.179 A 
ATOM      9  C   UNL     1      -1.146   1.893   0.017  0.00  0.00    +0.059 A 
ATOM     10  C   UNL     1      -0.013   1.076   0.008  0.00  0.00    +0.056 A 
ATOM     11  C   UNL     1       1.083   1.912   0.002  0.00  0.00    +0.191 A 
ATOM     12  O   UNL     1       0.643   3.188   0.012  0.00  0.00    -0.442 OA
BRANCH   8  14
ATOM     13  C   UNL     1      -2.209   5.322   0.049  0.00  0.00    -0.060 C 
ATOM     14  C   UNL     1      -1.530   4.365   0.038  0.00  0.00    -0.026 C 
BRANCH  13  16
ATOM     15  C   UNL     1      -2.756   7.350   1.313  0.00  0.00    +0.055 C 
ATOM     16  C   UNL     1      -3.061   6.523   0.062  0.00  0.00    +0.121 C 
ATOM     17  C   UNL     1      -2.779   7.362  -1.185  0.00  0.00    +0.055 C 
BRANCH  16  18
ATOM     18  O   UNL     1      -4.435   6.131   0.073  0.00  0.00    -0.377 OA
ATOM     19  H   UNL     1      -4.841   5.527  -0.751  0.00  0.00    +0.211 HD
ENDBRANCH  16  18
ENDBRANCH  13  16
ENDBRANCH   8  14
ENDBRANCH   1  11
BRANCH   7  20
ATOM     20  C   UNL     1       5.290   1.362   1.216  0.00  0.00    +0.011 A 
ATOM     21  C   UNL     1       6.176   0.340   1.341  0.00  0.00    +0.014 A 
ATOM     22  C   UNL     1       6.382  -0.221   2.576  0.00  0.00    +0.021 A 
ATOM     23  C   UNL     1       5.650   0.295   3.634  0.00  0.00    +0.074 A 
ATOM     24  S   UNL     1       4.696   1.571   2.831  0.00  0.00    -0.087 S 
BRANCH  23  25
ATOM     25  C   UNL     1       5.657  -0.103   5.045  0.00  0.00    +0.248 C 
ATOM     26  O   UNL     1       6.381  -1.008   5.418  0.00  0.00    -0.270 OA
ATOM     27  N   UNL     1       4.862   0.532   5.928  0.00  0.00    -0.325 N 
ATOM     28  H   UNL     1       4.867   0.233   6.987  0.00  0.00    +0.145 HD
ATOM     29  H   UNL     1       4.207   1.349   5.591  0.00  0.00    +0.145 HD
ENDBRANCH  23  25
ENDBRANCH   7  20
TORSDOF 6
