REMARK  Name = ZINC04647197
REMARK  11 active torsions:
REMARK  status: ('A' for Active; 'I' for Inactive)
REMARK    1  A    between atoms: C_1  and  C_2
REMARK    2  A    between atoms: C_2  and  C_3
REMARK    3  A    between atoms: C_2  and  C_4
REMARK    4  A    between atoms: C_4  and  C_6
REMARK    5  A    between atoms: C_4  and  N_27
REMARK    6  A    between atoms: N_8  and  N_9
REMARK    7  A    between atoms: C_10  and  C_12
REMARK    8  A    between atoms: C_15  and  N_18
REMARK    9  A    between atoms: N_18  and  S_19
REMARK   10  A    between atoms: S_19  and  C_22
REMARK   11  A    between atoms: C_28  and  C_30
REMARK                            x       y       z     vdW  Elec       q    Type
REMARK                         _______ _______ _______ _____ _____    ______ ____
ROOT
ATOM      1  N   UNL     1       5.463   3.103   1.310  0.00  0.00    -0.230 N 
ATOM      2  C   UNL     1       6.717   2.710   1.014  0.00  0.00    +0.260 C 
ATOM      3  O   UNL     1       6.904   1.655   0.439  0.00  0.00    -0.269 OA
ATOM      4  H   UNL     1       5.314   3.945   1.768  0.00  0.00    +0.173 HD
ENDROOT
BRANCH   2   5
ATOM      5  C   UNL     1       7.864   3.560   1.387  0.00  0.00    +0.038 A 
ATOM      6  C   UNL     1       7.650   4.776   2.043  0.00  0.00    +0.015 A 
ATOM      7  C   UNL     1       8.722   5.564   2.395  0.00  0.00    +0.025 A 
ATOM      8  C   UNL     1      10.018   5.156   2.088  0.00  0.00    +0.048 A 
ATOM      9  C   UNL     1      10.233   3.949   1.430  0.00  0.00    +0.025 A 
ATOM     10  C   UNL     1       9.166   3.154   1.081  0.00  0.00    +0.015 A 
BRANCH   8  11
ATOM     11  N   UNL     1      11.099   5.957   2.440  0.00  0.00    -0.216 N 
ATOM     12  H   UNL     1      11.380   6.012   3.367  0.00  0.00    +0.174 HD
BRANCH  11  13
ATOM     13  S   UNL     1      11.905   6.817   1.278  0.00  0.00    +0.079 S 
ATOM     14  O   UNL     1      12.896   7.581   1.951  0.00  0.00    -0.149 OA
ATOM     15  O   UNL     1      12.224   5.899   0.241  0.00  0.00    -0.149 OA
BRANCH  13  16
ATOM     16  C   UNL     1      10.761   7.970   0.594  0.00  0.00    +0.146 A 
ATOM     17  C   UNL     1      10.543   9.263   0.938  0.00  0.00    +0.036 A 
ATOM     18  C   UNL     1       9.582   9.985   0.256  0.00  0.00    +0.010 A 
ATOM     19  C   UNL     1       8.886   9.380  -0.737  0.00  0.00    +0.047 A 
ATOM     20  S   UNL     1       9.592   7.740  -0.736  0.00  0.00    -0.077 S 
ENDBRANCH  13  16
ENDBRANCH  11  13
ENDBRANCH   8  11
ENDBRANCH   2   5
BRANCH   1  23
ATOM     21  C   UNL     1       3.119   2.690   1.251  0.00  0.00    +0.250 C 
ATOM     22  O   UNL     1       2.937   3.698   1.900  0.00  0.00    -0.272 OA
ATOM     23  N   UNL     1       4.374   2.296   0.955  0.00  0.00    -0.233 N 
ATOM     24  H   UNL     1       4.523   1.455   0.497  0.00  0.00    +0.173 HD
BRANCH  21  25
ATOM     25  C   UNL     1       1.943   1.876   0.777  0.00  0.00    +0.163 C 
BRANCH  25  26
ATOM     26  N   UNL     1       0.778   2.165   1.617  0.00  0.00    -0.300 N 
ATOM     27  C   UNL     1      -0.207   1.254   1.741  0.00  0.00    +0.247 C 
ATOM     28  O   UNL     1      -0.129   0.191   1.156  0.00  0.00    -0.270 OA
ATOM     29  H   UNL     1       0.715   3.013   2.084  0.00  0.00    +0.150 HD
BRANCH  27  30
ATOM     30  C   UNL     1      -1.384   1.548   2.583  0.00  0.00    +0.072 A 
ATOM     31  C   UNL     1      -1.475   2.765   3.261  0.00  0.00    +0.016 A 
ATOM     32  C   UNL     1      -2.579   3.036   4.042  0.00  0.00    +0.001 A 
ATOM     33  C   UNL     1      -3.592   2.100   4.164  0.00  0.00    +0.003 A 
ATOM     34  C   UNL     1      -3.509   0.891   3.501  0.00  0.00    +0.039 A 
ATOM     35  C   UNL     1      -2.410   0.607   2.710  0.00  0.00    +0.135 A 
ATOM     36  F   UNL     1      -2.329  -0.576   2.062  0.00  0.00    -0.205 F 
ENDBRANCH  27  30
ENDBRANCH  25  26
BRANCH  25  38
ATOM     37  C   UNL     1       0.488   1.348  -1.185  0.00  0.00    +0.009 C 
ATOM     38  C   UNL     1       1.626   2.236  -0.676  0.00  0.00    +0.012 C 
ATOM     39  C   UNL     1       1.202   3.704  -0.756  0.00  0.00    +0.009 C 
ENDBRANCH  25  38
ENDBRANCH  21  25
ENDBRANCH   1  23
TORSDOF 9
