REMARK  Name = ZINC51586914
REMARK  4 active torsions:
REMARK  status: ('A' for Active; 'I' for Inactive)
REMARK    1  A    between atoms: N_4  and  C_6
REMARK    2  A    between atoms: C_9  and  C_25
REMARK    3  A    between atoms: C_11  and  N_12
REMARK    4  A    between atoms: C_19  and  C_22
REMARK                            x       y       z     vdW  Elec       q    Type
REMARK                         _______ _______ _______ _____ _____    ______ ____
ROOT
ATOM      1  C   UNL     1       1.964  -1.894   0.709  0.00  0.00    +0.087 A 
ATOM      2  C   UNL     1       1.097  -2.974   0.785  0.00  0.00    +0.030 A 
ATOM      3  C   UNL     1       1.344  -4.111   0.039  0.00  0.00    +0.014 A 
ATOM      4  C   UNL     1       2.454  -4.176  -0.785  0.00  0.00    +0.057 A 
ATOM      5  C   UNL     1       3.322  -3.104  -0.866  0.00  0.00    +0.037 A 
ATOM      6  C   UNL     1       3.079  -1.957  -0.125  0.00  0.00    +0.061 A 
ENDROOT
BRANCH   6   7
ATOM      7  N   UNL     1       3.954  -0.867  -0.210  0.00  0.00    -0.267 N 
ATOM      8  C   UNL     1       5.268  -1.074  -0.429  0.00  0.00    +0.307 C 
ATOM      9  O   UNL     1       5.680  -2.199  -0.637  0.00  0.00    -0.252 OA
ATOM     10  N   UNL     1       6.125  -0.034  -0.418  0.00  0.00    -0.280 N 
ATOM     11  C   UNL     1       5.638   1.348  -0.281  0.00  0.00    +0.137 C 
ATOM     12  C   UNL     1       6.264   2.195  -1.395  0.00  0.00    +0.180 C 
ATOM     13  O   UNL     1       7.682   2.017  -1.380  0.00  0.00    -0.364 OA
ATOM     14  C   UNL     1       8.108   0.678  -1.643  0.00  0.00    +0.221 C 
ATOM     15  C   UNL     1       7.576  -0.246  -0.535  0.00  0.00    +0.150 C 
ATOM     16  H   UNL     1       3.615   0.036  -0.111  0.00  0.00    +0.156 HD
BRANCH  14  17
ATOM     17  C   UNL     1       9.614   0.623  -1.663  0.00  0.00    +0.241 C 
ATOM     18  O   UNL     1      10.260   1.610  -1.383  0.00  0.00    -0.273 OA
ATOM     19  N   UNL     1      10.242  -0.522  -1.993  0.00  0.00    -0.327 N 
ATOM     20  H   UNL     1       9.725  -1.312  -2.218  0.00  0.00    +0.145 HD
ATOM     21  H   UNL     1      11.211  -0.558  -2.007  0.00  0.00    +0.145 HD
ENDBRANCH  14  17
ENDBRANCH   6   7
BRANCH   1  25
ATOM     22  C   UNL     1       0.765   0.717   2.789  0.00  0.00    +0.041 A 
ATOM     23  C   UNL     1       1.986   1.248   2.361  0.00  0.00    +0.135 A 
ATOM     24  N   UNL     1       2.557   0.377   1.568  0.00  0.00    -0.175 NA
ATOM     25  N   UNL     1       1.715  -0.739   1.466  0.00  0.00    -0.238 N 
ATOM     26  C   UNL     1       0.621  -0.505   2.225  0.00  0.00    +0.114 A 
ENDBRANCH   1  25
BRANCH   4  27
ATOM     27  C   UNL     1       2.716  -5.419  -1.595  0.00  0.00    +0.417 C 
ATOM     28  F   UNL     1       1.710  -6.358  -1.347  0.00  0.00    -0.166 F 
ATOM     29  F   UNL     1       2.728  -5.095  -2.956  0.00  0.00    -0.166 F 
ATOM     30  F   UNL     1       3.956  -5.957  -1.233  0.00  0.00    -0.166 F 
ENDBRANCH   4  27
TORSDOF 4
