REMARK  Name = ZINC33130126
REMARK  7 active torsions:
REMARK  status: ('A' for Active; 'I' for Inactive)
REMARK    1  A    between atoms: C_1  and  C_2
REMARK    2  A    between atoms: C_2  and  S_3
REMARK    3  A    between atoms: S_3  and  N_6
REMARK    4  A    between atoms: C_12  and  N_15
REMARK    5  A    between atoms: N_18  and  C_19
REMARK    6  A    between atoms: C_21  and  C_26
REMARK    7  A    between atoms: C_23  and  C_25
REMARK                            x       y       z     vdW  Elec       q    Type
REMARK                         _______ _______ _______ _____ _____    ______ ____
ROOT
ATOM      1  N   UNL     1       0.499   4.984  -0.099  0.00  0.00    -0.207 N 
ATOM      2  C   UNL     1       1.923   5.203  -0.363  0.00  0.00    +0.136 C 
ATOM      3  C   UNL     1       2.492   3.813  -0.691  0.00  0.00    +0.058 C 
ATOM      4  C   UNL     1       1.305   2.882  -0.583  0.00  0.00    -0.023 A 
ATOM      5  C   UNL     1       0.189   3.630  -0.238  0.00  0.00    +0.056 A 
ATOM      6  C   UNL     1      -1.038   2.984  -0.080  0.00  0.00    +0.048 A 
ATOM      7  C   UNL     1      -1.135   1.616  -0.270  0.00  0.00    +0.037 A 
ATOM      8  C   UNL     1      -0.009   0.878  -0.611  0.00  0.00    +0.024 A 
ATOM      9  C   UNL     1       1.206   1.516  -0.768  0.00  0.00    +0.007 A 
ENDROOT
BRANCH   7  10
ATOM     10  N   UNL     1      -2.370   0.975  -0.115  0.00  0.00    -0.269 N 
ATOM     11  C   UNL     1      -2.420  -0.283   0.365  0.00  0.00    +0.308 C 
ATOM     12  O   UNL     1      -1.404  -0.828   0.751  0.00  0.00    -0.252 OA
ATOM     13  N   UNL     1      -3.597  -0.939   0.416  0.00  0.00    -0.269 N 
ATOM     14  H   UNL     1      -3.299   1.498  -0.385  0.00  0.00    +0.156 HD
ATOM     15  H   UNL     1      -4.500  -0.480  -0.011  0.00  0.00    +0.156 HD
BRANCH  13  16
ATOM     16  C   UNL     1      -3.668  -2.202   1.013  0.00  0.00    +0.035 A 
ATOM     17  C   UNL     1      -4.563  -3.149   0.532  0.00  0.00    +0.026 A 
ATOM     18  C   UNL     1      -4.628  -4.397   1.120  0.00  0.00    -0.048 A 
ATOM     19  C   UNL     1      -3.810  -4.701   2.193  0.00  0.00    +0.006 A 
ATOM     20  C   UNL     1      -2.922  -3.758   2.678  0.00  0.00    -0.048 A 
ATOM     21  C   UNL     1      -2.849  -2.510   2.091  0.00  0.00    +0.026 A 
ATOM     22  C   UNL     1      -2.033  -4.093   3.848  0.00  0.00    +0.044 C 
ATOM     23  C   UNL     1      -5.594  -5.428   0.594  0.00  0.00    +0.044 C 
ENDBRANCH  13  16
ENDBRANCH   7  10
BRANCH   1  24
ATOM     24  S   UNL     1      -0.585   6.168   0.306  0.00  0.00    +0.045 S 
ATOM     25  O   UNL     1      -1.600   5.496   1.039  0.00  0.00    -0.155 OA
ATOM     26  O   UNL     1       0.199   7.183   0.919  0.00  0.00    -0.155 OA
BRANCH  24  28
ATOM     27  C   UNL     1      -2.266   7.868  -1.023  0.00  0.00    +0.030 C 
ATOM     28  C   UNL     1      -1.244   6.759  -1.278  0.00  0.00    +0.185 C 
ENDBRANCH  24  28
ENDBRANCH   1  24
TORSDOF 4
