REMARK  Name = ZINC21537166
REMARK  8 active torsions:
REMARK  status: ('A' for Active; 'I' for Inactive)
REMARK    1  A    between atoms: C_1  and  C_2
REMARK    2  A    between atoms: C_7  and  C_8
REMARK    3  A    between atoms: C_17  and  S_19
REMARK    4  A    between atoms: S_19  and  C_20
REMARK    5  A    between atoms: C_20  and  C_21
REMARK    6  A    between atoms: N_23  and  C_24
REMARK    7  A    between atoms: C_27  and  C_31
REMARK    8  A    between atoms: C_28  and  C_30
REMARK                            x       y       z     vdW  Elec       q    Type
REMARK                         _______ _______ _______ _____ _____    ______ ____
ROOT
ATOM      1  C   UNL     1       0.443   0.082   2.503  0.00  0.00    +0.165 A 
ATOM      2  N   UNL     1       0.481   1.408   2.498  0.00  0.00    -0.208 NA
ATOM      3  C   UNL     1       0.773   2.074   3.620  0.00  0.00    +0.162 A 
ATOM      4  C   UNL     1       0.885   3.426   3.920  0.00  0.00    +0.119 A 
ATOM      5  C   UNL     1       1.217   3.535   5.271  0.00  0.00    +0.267 A 
ATOM      6  O   UNL     1       1.395   4.578   5.879  0.00  0.00    -0.266 OA
ATOM      7  N   UNL     1       1.306   2.295   5.790  0.00  0.00    -0.256 N 
ATOM      8  H   UNL     1       1.524   2.080   6.710  0.00  0.00    +0.191 HD
ATOM      9  N   UNL     1       1.033   1.371   4.777  0.00  0.00    -0.210 N 
ATOM     10  C   UNL     1       0.987   0.007   4.749  0.00  0.00    +0.192 A 
ATOM     11  N   UNL     1       0.688  -0.612   3.618  0.00  0.00    -0.202 NA
ENDROOT
BRANCH   1  18
ATOM     12  C   UNL     1      -0.382   1.569   0.162  0.00  0.00    +0.044 C 
ATOM     13  C   UNL     1      -0.282   0.066   0.118  0.00  0.00    -0.040 A 
ATOM     14  C   UNL     1      -0.579  -0.613  -1.046  0.00  0.00    +0.004 A 
ATOM     15  C   UNL     1      -0.487  -1.992  -1.087  0.00  0.00    +0.000 A 
ATOM     16  C   UNL     1      -0.098  -2.700   0.036  0.00  0.00    +0.001 A 
ATOM     17  C   UNL     1       0.202  -2.033   1.206  0.00  0.00    +0.012 A 
ATOM     18  C   UNL     1       0.117  -0.641   1.252  0.00  0.00    +0.022 A 
ENDBRANCH   1  18
BRANCH  10  19
ATOM     19  S   UNL     1       1.315  -0.923   6.210  0.00  0.00    -0.077 S 
BRANCH  19  20
ATOM     20  C   UNL     1       1.136  -2.649   5.680  0.00  0.00    +0.173 C 
BRANCH  20  21
ATOM     21  C   UNL     1       1.394  -3.563   6.850  0.00  0.00    +0.227 C 
ATOM     22  O   UNL     1       1.671  -3.096   7.935  0.00  0.00    -0.275 OA
ATOM     23  N   UNL     1       1.317  -4.899   6.692  0.00  0.00    -0.285 N 
ATOM     24  H   UNL     1       1.169  -5.275   5.810  0.00  0.00    +0.155 HD
BRANCH  23  25
ATOM     25  C   UNL     1       1.449  -5.744   7.799  0.00  0.00    +0.034 A 
ATOM     26  C   UNL     1       2.062  -6.983   7.660  0.00  0.00    +0.023 A 
ATOM     27  C   UNL     1       2.190  -7.814   8.755  0.00  0.00    +0.005 A 
ATOM     28  C   UNL     1       1.710  -7.415   9.989  0.00  0.00    -0.047 A 
ATOM     29  C   UNL     1       1.099  -6.183  10.131  0.00  0.00    -0.046 A 
ATOM     30  C   UNL     1       0.973  -5.343   9.040  0.00  0.00    +0.027 A 
ATOM     31  C   UNL     1       0.576  -5.752  11.477  0.00  0.00    +0.044 C 
ATOM     32  C   UNL     1       1.851  -8.325  11.182  0.00  0.00    +0.044 C 
ENDBRANCH  23  25
ENDBRANCH  20  21
ENDBRANCH  19  20
ENDBRANCH  10  19
TORSDOF 5
