REMARK  Name = ZINC48843583
REMARK  3 active torsions:
REMARK  status: ('A' for Active; 'I' for Inactive)
REMARK    1  A    between atoms: C_4  and  N_10
REMARK    2  A    between atoms: C_6  and  N_9
REMARK    3  A    between atoms: C_18  and  C_20
REMARK                            x       y       z     vdW  Elec       q    Type
REMARK                         _______ _______ _______ _____ _____    ______ ____
ROOT
ATOM      1  N   UNL     1       3.223   0.608  -0.334  0.00  0.00    -0.298 N 
ATOM      2  C   UNL     1       4.477   0.123  -0.235  0.00  0.00    +0.303 C 
ATOM      3  O   UNL     1       5.170   0.420   0.719  0.00  0.00    -0.253 OA
ATOM      4  N   UNL     1       4.963  -0.690  -1.194  0.00  0.00    -0.272 N 
ATOM      5  C   UNL     1       4.187  -0.958  -2.412  0.00  0.00    +0.110 C 
ATOM      6  C   UNL     1       4.053  -2.474  -2.588  0.00  0.00    +0.019 C 
ATOM      7  C   UNL     1       5.446  -3.109  -2.577  0.00  0.00    +0.004 C 
ATOM      8  C   UNL     1       6.122  -2.837  -1.232  0.00  0.00    +0.034 C 
ATOM      9  C   UNL     1       6.281  -1.321  -1.042  0.00  0.00    +0.190 C 
ATOM     10  H   UNL     1       2.697   0.432  -1.130  0.00  0.00    +0.150 HD
ENDROOT
BRANCH   1  14
ATOM     11  C   UNL     1       1.037   3.300  -0.773  0.00  0.00    -0.001 C 
ATOM     12  C   UNL     1       2.563   3.399  -0.735  0.00  0.00    +0.002 C 
ATOM     13  C   UNL     1       3.076   2.862   0.603  0.00  0.00    +0.021 C 
ATOM     14  C   UNL     1       2.655   1.399   0.760  0.00  0.00    +0.060 C 
ATOM     15  C   UNL     1       1.129   1.300   0.722  0.00  0.00    -0.054 C 
ATOM     16  C   UNL     1       0.616   1.838  -0.616  0.00  0.00    -0.014 C 
BRANCH  15  17
ATOM     17  N   UNL     1       0.725  -0.104   0.873  0.00  0.00    +0.381 N 
ATOM     18  H   UNL     1       1.063  -0.458   1.755  0.00  0.00    -0.090 HD
ATOM     19  H   UNL     1      -0.281  -0.169   0.847  0.00  0.00    -0.090 HD
ATOM     20  H   UNL     1       1.116  -0.649   0.119  0.00  0.00    -0.090 HD
ENDBRANCH  15  17
ENDBRANCH   1  14
BRANCH   9  21
ATOM     21  C   UNL     1       6.823  -1.036   0.335  0.00  0.00    +0.376 C 
ATOM     22  O   UNL     1       6.153  -1.298   1.319  0.00  0.00    -0.244 OA
ATOM     23  O   UNL     1       7.931  -0.544   0.464  0.00  0.00    -0.244 OA
ENDBRANCH   9  21
TORSDOF 3
