REMARK  Name = ZINC39450314
REMARK  3 active torsions:
REMARK  status: ('A' for Active; 'I' for Inactive)
REMARK    1  A    between atoms: C_4  and  O_26
REMARK    2  A    between atoms: C_5  and  C_7
REMARK    3  A    between atoms: C_20  and  O_23
REMARK                            x       y       z     vdW  Elec       q    Type
REMARK                         _______ _______ _______ _____ _____    ______ ____
ROOT
ATOM      1  C   UNL     1       1.245  -2.165  -0.023  0.00  0.00    +0.004 A 
ATOM      2  C   UNL     1       0.488  -2.889   0.900  0.00  0.00    +0.025 A 
ATOM      3  C   UNL     1       0.550  -4.279   0.846  0.00  0.00    +0.070 A 
ATOM      4  C   UNL     1       1.366  -4.899  -0.127  0.00  0.00    +0.099 A 
ATOM      5  C   UNL     1       1.411  -6.366  -0.161  0.00  0.00    +0.085 A 
ATOM      6  C   UNL     1       0.669  -7.098   0.748  0.00  0.00    +0.144 A 
ATOM      7  N   UNL     1      -0.128  -6.464   1.694  0.00  0.00    -0.136 N 
ATOM      8  C   UNL     1      -0.213  -5.124   1.776  0.00  0.00    +0.289 A 
ATOM      9  O   UNL     1      -0.922  -4.610   2.622  0.00  0.00    -0.265 OA
ATOM     10  F   UNL     1      -0.813  -7.190   2.526  0.00  0.00    -0.090 F 
ATOM     11  C   UNL     1       0.721  -8.510   0.723  0.00  0.00    +0.188 C 
ATOM     12  O   UNL     1       0.031  -9.151   1.489  0.00  0.00    -0.290 OA
ATOM     13  C   UNL     1       1.624  -9.228  -0.246  0.00  0.00    +0.132 C 
ATOM     14  C   UNL     1       1.794  -8.376  -1.509  0.00  0.00    +0.207 C 
ATOM     15  N   UNL     1       2.188  -7.019  -1.099  0.00  0.00    -0.315 N 
ATOM     16  N   UNL     1       2.067  -4.165  -0.983  0.00  0.00    -0.252 NA
ATOM     17  C   UNL     1       2.025  -2.852  -0.960  0.00  0.00    +0.120 A 
ATOM     18  H   UNL     1       2.973  -6.593  -1.478  0.00  0.00    +0.149 HD
ENDROOT
BRANCH   1  23
ATOM     19  C   UNL     1      -0.017   1.375   0.010  0.00  0.00    +0.001 A 
ATOM     20  C   UNL     1       1.169   2.089   0.002  0.00  0.00    +0.004 A 
ATOM     21  C   UNL     1       2.382   1.426  -0.013  0.00  0.00    +0.046 A 
ATOM     22  C   UNL     1       2.416   0.041  -0.021  0.00  0.00    +0.125 A 
ATOM     23  C   UNL     1       1.219  -0.683  -0.014  0.00  0.00    +0.025 A 
ATOM     24  C   UNL     1       0.002  -0.004   0.002  0.00  0.00    +0.012 A 
BRANCH  22  25
ATOM     25  O   UNL     1       3.607  -0.611  -0.037  0.00  0.00    -0.506 OA
ATOM     26  H   UNL     1       3.961  -0.805   0.842  0.00  0.00    +0.292 HD
ENDBRANCH  22  25
ENDBRANCH   1  23
BRANCH  14  27
ATOM     27  O   UNL     1       0.558  -8.324  -2.225  0.00  0.00    -0.374 OA
ATOM     28  H   UNL     1       0.596  -7.800  -3.037  0.00  0.00    +0.212 HD
ENDBRANCH  14  27
TORSDOF 3
