REMARK  Name = ZINC65434015
REMARK  5 active torsions:
REMARK  status: ('A' for Active; 'I' for Inactive)
REMARK    1  A    between atoms: C_1  and  C_2
REMARK    2  A    between atoms: C_4  and  C_9
REMARK    3  A    between atoms: C_7  and  O_8
REMARK    4  A    between atoms: C_9  and  N_10
REMARK    5  A    between atoms: C_18  and  C_26
REMARK                            x       y       z     vdW  Elec       q    Type
REMARK                         _______ _______ _______ _____ _____    ______ ____
ROOT
ATOM      1  N   UNL     1       1.370  -3.085  -2.957  0.00  0.00    -0.295 NA
ATOM      2  C   UNL     1       2.064  -3.995  -2.036  0.00  0.00    +0.103 C 
ATOM      3  C   UNL     1       3.553  -4.045  -2.397  0.00  0.00    +0.122 C 
ATOM      4  N   UNL     1       3.676  -4.389  -3.822  0.00  0.00    -0.314 N 
ATOM      5  C   UNL     1       2.900  -3.607  -4.797  0.00  0.00    +0.122 C 
ATOM      6  C   UNL     1       1.437  -3.574  -4.340  0.00  0.00    +0.103 C 
ATOM      7  C   UNL     1       4.502  -5.423  -4.236  0.00  0.00    +0.100 A 
ATOM      8  C   UNL     1       4.491  -5.800  -5.587  0.00  0.00    +0.057 A 
ATOM      9  C   UNL     1       5.313  -6.833  -6.014  0.00  0.00    +0.075 A 
ATOM     10  C   UNL     1       6.158  -7.478  -5.008  0.00  0.00    +0.013 A 
ATOM     11  C   UNL     1       7.020  -8.528  -5.341  0.00  0.00    +0.011 A 
ATOM     12  C   UNL     1       7.790  -9.101  -4.372  0.00  0.00    +0.001 A 
ATOM     13  C   UNL     1       7.728  -8.653  -3.054  0.00  0.00    +0.002 A 
ATOM     14  C   UNL     1       6.899  -7.634  -2.697  0.00  0.00    +0.026 A 
ATOM     15  C   UNL     1       6.091  -7.019  -3.670  0.00  0.00    +0.049 A 
ATOM     16  N   UNL     1       5.272  -6.012  -3.349  0.00  0.00    -0.343 N 
ATOM     17  H   UNL     1       5.243  -5.708  -2.429  0.00  0.00    +0.167 HD
ENDROOT
BRANCH   9  18
ATOM     18  C   UNL     1       5.334  -7.264  -7.426  0.00  0.00    +0.387 C 
ATOM     19  O   UNL     1       4.699  -6.641  -8.266  0.00  0.00    -0.241 OA
ATOM     20  O   UNL     1       5.987  -8.244  -7.756  0.00  0.00    -0.241 OA
ENDBRANCH   9  18
BRANCH   1  21
ATOM     21  C   UNL     1      -0.023  -2.876  -2.540  0.00  0.00    +0.119 C 
BRANCH  21  25
ATOM     22  C   UNL     1      -0.129   1.407   0.045  0.00  0.00    +0.047 C 
ATOM     23  C   UNL     1      -0.099  -0.099   0.016  0.00  0.00    -0.009 A 
ATOM     24  C   UNL     1      -0.075  -0.767  -1.193  0.00  0.00    +0.011 A 
ATOM     25  C   UNL     1      -0.048  -2.149  -1.220  0.00  0.00    -0.033 A 
ATOM     26  C   UNL     1      -0.045  -2.866  -0.037  0.00  0.00    +0.008 A 
ATOM     27  C   UNL     1      -0.068  -2.203   1.174  0.00  0.00    +0.046 A 
ATOM     28  C   UNL     1      -0.090  -0.816   1.204  0.00  0.00    +0.120 A 
BRANCH  28  29
ATOM     29  O   UNL     1      -0.107  -0.161   2.394  0.00  0.00    -0.507 OA
ATOM     30  H   UNL     1      -0.996   0.012   2.735  0.00  0.00    +0.292 HD
ENDBRANCH  28  29
ENDBRANCH  21  25
ENDBRANCH   1  21
TORSDOF 4
