REMARK  Name = ZINC21218334
REMARK  6 active torsions:
REMARK  status: ('A' for Active; 'I' for Inactive)
REMARK    1  A    between atoms: C_1  and  C_2
REMARK    2  A    between atoms: C_2  and  O_3
REMARK    3  A    between atoms: O_3  and  C_4
REMARK    4  A    between atoms: C_7  and  C_10
REMARK    5  A    between atoms: C_15  and  C_21
REMARK    6  A    between atoms: C_24  and  O_27
REMARK                            x       y       z     vdW  Elec       q    Type
REMARK                         _______ _______ _______ _____ _____    ______ ____
ROOT
ATOM      1  C   UNL     1       7.346   0.256   1.963  0.00  0.00    +0.032 C 
ATOM      2  C   UNL     1       7.194   1.571   2.730  0.00  0.00    +0.059 C 
ATOM      3  C   UNL     1       6.216   2.467   2.011  0.00  0.00    +0.018 C 
ATOM      4  C   UNL     1       6.084   2.411   0.670  0.00  0.00    +0.020 C 
ATOM      5  C   UNL     1       5.103   3.323  -0.029  0.00  0.00    +0.063 C 
ATOM      6  C   UNL     1       5.050   4.667   0.701  0.00  0.00    +0.109 C 
ATOM      7  C   UNL     1       4.890   4.419   2.179  0.00  0.00    +0.218 C 
ATOM      8  O   UNL     1       4.246   5.192   2.856  0.00  0.00    -0.275 OA
ATOM      9  N   UNL     1       5.461   3.344   2.749  0.00  0.00    -0.289 N 
ATOM     10  C   UNL     1       6.841   1.516  -0.104  0.00  0.00    +0.162 C 
ATOM     11  O   UNL     1       6.703   1.503  -1.310  0.00  0.00    -0.292 OA
ATOM     12  C   UNL     1       7.821   0.572   0.540  0.00  0.00    +0.088 C 
ATOM     13  H   UNL     1       5.314   3.172   3.825  0.00  0.00    +0.155 HD
ENDROOT
BRANCH   1  17
ATOM     14  C   UNL     1      10.219  -2.234   3.915  0.00  0.00    +0.121 A 
ATOM     15  C   UNL     1       8.917  -2.681   3.739  0.00  0.00    +0.046 A 
ATOM     16  C   UNL     1       7.990  -1.874   3.107  0.00  0.00    +0.007 A 
ATOM     17  C   UNL     1       8.359  -0.622   2.651  0.00  0.00    -0.043 A 
ATOM     18  C   UNL     1       9.657  -0.176   2.821  0.00  0.00    +0.007 A 
ATOM     19  C   UNL     1      10.586  -0.977   3.456  0.00  0.00    +0.046 A 
BRANCH  14  20
ATOM     20  O   UNL     1      11.132  -3.026   4.535  0.00  0.00    -0.492 OA
BRANCH  20  22
ATOM     21  C   UNL     1      13.334  -3.526   5.397  0.00  0.00    +0.048 C 
ATOM     22  C   UNL     1      12.453  -2.500   4.682  0.00  0.00    +0.225 C 
ENDBRANCH  20  22
ENDBRANCH  14  20
ENDBRANCH   1  17
BRANCH   5  23
ATOM     23  C   UNL     1       3.735   2.692  -0.019  0.00  0.00    -0.039 A 
ATOM     24  C   UNL     1       3.096   2.409  -1.213  0.00  0.00    +0.008 A 
ATOM     25  C   UNL     1       1.842   1.830  -1.207  0.00  0.00    +0.045 A 
ATOM     26  C   UNL     1       1.223   1.532  -0.001  0.00  0.00    +0.117 A 
ATOM     27  C   UNL     1       1.863   1.822   1.195  0.00  0.00    +0.045 A 
ATOM     28  C   UNL     1       3.119   2.397   1.183  0.00  0.00    +0.008 A 
BRANCH  26  29
ATOM     29  O   UNL     1      -0.011   0.963   0.007  0.00  0.00    -0.507 OA
ATOM     30  H   UNL     1      -0.501   0.727   0.963  0.00  0.00    +0.292 HD
ENDBRANCH  26  29
ENDBRANCH   5  23
TORSDOF 5
