REMARK  Name = ZINC12877936
REMARK  2 active torsions:
REMARK  status: ('A' for Active; 'I' for Inactive)
REMARK    1  A    between atoms: C_1  and  C_2
REMARK    2  A    between atoms: C_7  and  C_11
REMARK                            x       y       z     vdW  Elec       q    Type
REMARK                         _______ _______ _______ _____ _____    ______ ____
ROOT
ATOM      1  C   UNL     1       1.297   3.525  -0.246  0.00  0.00    -0.007 C 
ATOM      2  C   UNL     1       1.349   2.016   0.000  0.00  0.00    -0.027 C 
ATOM      3  C   UNL     1       2.115   1.344  -1.114  0.00  0.00    +0.005 A 
ATOM      4  C   UNL     1       3.278   1.730  -1.670  0.00  0.00    +0.022 A 
ATOM      5  C   UNL     1       3.601   0.800  -2.671  0.00  0.00    +0.031 A 
ATOM      6  C   UNL     1       2.608  -0.140  -2.692  0.00  0.00    +0.090 A 
ATOM      7  N   UNL     1       1.696   0.197  -1.731  0.00  0.00    -0.345 N 
ATOM      8  C   UNL     1       0.460  -0.508  -1.372  0.00  0.00    +0.103 C 
ATOM      9  C   UNL     1       0.002  -0.004   0.002  0.00  0.00    -0.060 C 
ATOM     10  N   UNL     1      -0.028   1.472   0.010  0.00  0.00    +0.386 N 
ATOM     11  H   UNL     1      -0.529   1.805  -0.822  0.00  0.00    -0.085 HD
ATOM     12  H   UNL     1      -0.513   1.796   0.855  0.00  0.00    -0.085 HD
ENDROOT
BRANCH   6  13
ATOM     13  C   UNL     1       2.534  -1.305  -3.590  0.00  0.00    +0.223 A 
ATOM     14  N   UNL     1       1.927  -3.142  -4.635  0.00  0.00    -0.021 NA
ATOM     15  N   UNL     1       3.040  -2.711  -5.120  0.00  0.00    -0.021 NA
ATOM     16  N   UNL     1       3.409  -1.638  -4.519  0.00  0.00    -0.104 NA
ATOM     17  N   UNL     1       1.574  -2.249  -3.632  0.00  0.00    -0.104 NA
ENDBRANCH   6  13
TORSDOF 1
