REMARK  Name = ZINC12479722
REMARK  13 active torsions:
REMARK  status: ('A' for Active; 'I' for Inactive)
REMARK    1  A    between atoms: C_1  and  C_2
REMARK    2  A    between atoms: C_6  and  N_8
REMARK    3  A    between atoms: N_8  and  C_9
REMARK    4  A    between atoms: C_9  and  C_11
REMARK    5  A    between atoms: C_9  and  C_18
REMARK    6  A    between atoms: N_20  and  C_21
REMARK    7  A    between atoms: C_21  and  C_22
REMARK    8  A    between atoms: C_22  and  C_23
REMARK    9  A    between atoms: C_23  and  C_24
REMARK   10  A    between atoms: C_23  and  C_25
REMARK   11  A    between atoms: C_26  and  C_28
REMARK   12  A    between atoms: C_29  and  N_36
REMARK   13  A    between atoms: C_30  and  C_33
REMARK                            x       y       z     vdW  Elec       q    Type
REMARK                         _______ _______ _______ _____ _____    ______ ____
ROOT
ATOM      1  N   UNL     1       1.262   3.748   0.141  0.00  0.00    -0.251 N 
ATOM      2  C   UNL     1       0.265   4.021  -0.724  0.00  0.00    +0.262 C 
ATOM      3  O   UNL     1       0.504   4.609  -1.763  0.00  0.00    -0.269 OA
ENDROOT
BRANCH   1   9
ATOM      4  C   UNL     1       0.703   3.493   5.018  0.00  0.00    +0.044 C 
ATOM      5  C   UNL     1       0.730   2.836   3.662  0.00  0.00    -0.049 A 
ATOM      6  C   UNL     1       0.500   1.477   3.548  0.00  0.00    +0.003 A 
ATOM      7  C   UNL     1       0.523   0.871   2.306  0.00  0.00    +0.002 A 
ATOM      8  C   UNL     1       0.775   1.621   1.174  0.00  0.00    +0.023 A 
ATOM      9  C   UNL     1       1.007   2.986   1.285  0.00  0.00    +0.038 A 
ATOM     10  C   UNL     1       0.983   3.592   2.534  0.00  0.00    +0.027 A 
ENDBRANCH   1   9
BRANCH   2  11
ATOM     11  C   UNL     1      -1.106   3.612  -0.413  0.00  0.00    +0.116 A 
ATOM     12  C   UNL     1      -2.254   3.690  -1.204  0.00  0.00    +0.076 A 
ATOM     13  C   UNL     1      -3.384   3.192  -0.556  0.00  0.00    +0.155 A 
ATOM     14  N   UNL     1      -3.272   2.731   0.670  0.00  0.00    -0.203 NA
ATOM     15  S   UNL     1      -1.757   2.887   1.077  0.00  0.00    +0.019 S 
BRANCH  13  16
ATOM     16  C   UNL     1      -4.692   3.188  -1.236  0.00  0.00    +0.262 C 
ATOM     17  O   UNL     1      -4.789   3.616  -2.370  0.00  0.00    -0.269 OA
ATOM     18  N   UNL     1      -5.780   2.709  -0.601  0.00  0.00    -0.324 N 
ATOM     19  H   UNL     1      -5.703   2.368   0.303  0.00  0.00    +0.145 HD
ATOM     20  H   UNL     1      -6.641   2.707  -1.049  0.00  0.00    +0.145 HD
ENDBRANCH  13  16
BRANCH  12  21
ATOM     21  N   UNL     1      -2.268   4.205  -2.494  0.00  0.00    -0.355 N 
ATOM     22  H   UNL     1      -1.448   4.535  -2.893  0.00  0.00    +0.142 HD
ATOM     23  H   UNL     1      -3.098   4.233  -2.995  0.00  0.00    +0.142 HD
ENDBRANCH  12  21
ENDBRANCH   2  11
BRANCH   1  24
ATOM     24  C   UNL     1       2.614   4.251  -0.118  0.00  0.00    +0.197 C 
BRANCH  24  25
ATOM     25  C   UNL     1       3.494   3.958   1.070  0.00  0.00    -0.018 A 
ATOM     26  C   UNL     1       3.624   2.662   1.531  0.00  0.00    +0.007 A 
ATOM     27  C   UNL     1       4.436   2.392   2.617  0.00  0.00    +0.020 A 
ATOM     28  C   UNL     1       5.110   3.422   3.249  0.00  0.00    +0.041 A 
ATOM     29  C   UNL     1       4.975   4.720   2.790  0.00  0.00    +0.020 A 
ATOM     30  C   UNL     1       4.167   4.988   1.701  0.00  0.00    +0.007 A 
ATOM     31 CL   UNL     1       6.124   3.084   4.616  0.00  0.00    -0.084 Cl
ENDBRANCH  24  25
BRANCH  24  32
ATOM     32  C   UNL     1       3.177   3.572  -1.340  0.00  0.00    +0.238 C 
ATOM     33  O   UNL     1       2.514   2.749  -1.936  0.00  0.00    -0.273 OA
ATOM     34  N   UNL     1       4.417   3.879  -1.770  0.00  0.00    -0.313 N 
ATOM     35  H   UNL     1       4.947   4.536  -1.294  0.00  0.00    +0.149 HD
BRANCH  34  36
ATOM     36  C   UNL     1       4.964   3.219  -2.958  0.00  0.00    +0.104 C 
BRANCH  36  37
ATOM     37  C   UNL     1       6.375   3.743  -3.228  0.00  0.00    +0.022 C 
BRANCH  37  38
ATOM     38  C   UNL     1       6.947   3.054  -4.469  0.00  0.00    -0.016 C 
ATOM     39  C   UNL     1       6.125   3.451  -5.697  0.00  0.00    +0.007 C 
ATOM     40  C   UNL     1       8.401   3.485  -4.667  0.00  0.00    +0.007 C 
ENDBRANCH  37  38
ENDBRANCH  36  37
ENDBRANCH  34  36
ENDBRANCH  24  32
ENDBRANCH   1  24
TORSDOF 10
