REMARK  Name = ZINC38203327
REMARK  8 active torsions:
REMARK  status: ('A' for Active; 'I' for Inactive)
REMARK    1  A    between atoms: C_1  and  C_2
REMARK    2  A    between atoms: C_5  and  N_9
REMARK    3  A    between atoms: C_6  and  C_8
REMARK    4  A    between atoms: N_9  and  S_10
REMARK    5  A    between atoms: S_10  and  C_13
REMARK    6  A    between atoms: C_17  and  C_19
REMARK    7  A    between atoms: N_21  and  N_22
REMARK    8  A    between atoms: C_31  and  O_32
REMARK                            x       y       z     vdW  Elec       q    Type
REMARK                         _______ _______ _______ _____ _____    ______ ____
ROOT
ATOM      1  C   UNL     1       2.517  -4.719  -1.127  0.00  0.00    +0.109 A 
ATOM      2  C   UNL     1       3.106  -3.635  -1.754  0.00  0.00    +0.029 A 
ATOM      3  C   UNL     1       4.469  -3.423  -1.646  0.00  0.00    +0.003 A 
ATOM      4  C   UNL     1       5.250  -4.292  -0.913  0.00  0.00    +0.013 A 
ATOM      5  C   UNL     1       4.662  -5.388  -0.279  0.00  0.00    +0.040 A 
ATOM      6  C   UNL     1       3.284  -5.593  -0.386  0.00  0.00    +0.042 A 
ENDROOT
BRANCH   5   7
ATOM      7  C   UNL     1       5.491  -6.324   0.508  0.00  0.00    +0.263 C 
ATOM      8  O   UNL     1       4.976  -7.276   1.059  0.00  0.00    -0.268 OA
ATOM      9  N   UNL     1       6.820  -6.121   0.614  0.00  0.00    -0.202 N 
ATOM     10  H   UNL     1       7.231  -5.360   0.174  0.00  0.00    +0.178 HD
BRANCH   9  11
ATOM     11  N   UNL     1       7.544  -6.938   1.301  0.00  0.00    -0.174 NA
ATOM     12  C   UNL     1       8.838  -6.740   1.404  0.00  0.00    +0.152 C 
ATOM     13  C   UNL     1       9.828  -7.562   2.136  0.00  0.00    +0.035 A 
ATOM     14  C   UNL     1       9.745  -8.719   2.897  0.00  0.00    +0.050 A 
ATOM     15  C   UNL     1      10.890  -9.251   3.463  0.00  0.00    +0.124 A 
ATOM     16  C   UNL     1      12.117  -8.630   3.270  0.00  0.00    +0.040 A 
ATOM     17  C   UNL     1      12.214  -7.481   2.516  0.00  0.00    +0.031 A 
ATOM     18  C   UNL     1      11.069  -6.926   1.934  0.00  0.00    +0.077 A 
ATOM     19  N   UNL     1      10.887  -5.823   1.161  0.00  0.00    -0.211 NA
ATOM     20  C   UNL     1       9.639  -5.651   0.812  0.00  0.00    +0.241 C 
ATOM     21  F   UNL     1      10.815 -10.377   4.206  0.00  0.00    -0.205 F 
BRANCH  20  22
ATOM     22  O   UNL     1       9.162  -4.643   0.042  0.00  0.00    -0.491 OA
ATOM     23  H   UNL     1       9.840  -4.021  -0.256  0.00  0.00    +0.294 HD
ENDBRANCH  20  22
ENDBRANCH   9  11
ENDBRANCH   5   7
BRANCH   1  24
ATOM     24  S   UNL     1       0.780  -4.979  -1.271  0.00  0.00    +0.072 S 
ATOM     25  O   UNL     1       0.556  -6.363  -1.040  0.00  0.00    -0.150 OA
ATOM     26  O   UNL     1       0.369  -4.331  -2.467  0.00  0.00    -0.150 OA
BRANCH  24  27
ATOM     27  N   UNL     1       0.058  -4.167  -0.021  0.00  0.00    -0.216 N 
ATOM     28  H   UNL     1      -0.470  -4.653   0.632  0.00  0.00    +0.174 HD
BRANCH  27  33
ATOM     29  C   UNL     1       0.671   1.451   0.442  0.00  0.00    +0.044 C 
ATOM     30  C   UNL     1       0.508  -0.042   0.319  0.00  0.00    -0.050 A 
ATOM     31  C   UNL     1       0.416  -0.625  -0.932  0.00  0.00    +0.005 A 
ATOM     32  C   UNL     1       0.267  -1.993  -1.048  0.00  0.00    +0.025 A 
ATOM     33  C   UNL     1       0.209  -2.784   0.093  0.00  0.00    +0.051 A 
ATOM     34  C   UNL     1       0.302  -2.195   1.347  0.00  0.00    -0.028 A 
ATOM     35  C   UNL     1       0.457  -0.826   1.456  0.00  0.00    +0.008 A 
ATOM     36  C   UNL     1       0.239  -3.048   2.588  0.00  0.00    +0.046 C 
ENDBRANCH  27  33
ENDBRANCH  24  27
ENDBRANCH   1  24
TORSDOF 6
