REMARK  Name = ZINC33904211
REMARK  9 active torsions:
REMARK  status: ('A' for Active; 'I' for Inactive)
REMARK    1  A    between atoms: C_1  and  C_2
REMARK    2  A    between atoms: C_4  and  C_34
REMARK    3  A    between atoms: C_5  and  C_9
REMARK    4  A    between atoms: C_6  and  C_8
REMARK    5  A    between atoms: N_10  and  N_11
REMARK    6  A    between atoms: C_12  and  C_14
REMARK    7  A    between atoms: C_15  and  C_25
REMARK    8  A    between atoms: C_25  and  N_26
REMARK    9  A    between atoms: C_31  and  C_33
REMARK                            x       y       z     vdW  Elec       q    Type
REMARK                         _______ _______ _______ _____ _____    ______ ____
ROOT
ATOM      1  C   UNL     1      -0.087  -4.089   4.903  0.00  0.00    +0.170 A 
ATOM      2  C   UNL     1      -0.029  -4.615   6.162  0.00  0.00    +0.063 A 
ATOM      3  N   UNL     1      -0.239  -3.594   7.022  0.00  0.00    -0.194 N 
ATOM      4  N   UNL     1      -0.424  -2.442   6.245  0.00  0.00    -0.058 NA
ATOM      5  N   UNL     1      -0.324  -2.769   5.004  0.00  0.00    -0.124 NA
ATOM      6  C   UNL     1      -0.266  -3.671   8.419  0.00  0.00    +0.240 A 
ATOM      7  C   UNL     1      -0.502  -2.552   9.336  0.00  0.00    +0.206 A 
ATOM      8  N   UNL     1      -0.455  -3.006  10.558  0.00  0.00    -0.032 NA
ATOM      9  O   UNL     1      -0.195  -4.397  10.495  0.00  0.00    -0.239 OA
ATOM     10  N   UNL     1      -0.092  -4.751   9.127  0.00  0.00    -0.027 NA
ATOM     11  N   UNL     1      -0.735  -1.232   8.966  0.00  0.00    -0.337 N 
ATOM     12  H   UNL     1      -0.751  -0.987   8.028  0.00  0.00    +0.144 HD
ATOM     13  H   UNL     1      -0.881  -0.556   9.647  0.00  0.00    +0.144 HD
ENDROOT
BRANCH   1  15
ATOM     14  N   UNL     1      -0.097  -4.223   2.462  0.00  0.00    -0.202 N 
ATOM     15  C   UNL     1       0.087  -4.840   3.646  0.00  0.00    +0.285 C 
ATOM     16  O   UNL     1       0.396  -6.016   3.678  0.00  0.00    -0.267 OA
ATOM     17  H   UNL     1      -0.277  -3.271   2.434  0.00  0.00    +0.178 HD
BRANCH  14  19
ATOM     18  C   UNL     1      -0.102  -4.350   0.127  0.00  0.00    +0.138 C 
ATOM     19  N   UNL     1      -0.026  -4.958   1.271  0.00  0.00    -0.187 NA
BRANCH  18  24
ATOM     20  C   UNL     1      -0.157   1.398  -0.075  0.00  0.00    +0.044 C 
ATOM     21  C   UNL     1      -0.142  -0.108  -0.022  0.00  0.00    -0.050 A 
ATOM     22  C   UNL     1       0.901  -0.765   0.605  0.00  0.00    +0.007 A 
ATOM     23  C   UNL     1       0.921  -2.144   0.658  0.00  0.00    -0.041 A 
ATOM     24  C   UNL     1      -0.117  -2.876   0.076  0.00  0.00    +0.000 A 
ATOM     25  C   UNL     1      -1.167  -2.206  -0.556  0.00  0.00    -0.041 A 
ATOM     26  C   UNL     1      -1.176  -0.827  -0.596  0.00  0.00    +0.007 A 
ATOM     27  C   UNL     1      -2.290  -2.987  -1.187  0.00  0.00    +0.044 C 
ATOM     28  C   UNL     1       2.059  -2.857   1.341  0.00  0.00    +0.044 C 
ENDBRANCH  18  24
ENDBRANCH  14  19
ENDBRANCH   1  15
BRANCH   2  29
ATOM     29  C   UNL     1       0.222  -6.057   6.523  0.00  0.00    -0.019 C 
BRANCH  29  30
ATOM     30  N   UNL     1      -1.059  -6.772   6.600  0.00  0.00    +0.385 N 
ATOM     31  C   UNL     1      -1.683  -6.798   5.272  0.00  0.00    -0.078 C 
ATOM     32  C   UNL     1      -3.055  -7.471   5.362  0.00  0.00    -0.019 C 
ATOM     33  C   UNL     1      -2.882  -8.903   5.875  0.00  0.00    -0.003 C 
ATOM     34  C   UNL     1      -2.163  -8.868   7.226  0.00  0.00    -0.016 C 
ATOM     35  C   UNL     1      -0.825  -8.143   7.067  0.00  0.00    -0.071 C 
ATOM     36  C   UNL     1      -0.102  -8.106   8.416  0.00  0.00    -0.013 C 
ATOM     37  H   UNL     1      -1.670  -6.297   7.247  0.00  0.00    -0.081 HD
ENDBRANCH  29  30
ENDBRANCH   2  29
TORSDOF 5
