REMARK  Name = ZINC06825179
REMARK  10 active torsions:
REMARK  status: ('A' for Active; 'I' for Inactive)
REMARK    1  A    between atoms: C_1  and  C_2
REMARK    2  A    between atoms: C_3  and  N_11
REMARK    3  A    between atoms: C_7  and  N_8
REMARK    4  A    between atoms: C_12  and  C_14
REMARK    5  A    between atoms: C_14  and  S_15
REMARK    6  A    between atoms: S_15  and  C_16
REMARK    7  A    between atoms: C_19  and  C_22
REMARK    8  A    between atoms: C_22  and  C_23
REMARK    9  A    between atoms: C_22  and  C_24
REMARK   10  A    between atoms: C_22  and  C_25
REMARK                            x       y       z     vdW  Elec       q    Type
REMARK                         _______ _______ _______ _____ _____    ______ ____
ROOT
ATOM      1  N   UNL     1      -0.411   0.193  -2.476  0.00  0.00    -0.285 N 
ATOM      2  C   UNL     1      -0.694  -0.488  -3.604  0.00  0.00    +0.227 C 
ATOM      3  O   UNL     1      -0.662  -1.700  -3.606  0.00  0.00    -0.275 OA
ATOM      4  H   UNL     1      -0.384   1.162  -2.489  0.00  0.00    +0.155 HD
ENDROOT
BRANCH   1   7
ATOM      5  C   UNL     1      -1.255   1.371  -0.027  0.00  0.00    +0.048 C 
ATOM      6  C   UNL     1      -0.550   0.040  -0.070  0.00  0.00    +0.001 A 
ATOM      7  C   UNL     1      -0.155  -0.499  -1.287  0.00  0.00    +0.038 A 
ATOM      8  C   UNL     1       0.495  -1.726  -1.322  0.00  0.00    +0.024 A 
ATOM      9  C   UNL     1       0.746  -2.407  -0.147  0.00  0.00    +0.004 A 
ATOM     10  C   UNL     1       0.350  -1.868   1.064  0.00  0.00    +0.033 A 
ATOM     11  C   UNL     1      -0.292  -0.643   1.102  0.00  0.00    +0.131 A 
BRANCH  11  12
ATOM     12  N   UNL     1      -0.707  -0.067   2.401  0.00  0.00    +0.057 N 
ATOM     13  O   UNL     1      -0.803   1.131   2.527  0.00  0.00    -0.126 OA
ATOM     14  O   UNL     1      -0.951  -0.795   3.335  0.00  0.00    -0.126 OA
ENDBRANCH  11  12
ENDBRANCH   1   7
BRANCH   2  15
ATOM     15  C   UNL     1      -1.050   0.257  -4.865  0.00  0.00    +0.170 C 
BRANCH  15  16
ATOM     16  S   UNL     1      -1.375  -0.929  -6.198  0.00  0.00    -0.116 S 
BRANCH  16  17
ATOM     17  C   UNL     1      -1.772   0.084  -7.583  0.00  0.00    +0.008 A 
ATOM     18  C   UNL     1      -1.769   1.468  -7.458  0.00  0.00    +0.015 A 
ATOM     19  C   UNL     1      -2.081   2.259  -8.546  0.00  0.00    +0.005 A 
ATOM     20  C   UNL     1      -2.396   1.675  -9.760  0.00  0.00    -0.042 A 
ATOM     21  C   UNL     1      -2.400   0.298  -9.888  0.00  0.00    +0.005 A 
ATOM     22  C   UNL     1      -2.083  -0.499  -8.806  0.00  0.00    +0.015 A 
BRANCH  20  23
ATOM     23  C   UNL     1      -2.736   2.542 -10.945  0.00  0.00    -0.013 C 
ATOM     24  C   UNL     1      -1.549   3.453 -11.268  0.00  0.00    +0.015 C 
ATOM     25  C   UNL     1      -3.042   1.656 -12.153  0.00  0.00    +0.015 C 
ATOM     26  C   UNL     1      -3.960   3.398 -10.616  0.00  0.00    +0.015 C 
ENDBRANCH  20  23
ENDBRANCH  16  17
ENDBRANCH  15  16
ENDBRANCH   2  15
TORSDOF 6
