REMARK  Name = ZINC36601339
REMARK  15 active torsions:
REMARK  status: ('A' for Active; 'I' for Inactive)
REMARK    1  A    between atoms: C_1  and  C_2
REMARK    2  A    between atoms: C_5  and  C_7
REMARK    3  A    between atoms: C_7  and  N_8
REMARK    4  A    between atoms: N_8  and  C_9
REMARK    5  A    between atoms: C_9  and  C_11
REMARK    6  A    between atoms: C_9  and  C_20
REMARK    7  A    between atoms: C_12  and  O_19
REMARK    8  A    between atoms: C_14  and  O_18
REMARK    9  A    between atoms: C_16  and  O_17
REMARK   10  A    between atoms: N_22  and  C_23
REMARK   11  A    between atoms: C_23  and  C_24
REMARK   12  A    between atoms: C_23  and  C_25
REMARK   13  A    between atoms: C_23  and  C_26
REMARK   14  A    between atoms: C_27  and  C_29
REMARK   15  A    between atoms: C_33  and  N_35
REMARK                            x       y       z     vdW  Elec       q    Type
REMARK                         _______ _______ _______ _____ _____    ______ ____
ROOT
ATOM      1  C   UNL     1       1.968  -2.744  -2.781  0.00  0.00    +0.200 C 
ENDROOT
BRANCH   1   2
ATOM      2  C   UNL     1       3.316  -2.526  -2.145  0.00  0.00    +0.065 A 
ATOM      3  C   UNL     1       4.444  -2.387  -2.940  0.00  0.00    +0.129 A 
ATOM      4  C   UNL     1       5.685  -2.186  -2.354  0.00  0.00    +0.091 A 
ATOM      5  C   UNL     1       5.798  -2.124  -0.974  0.00  0.00    +0.124 A 
ATOM      6  C   UNL     1       4.670  -2.262  -0.178  0.00  0.00    +0.091 A 
ATOM      7  C   UNL     1       3.429  -2.459  -0.764  0.00  0.00    +0.129 A 
BRANCH   7   8
ATOM      8  O   UNL     1       2.323  -2.590   0.015  0.00  0.00    -0.506 OA
ATOM      9  H   UNL     1       2.130  -3.502   0.273  0.00  0.00    +0.292 HD
ENDBRANCH   7   8
BRANCH   5  10
ATOM     10  O   UNL     1       7.014  -1.928  -0.400  0.00  0.00    -0.507 OA
ATOM     11  H   UNL     1       7.239  -0.997  -0.262  0.00  0.00    +0.292 HD
ENDBRANCH   5  10
BRANCH   3  12
ATOM     12  O   UNL     1       4.333  -2.447  -4.293  0.00  0.00    -0.506 OA
ATOM     13  H   UNL     1       4.216  -1.586  -4.717  0.00  0.00    +0.292 HD
ENDBRANCH   3  12
ENDBRANCH   1   2
BRANCH   1  14
ATOM     14  C   UNL     1       1.660  -1.600  -3.712  0.00  0.00    +0.239 C 
ATOM     15  O   UNL     1       1.181  -0.575  -3.275  0.00  0.00    -0.273 OA
ATOM     16  N   UNL     1       1.918  -1.715  -5.029  0.00  0.00    -0.309 N 
ATOM     17  H   UNL     1       2.302  -2.534  -5.379  0.00  0.00    +0.149 HD
BRANCH  16  18
ATOM     18  C   UNL     1       1.619  -0.602  -5.934  0.00  0.00    +0.026 C 
ATOM     19  C   UNL     1       2.418   0.631  -5.508  0.00  0.00    +0.031 C 
ATOM     20  C   UNL     1       2.004  -0.990  -7.364  0.00  0.00    +0.031 C 
ATOM     21  C   UNL     1       0.123  -0.286  -5.877  0.00  0.00    +0.031 C 
ENDBRANCH  16  18
ENDBRANCH   1  14
BRANCH   1  22
ATOM     22  N   UNL     1       0.941  -2.815  -1.738  0.00  0.00    -0.274 N 
ATOM     23  C   UNL     1       0.363  -3.996  -1.440  0.00  0.00    +0.248 C 
ATOM     24  O   UNL     1      -0.471  -4.059  -0.558  0.00  0.00    -0.270 OA
BRANCH  23  25
ATOM     25  C   UNL     1       0.743  -5.214  -2.187  0.00  0.00    +0.039 A 
ATOM     26  C   UNL     1       2.076  -5.433  -2.540  0.00  0.00    +0.013 A 
ATOM     27  C   UNL     1       2.424  -6.571  -3.236  0.00  0.00    +0.003 A 
ATOM     28  C   UNL     1       1.455  -7.496  -3.585  0.00  0.00    +0.033 A 
ATOM     29  C   UNL     1       0.132  -7.285  -3.238  0.00  0.00    +0.127 A 
ATOM     30  C   UNL     1      -0.228  -6.153  -2.537  0.00  0.00    +0.045 A 
BRANCH  29  31
ATOM     31  N   UNL     1      -0.897  -8.279  -3.616  0.00  0.00    +0.056 N 
ATOM     32  O   UNL     1      -0.582  -9.274  -4.226  0.00  0.00    -0.126 OA
ATOM     33  O   UNL     1      -2.054  -8.097  -3.313  0.00  0.00    -0.126 OA
ENDBRANCH  29  31
ENDBRANCH  23  25
BRANCH  22  34
ATOM     34  C   UNL     1       0.544  -1.603  -1.018  0.00  0.00    +0.183 C 
BRANCH  34  39
ATOM     35  C   UNL     1      -3.375   0.574  -3.331  0.00  0.00    +0.086 C 
ATOM     36  C   UNL     1      -2.576  -0.294  -2.393  0.00  0.00    +0.102 A 
ATOM     37  C   UNL     1      -3.083  -1.127  -1.467  0.00  0.00    +0.045 A 
ATOM     38  C   UNL     1      -1.985  -1.737  -0.819  0.00  0.00    +0.046 A 
ATOM     39  C   UNL     1      -0.872  -1.241  -1.388  0.00  0.00    +0.122 A 
ATOM     40  O   UNL     1      -1.236  -0.371  -2.345  0.00  0.00    -0.463 OA
ENDBRANCH  34  39
ENDBRANCH  22  34
ENDBRANCH   1  22
TORSDOF 11
