REMARK  Name = ZINC04235610
REMARK  7 active torsions:
REMARK  status: ('A' for Active; 'I' for Inactive)
REMARK    1  A    between atoms: C_1  and  N_2
REMARK    2  A    between atoms: N_2  and  C_3
REMARK    3  A    between atoms: N_2  and  C_4
REMARK    4  A    between atoms: C_7  and  C_10
REMARK    5  A    between atoms: C_12  and  C_25
REMARK    6  A    between atoms: C_13  and  N_24
REMARK    7  A    between atoms: C_17  and  C_19
REMARK                            x       y       z     vdW  Elec       q    Type
REMARK                         _______ _______ _______ _____ _____    ______ ____
ROOT
ATOM      1  C   UNL     1      -0.006  -2.813  -4.924  0.00  0.00    +0.147 C 
ATOM      2  C   UNL     1      -1.411  -2.869  -5.462  0.00  0.00    +0.093 C 
ATOM      3  C   UNL     1      -1.877  -1.935  -6.342  0.00  0.00    +0.137 C 
ATOM      4  N   UNL     1      -1.002  -0.955  -6.771  0.00  0.00    -0.185 N 
ATOM      5  C   UNL     1       0.349  -1.045  -6.555  0.00  0.00    +0.221 A 
ATOM      6  N   UNL     1       0.906   0.009  -7.077  0.00  0.00    -0.189 NA
ATOM      7  C   UNL     1      -0.036   0.790  -7.622  0.00  0.00    +0.257 A 
ATOM      8  N   UNL     1      -1.212   0.237  -7.454  0.00  0.00    -0.138 NA
ATOM      9  N   UNL     1       0.883  -2.126  -5.876  0.00  0.00    -0.302 N 
ATOM     10  H   UNL     1       1.798  -2.417  -6.020  0.00  0.00    +0.150 HD
ENDROOT
BRANCH   1  14
ATOM     11  C   UNL     1       0.000  -0.696  -1.211  0.00  0.00    +0.029 A 
ATOM     12  C   UNL     1       0.013  -2.085  -1.221  0.00  0.00    +0.023 A 
ATOM     13  C   UNL     1       0.010  -2.766  -2.422  0.00  0.00    +0.007 A 
ATOM     14  C   UNL     1      -0.005  -2.066  -3.615  0.00  0.00    -0.022 A 
ATOM     15  C   UNL     1      -0.018  -0.684  -3.609  0.00  0.00    +0.007 A 
ATOM     16  C   UNL     1      -0.021   0.004  -2.411  0.00  0.00    +0.023 A 
BRANCH  11  18
ATOM     17  C   UNL     1      -0.018   1.461   0.010  0.00  0.00    +0.129 C 
ATOM     18  N   UNL     1       0.002  -0.004   0.002  0.00  0.00    -0.336 N 
ATOM     19  C   UNL     1       0.024  -0.743   1.267  0.00  0.00    +0.129 C 
ENDBRANCH  11  18
ENDBRANCH   1  14
BRANCH   7  20
ATOM     20  C   UNL     1       0.218   2.102  -8.319  0.00  0.00    +0.454 C 
ATOM     21  F   UNL     1       1.581   2.217  -8.615  0.00  0.00    -0.163 F 
ATOM     22  F   UNL     1      -0.522   2.150  -9.505  0.00  0.00    -0.163 F 
ATOM     23  F   UNL     1      -0.169   3.156  -7.485  0.00  0.00    -0.163 F 
ENDBRANCH   7  20
BRANCH   3  24
ATOM     24  N   UNL     1      -3.176  -1.970  -6.789  0.00  0.00    -0.342 N 
ATOM     25  H   UNL     1      -3.778  -2.665  -6.479  0.00  0.00    +0.144 HD
ATOM     26  H   UNL     1      -3.492  -1.299  -7.415  0.00  0.00    +0.144 HD
ENDBRANCH   3  24
BRANCH   2  27
ATOM     27  C   UNL     1      -2.279  -3.927  -5.041  0.00  0.00    +0.100 C 
ATOM     28  N   UNL     1      -2.967  -4.766  -4.706  0.00  0.00    -0.191 NA
ENDBRANCH   2  27
TORSDOF 5
