REMARK  Name = ZINC39676331
REMARK  9 active torsions:
REMARK  status: ('A' for Active; 'I' for Inactive)
REMARK    1  A    between atoms: C_1  and  C_2
REMARK    2  A    between atoms: C_2  and  C_3
REMARK    3  A    between atoms: C_2  and  C_4
REMARK    4  A    between atoms: C_4  and  C_6
REMARK    5  A    between atoms: C_4  and  O_35
REMARK    6  A    between atoms: C_10  and  C_19
REMARK    7  A    between atoms: N_21  and  C_22
REMARK    8  A    between atoms: C_22  and  C_23
REMARK    9  A    between atoms: O_35  and  C_36
REMARK                            x       y       z     vdW  Elec       q    Type
REMARK                         _______ _______ _______ _____ _____    ______ ____
ROOT
ATOM      1  C   UNL     1       0.379  -1.574  -1.140  0.00  0.00    +0.257 C 
ATOM      2  O   UNL     1       1.307  -2.341  -0.996  0.00  0.00    -0.272 OA
ATOM      3  N   UNL     1      -0.868  -2.052  -1.326  0.00  0.00    -0.297 N 
ATOM      4  C   UNL     1      -2.097  -1.285  -1.637  0.00  0.00    +0.121 C 
ATOM      5  C   UNL     1      -2.856  -2.162  -2.658  0.00  0.00    +0.100 C 
ATOM      6  C   UNL     1      -2.342  -3.590  -2.409  0.00  0.00    -0.004 C 
ATOM      7  C   UNL     1      -1.317  -3.464  -1.272  0.00  0.00    +0.115 C 
ATOM      8  C   UNL     1      -1.665  -4.135  -3.663  0.00  0.00    -0.010 C 
ATOM      9  C   UNL     1      -1.213  -5.575  -3.408  0.00  0.00    -0.082 C 
ATOM     10  N   UNL     1      -2.376  -6.400  -3.057  0.00  0.00    +0.379 N 
ATOM     11  C   UNL     1      -2.966  -5.926  -1.800  0.00  0.00    -0.082 C 
ATOM     12  C   UNL     1      -3.491  -4.499  -1.986  0.00  0.00    -0.010 C 
ATOM     13  H   UNL     1      -3.063  -6.340  -3.793  0.00  0.00    -0.086 HD
ATOM     14  H   UNL     1      -2.085  -7.360  -2.950  0.00  0.00    -0.086 HD
ENDROOT
BRANCH   5  15
ATOM     15  C   UNL     1      -4.341  -2.086  -2.414  0.00  0.00    +0.219 C 
ATOM     16  O   UNL     1      -4.761  -1.833  -1.305  0.00  0.00    -0.275 OA
ATOM     17  N   UNL     1      -5.203  -2.300  -3.428  0.00  0.00    -0.308 N 
ATOM     18  H   UNL     1      -4.867  -2.502  -4.315  0.00  0.00    +0.149 HD
BRANCH  17  19
ATOM     19  C   UNL     1      -6.646  -2.226  -3.191  0.00  0.00    +0.178 C 
BRANCH  19  20
ATOM     20  C   UNL     1      -7.382  -2.502  -4.477  0.00  0.00    +0.128 A 
ATOM     21  N   UNL     1      -8.740  -2.473  -4.461  0.00  0.00    -0.309 N 
ATOM     22  H   UNL     1      -9.207  -2.279  -3.634  0.00  0.00    +0.170 HD
ATOM     23  C   UNL     1      -9.447  -2.714  -5.590  0.00  0.00    +0.259 A 
ATOM     24  O   UNL     1     -10.664  -2.691  -5.591  0.00  0.00    -0.267 OA
ATOM     25  C   UNL     1      -8.688  -3.003  -6.816  0.00  0.00    +0.065 A 
ATOM     26  C   UNL     1      -9.320  -3.265  -8.030  0.00  0.00    +0.015 A 
ATOM     27  C   UNL     1      -8.559  -3.531  -9.147  0.00  0.00    +0.001 A 
ATOM     28  C   UNL     1      -7.172  -3.540  -9.072  0.00  0.00    +0.002 A 
ATOM     29  C   UNL     1      -6.529  -3.284  -7.882  0.00  0.00    +0.028 A 
ATOM     30  C   UNL     1      -7.278  -3.012  -6.735  0.00  0.00    +0.078 A 
ATOM     31  N   UNL     1      -6.685  -2.749  -5.544  0.00  0.00    -0.232 NA
ENDBRANCH  19  20
ENDBRANCH  17  19
ENDBRANCH   5  15
BRANCH   1  32
ATOM     32  C   UNL     1       0.619  -0.087  -1.111  0.00  0.00    +0.261 C 
BRANCH  32  34
ATOM     33  C   UNL     1       0.507   1.969   0.304  0.00  0.00    +0.011 C 
ATOM     34  C   UNL     1       0.319   0.451   0.290  0.00  0.00    +0.033 C 
ATOM     35  C   UNL     1      -1.124   0.112   0.668  0.00  0.00    +0.011 C 
ENDBRANCH  32  34
BRANCH  32  36
ATOM     36  O   UNL     1       1.983   0.182  -1.443  0.00  0.00    -0.479 OA
BRANCH  36  37
ATOM     37  C   UNL     1       2.221   1.233  -2.271  0.00  0.00    +0.122 A 
ATOM     38  C   UNL     1       3.505   1.475  -2.735  0.00  0.00    +0.045 A 
ATOM     39  C   UNL     1       3.744   2.544  -3.577  0.00  0.00    +0.004 A 
ATOM     40  C   UNL     1       2.705   3.373  -3.957  0.00  0.00    +0.000 A 
ATOM     41  C   UNL     1       1.423   3.134  -3.495  0.00  0.00    +0.004 A 
ATOM     42  C   UNL     1       1.178   2.063  -2.657  0.00  0.00    +0.045 A 
ENDBRANCH  36  37
ENDBRANCH  32  36
ENDBRANCH   1  32
TORSDOF 7
