REMARK  Name = ZINC48342005
REMARK  7 active torsions:
REMARK  status: ('A' for Active; 'I' for Inactive)
REMARK    1  A    between atoms: C_1  and  C_2
REMARK    2  A    between atoms: C_2  and  C_3
REMARK    3  A    between atoms: C_2  and  C_4
REMARK    4  A    between atoms: C_4  and  C_25
REMARK    5  A    between atoms: N_5  and  N_6
REMARK    6  A    between atoms: C_7  and  C_9
REMARK    7  A    between atoms: C_11  and  C_19
REMARK                            x       y       z     vdW  Elec       q    Type
REMARK                         _______ _______ _______ _____ _____    ______ ____
ROOT
ATOM      1  C   UNL     1      -4.993  -2.891   2.097  0.00  0.00    +0.050 A 
ATOM      2  C   UNL     1      -5.878  -2.580   1.075  0.00  0.00    +0.042 A 
ATOM      3  C   UNL     1      -7.187  -3.083   1.118  0.00  0.00    +0.072 A 
ATOM      4  N   UNL     1      -7.601  -3.848   2.108  0.00  0.00    -0.247 NA
ATOM      5  C   UNL     1      -6.799  -4.182   3.120  0.00  0.00    +0.072 A 
ATOM      6  C   UNL     1      -5.460  -3.720   3.150  0.00  0.00    +0.013 A 
ATOM      7  C   UNL     1      -4.624  -4.082   4.214  0.00  0.00    +0.011 A 
ATOM      8  C   UNL     1      -5.106  -4.880   5.209  0.00  0.00    +0.001 A 
ATOM      9  C   UNL     1      -6.420  -5.341   5.181  0.00  0.00    +0.002 A 
ATOM     10  C   UNL     1      -7.262  -5.000   4.169  0.00  0.00    +0.028 A 
ENDROOT
BRANCH   3  11
ATOM     11  C   UNL     1      -8.128  -2.746   0.022  0.00  0.00    +0.003 A 
ATOM     12  C   UNL     1      -7.725  -1.943  -1.049  0.00  0.00    +0.030 A 
ATOM     13  C   UNL     1      -8.632  -1.655  -2.048  0.00  0.00    +0.111 A 
ATOM     14  N   UNL     1      -9.864  -2.125  -2.001  0.00  0.00    -0.263 NA
ATOM     15  C   UNL     1     -10.284  -2.886  -1.009  0.00  0.00    +0.111 A 
ATOM     16  C   UNL     1      -9.440  -3.228   0.028  0.00  0.00    +0.030 A 
ENDBRANCH   3  11
BRANCH   1  18
ATOM     17  N   UNL     1      -3.147  -1.698   1.018  0.00  0.00    -0.203 N 
ATOM     18  C   UNL     1      -3.606  -2.379   2.087  0.00  0.00    +0.264 C 
ATOM     19  O   UNL     1      -2.880  -2.573   3.042  0.00  0.00    -0.268 OA
ATOM     20  H   UNL     1      -3.727  -1.543   0.256  0.00  0.00    +0.178 HD
BRANCH  17  22
ATOM     21  C   UNL     1      -1.397  -0.565  -0.007  0.00  0.00    +0.036 C 
ATOM     22  N   UNL     1      -1.833  -1.213   1.008  0.00  0.00    -0.189 NA
ATOM     23  C   UNL     1      -2.298  -0.325  -1.191  0.00  0.00    +0.062 C 
BRANCH  21  25
ATOM     24  C   UNL     1      -0.004   1.486  -0.039  0.00  0.00    +0.013 C 
ATOM     25  C   UNL     1       0.017  -0.044  -0.018  0.00  0.00    +0.029 C 
ATOM     26  C   UNL     1       0.748  -0.527   1.237  0.00  0.00    +0.013 C 
ENDBRANCH  21  25
ENDBRANCH  17  22
ENDBRANCH   1  18
TORSDOF 4
