REMARK  Name = ZINC44977640
REMARK  4 active torsions:
REMARK  status: ('A' for Active; 'I' for Inactive)
REMARK    1  A    between atoms: C_7  and  N_23
REMARK    2  A    between atoms: C_9  and  C_11
REMARK    3  A    between atoms: C_11  and  N_12
REMARK    4  A    between atoms: C_16  and  C_18
REMARK                            x       y       z     vdW  Elec       q    Type
REMARK                         _______ _______ _______ _____ _____    ______ ____
ROOT
ATOM      1  C   UNL     1      -0.016   1.360   0.009  0.00  0.00    +0.001 A 
ATOM      2  C   UNL     1       1.168   2.091   0.002  0.00  0.00    +0.002 A 
ATOM      3  C   UNL     1       2.380   1.466  -0.013  0.00  0.00    +0.028 A 
ATOM      4  C   UNL     1       2.436   0.065  -0.021  0.00  0.00    +0.076 A 
ATOM      5  C   UNL     1       1.229  -0.676  -0.013  0.00  0.00    +0.040 A 
ATOM      6  C   UNL     1       0.002  -0.004   0.002  0.00  0.00    +0.013 A 
ATOM      7  C   UNL     1       1.313  -2.090  -0.021  0.00  0.00    +0.127 A 
ATOM      8  N   UNL     1       2.518  -2.646  -0.035  0.00  0.00    -0.219 NA
ATOM      9  C   UNL     1       3.618  -1.911  -0.042  0.00  0.00    +0.115 A 
ATOM     10  N   UNL     1       3.600  -0.599  -0.035  0.00  0.00    -0.234 NA
ENDROOT
BRANCH   7  11
ATOM     11  N   UNL     1       0.175  -2.867  -0.014  0.00  0.00    -0.343 N 
ATOM     12  H   UNL     1      -0.699  -2.447  -0.003  0.00  0.00    +0.144 HD
ATOM     13  H   UNL     1       0.248  -3.834  -0.019  0.00  0.00    +0.144 HD
ENDBRANCH   7  11
BRANCH   9  14
ATOM     14  C   UNL     1       4.952  -2.612  -0.057  0.00  0.00    -0.000 C 
BRANCH  14  15
ATOM     15  N   UNL     1       5.372  -2.834  -1.447  0.00  0.00    +0.389 N 
ATOM     16  C   UNL     1       5.630  -1.534  -2.102  0.00  0.00    -0.077 C 
ATOM     17  C   UNL     1       7.157  -1.317  -1.963  0.00  0.00    -0.020 C 
ATOM     18  C   UNL     1       7.697  -2.759  -2.149  0.00  0.00    -0.013 C 
ATOM     19  C   UNL     1       6.616  -3.625  -1.469  0.00  0.00    -0.037 C 
ATOM     20  H   UNL     1       4.648  -3.327  -1.947  0.00  0.00    -0.080 HD
BRANCH  19  21
ATOM     21  C   UNL     1       6.404  -4.893  -2.256  0.00  0.00    -0.054 A 
ATOM     22  C   UNL     1       6.948  -6.087  -1.823  0.00  0.00    +0.009 A 
ATOM     23  C   UNL     1       6.738  -7.209  -2.554  0.00  0.00    +0.045 A 
ATOM     24  S   UNL     1       5.745  -6.590  -3.903  0.00  0.00    -0.105 S 
ATOM     25  C   UNL     1       5.672  -4.879  -3.397  0.00  0.00    +0.047 A 
ENDBRANCH  19  21
ENDBRANCH  14  15
ENDBRANCH   9  14
TORSDOF 4
