REMARK  Name = ZINC67052228
REMARK  5 active torsions:
REMARK  status: ('A' for Active; 'I' for Inactive)
REMARK    1  A    between atoms: C_3  and  C_11
REMARK    2  A    between atoms: N_13  and  C_14
REMARK    3  A    between atoms: C_17  and  C_20
REMARK    4  A    between atoms: C_21  and  C_22
REMARK    5  A    between atoms: C_21  and  C_24
REMARK                            x       y       z     vdW  Elec       q    Type
REMARK                         _______ _______ _______ _____ _____    ______ ____
ROOT
ATOM      1  C   UNL     1       4.701   5.043  -1.065  0.00  0.00    +0.034 A 
ATOM      2  C   UNL     1       4.989   6.406  -1.066  0.00  0.00    +0.024 A 
ATOM      3  C   UNL     1       6.194   6.853  -0.604  0.00  0.00    +0.010 A 
ATOM      4  C   UNL     1       7.142   5.936  -0.127  0.00  0.00    -0.024 A 
ATOM      5  C   UNL     1       6.847   4.564  -0.128  0.00  0.00    +0.010 A 
ATOM      6  C   UNL     1       5.637   4.129  -0.587  0.00  0.00    +0.024 A 
ENDROOT
BRANCH   1   9
ATOM      7  C   UNL     1       2.852   3.562  -0.929  0.00  0.00    +0.252 C 
ATOM      8  O   UNL     1       3.392   2.990  -0.002  0.00  0.00    -0.270 OA
ATOM      9  N   UNL     1       3.471   4.594  -1.537  0.00  0.00    -0.281 N 
ATOM     10  H   UNL     1       3.059   5.023  -2.303  0.00  0.00    +0.155 HD
BRANCH   7  13
ATOM     11  C   UNL     1      -0.348   3.373  -2.881  0.00  0.00    +0.005 A 
ATOM     12  C   UNL     1       0.896   3.783  -2.454  0.00  0.00    +0.017 A 
ATOM     13  C   UNL     1       1.520   3.127  -1.389  0.00  0.00    +0.082 A 
ATOM     14  C   UNL     1       0.874   2.055  -0.759  0.00  0.00    +0.174 A 
ATOM     15  C   UNL     1      -0.382   1.654  -1.199  0.00  0.00    +0.163 A 
ATOM     16  C   UNL     1      -0.987   2.313  -2.258  0.00  0.00    +0.049 A 
ATOM     17  O   UNL     1      -1.032   0.620  -0.599  0.00  0.00    -0.485 OA
ATOM     18  C   UNL     1      -0.239  -0.254   0.213  0.00  0.00    +0.270 C 
ATOM     19  C   UNL     1       0.657   0.608   1.112  0.00  0.00    +0.270 C 
ATOM     20  O   UNL     1       1.486   1.419   0.273  0.00  0.00    -0.484 OA
ENDBRANCH   7  13
ENDBRANCH   1   9
BRANCH   4  21
ATOM     21  C   UNL     1       8.436   6.409   0.370  0.00  0.00    +0.032 C 
ATOM     22  C   UNL     1       8.501   7.536   1.160  0.00  0.00    +0.114 C 
BRANCH  22  23
ATOM     23  C   UNL     1       7.284   8.050   1.809  0.00  0.00    +0.252 C 
ATOM     24  O   UNL     1       6.242   7.428   1.727  0.00  0.00    -0.270 OA
ATOM     25  N   UNL     1       7.325   9.210   2.494  0.00  0.00    -0.325 N 
ATOM     26  H   UNL     1       8.156   9.706   2.560  0.00  0.00    +0.145 HD
ATOM     27  H   UNL     1       6.524   9.549   2.922  0.00  0.00    +0.145 HD
ENDBRANCH  22  23
BRANCH  22  28
ATOM     28  C   UNL     1       9.751   8.207   1.348  0.00  0.00    +0.104 C 
ATOM     29  N   UNL     1      10.743   8.740   1.498  0.00  0.00    -0.191 NA
ENDBRANCH  22  28
ENDBRANCH   4  21
TORSDOF 5
