REMARK  Name = ZINC16495948
REMARK  12 active torsions:
REMARK  status: ('A' for Active; 'I' for Inactive)
REMARK    1  A    between atoms: C_1  and  C_2
REMARK    2  A    between atoms: C_2  and  C_3
REMARK    3  A    between atoms: C_3  and  C_5
REMARK    4  A    between atoms: C_3  and  N_6
REMARK    5  A    between atoms: C_7  and  C_9
REMARK    6  A    between atoms: N_21  and  C_22
REMARK    7  A    between atoms: C_23  and  C_31
REMARK    8  A    between atoms: C_27  and  C_28
REMARK    9  A    between atoms: C_28  and  C_29
REMARK   10  A    between atoms: C_28  and  C_30
REMARK   11  A    between atoms: C_31  and  C_32
REMARK   12  A    between atoms: C_31  and  C_33
REMARK                            x       y       z     vdW  Elec       q    Type
REMARK                         _______ _______ _______ _____ _____    ______ ____
ROOT
ATOM      1  C   UNL     1       1.396   1.842  -0.070  0.00  0.00    +0.028 C 
ATOM      2  C   UNL     1       2.070   2.540  -1.290  0.00  0.00    +0.061 C 
ATOM      3  S   UNL     1       0.622   3.491  -1.928  0.00  0.00    -0.174 S 
ATOM      4  C   UNL     1      -0.709   2.512  -1.128  0.00  0.00    -0.016 C 
ATOM      5  C   UNL     1      -1.447   3.373  -0.115  0.00  0.00    +0.017 C 
ATOM      6  C   UNL     1      -2.532   2.536   0.572  0.00  0.00    +0.109 C 
ATOM      7  N   UNL     1      -3.375   1.919  -0.461  0.00  0.00    -0.285 N 
ATOM      8  C   UNL     1      -2.736   1.112  -1.510  0.00  0.00    +0.109 C 
ATOM      9  C   UNL     1      -1.650   1.957  -2.186  0.00  0.00    +0.017 C 
ATOM     10  C   UNL     1      -4.712   2.089  -0.446  0.00  0.00    +0.306 C 
ATOM     11  O   UNL     1      -5.390   1.654  -1.357  0.00  0.00    -0.252 OA
ATOM     12  N   UNL     1      -5.297   2.741   0.578  0.00  0.00    -0.269 N 
ATOM     13  H   UNL     1      -4.753   3.122   1.285  0.00  0.00    +0.156 HD
ATOM     14  N   UNL     1       0.027   1.408  -0.454  0.00  0.00    +0.397 N 
ATOM     15  H   UNL     1      -0.486   1.128   0.390  0.00  0.00    -0.083 HD
ATOM     16  H   UNL     1       0.095   0.608  -1.095  0.00  0.00    -0.083 HD
ENDROOT
BRANCH  12  17
ATOM     17  C   UNL     1      -6.690   2.868   0.622  0.00  0.00    +0.042 A 
ATOM     18  C   UNL     1      -7.270   4.123   0.749  0.00  0.00    -0.023 A 
ATOM     19  C   UNL     1      -8.646   4.245   0.787  0.00  0.00    +0.006 A 
ATOM     20  C   UNL     1      -9.444   3.119   0.711  0.00  0.00    +0.001 A 
ATOM     21  C   UNL     1      -8.869   1.867   0.590  0.00  0.00    +0.006 A 
ATOM     22  C   UNL     1      -7.494   1.739   0.546  0.00  0.00    -0.023 A 
BRANCH  22  23
ATOM     23  C   UNL     1      -6.869   0.374   0.414  0.00  0.00    +0.015 C 
ATOM     24  C   UNL     1      -7.118  -0.427   1.693  0.00  0.00    +0.012 C 
ATOM     25  C   UNL     1      -7.490  -0.359  -0.776  0.00  0.00    +0.012 C 
ENDBRANCH  22  23
BRANCH  18  26
ATOM     26  C   UNL     1      -6.401   5.351   0.839  0.00  0.00    +0.015 C 
ATOM     27  C   UNL     1      -6.807   6.344  -0.252  0.00  0.00    +0.012 C 
ATOM     28  C   UNL     1      -6.577   6.001   2.212  0.00  0.00    +0.012 C 
ENDBRANCH  18  26
ENDBRANCH  12  17
BRANCH   1  30
ATOM     29  N   UNL     1       3.483   0.779   0.725  0.00  0.00    -0.314 N 
ATOM     30  C   UNL     1       2.202   0.634   0.331  0.00  0.00    +0.200 C 
ATOM     31  O   UNL     1       1.698  -0.469   0.301  0.00  0.00    -0.278 OA
ATOM     32  H   UNL     1       3.886   1.661   0.749  0.00  0.00    +0.149 HD
BRANCH  29  33
ATOM     33  C   UNL     1       4.267  -0.396   1.115  0.00  0.00    +0.070 C 
ATOM     34  C   UNL     1       4.005  -0.717   2.588  0.00  0.00    +0.028 C 
BRANCH  33  36
ATOM     35  C   UNL     1       6.039   0.093  -0.577  0.00  0.00    +0.005 C 
ATOM     36  C   UNL     1       5.755  -0.106   0.913  0.00  0.00    +0.018 C 
ENDBRANCH  33  36
ENDBRANCH  29  33
ENDBRANCH   1  30
TORSDOF 6
