REMARK  Name = ZINC63807106
REMARK  7 active torsions:
REMARK  status: ('A' for Active; 'I' for Inactive)
REMARK    1  A    between atoms: C_1  and  C_2
REMARK    2  A    between atoms: C_2  and  C_3
REMARK    3  A    between atoms: C_3  and  C_4
REMARK    4  A    between atoms: C_6  and  C_11
REMARK    5  A    between atoms: N_13  and  C_14
REMARK    6  A    between atoms: C_14  and  C_15
REMARK    7  A    between atoms: C_15  and  C_16
REMARK                            x       y       z     vdW  Elec       q    Type
REMARK                         _______ _______ _______ _____ _____    ______ ____
ROOT
ATOM      1  C   UNL     1      -4.003  -1.562  -0.177  0.00  0.00    +0.229 C 
ATOM      2  O   UNL     1      -3.759  -0.505   0.365  0.00  0.00    -0.275 OA
ATOM      3  N   UNL     1      -5.215  -1.774  -0.726  0.00  0.00    -0.314 N 
ATOM      4  H   UNL     1      -5.410  -2.619  -1.160  0.00  0.00    +0.149 HD
ENDROOT
BRANCH   1   6
ATOM      5  C   UNL     1      -3.077  -3.606   0.964  0.00  0.00    +0.093 C 
ATOM      6  C   UNL     1      -2.950  -2.639  -0.236  0.00  0.00    +0.167 C 
ATOM      7  S   UNL     1      -3.246  -3.777  -1.655  0.00  0.00    -0.051 S 
ATOM      8  N   UNL     1      -2.988  -5.324  -0.775  0.00  0.00    -0.199 NA
ATOM      9  N   UNL     1      -3.495  -4.951   0.558  0.00  0.00    -0.242 NA
ATOM     10  H   UNL     1      -2.008  -5.560  -0.738  0.00  0.00    +0.154 HD
ATOM     11  H   UNL     1      -3.227  -5.636   1.249  0.00  0.00    +0.142 HD
BRANCH   5  12
ATOM     12  C   UNL     1      -4.107  -3.043   1.946  0.00  0.00    +0.021 C 
BRANCH  12  14
ATOM     13  C   UNL     1      -5.132  -3.317   4.208  0.00  0.00    +0.004 C 
ATOM     14  C   UNL     1      -4.101  -3.880   3.227  0.00  0.00    -0.002 C 
ENDBRANCH  12  14
ENDBRANCH   5  12
ENDBRANCH   1   6
BRANCH   3  15
ATOM     15  C   UNL     1      -6.239  -0.727  -0.669  0.00  0.00    +0.108 C 
BRANCH  15  16
ATOM     16  C   UNL     1      -7.511  -1.219  -1.361  0.00  0.00    +0.052 C 
BRANCH  16  17
ATOM     17  C   UNL     1      -8.564  -0.142  -1.301  0.00  0.00    -0.040 C 
ATOM     18  C   UNL     1      -8.841   0.777  -2.254  0.00  0.00    +0.000 A 
ATOM     19  C   UNL     1      -8.266   1.040  -3.579  0.00  0.00    +0.030 A 
ATOM     20  C   UNL     1      -8.764   2.057  -4.320  0.00  0.00    +0.042 A 
ATOM     21  C   UNL     1      -9.813   2.864  -3.854  0.00  0.00    +0.022 A 
ATOM     22  C   UNL     1     -10.392   2.683  -2.648  0.00  0.00    +0.027 A 
ATOM     23  C   UNL     1      -9.947   1.642  -1.786  0.00  0.00    +0.043 A 
ATOM     24  N   UNL     1     -10.339   1.272  -0.591  0.00  0.00    -0.380 N 
ATOM     25  C   UNL     1      -9.529   0.124  -0.168  0.00  0.00    +0.144 C 
ATOM     26 CL   UNL     1      -8.087   2.371  -5.887  0.00  0.00    -0.084 Cl
ATOM     27  H   UNL     1     -11.049   1.685  -0.075  0.00  0.00    +0.160 HD
ENDBRANCH  16  17
ENDBRANCH  15  16
ENDBRANCH   3  15
TORSDOF 6
