REMARK  Name = ZINC67501418
REMARK  8 active torsions:
REMARK  status: ('A' for Active; 'I' for Inactive)
REMARK    1  A    between atoms: C_1  and  N_2
REMARK    2  A    between atoms: C_4  and  C_11
REMARK    3  A    between atoms: N_7  and  C_10
REMARK    4  A    between atoms: C_11  and  N_12
REMARK    5  A    between atoms: N_12  and  C_13
REMARK    6  A    between atoms: C_13  and  C_14
REMARK    7  A    between atoms: C_18  and  C_20
REMARK    8  A    between atoms: C_20  and  N_21
REMARK                            x       y       z     vdW  Elec       q    Type
REMARK                         _______ _______ _______ _____ _____    ______ ____
ROOT
ATOM      1  C   UNL     1      -4.440  -4.298  -2.795  0.00  0.00    -0.064 A 
ATOM      2  C   UNL     1      -5.225  -3.439  -3.541  0.00  0.00    +0.002 A 
ATOM      3  C   UNL     1      -5.567  -3.768  -4.839  0.00  0.00    +0.001 A 
ATOM      4  C   UNL     1      -5.124  -4.955  -5.392  0.00  0.00    +0.005 A 
ATOM      5  C   UNL     1      -4.338  -5.813  -4.646  0.00  0.00    -0.028 A 
ATOM      6  C   UNL     1      -3.993  -5.482  -3.349  0.00  0.00    +0.007 A 
ENDROOT
BRANCH   1   7
ATOM      7  C   UNL     1      -4.067  -3.940  -1.379  0.00  0.00    -0.046 C 
BRANCH   7   8
ATOM      8  N   UNL     1      -2.811  -3.178  -1.381  0.00  0.00    +0.385 N 
ATOM      9  H   UNL     1      -2.930  -2.334  -1.922  0.00  0.00    -0.085 HD
ATOM     10  H   UNL     1      -2.079  -3.739  -1.791  0.00  0.00    -0.085 HD
BRANCH   8  11
ATOM     11  C   UNL     1      -2.448  -2.829  -0.002  0.00  0.00    -0.039 C 
BRANCH  11  15
ATOM     12  C   UNL     1      -0.018   1.461   0.010  0.00  0.00    +0.153 C 
ATOM     13  N   UNL     1       0.002  -0.004   0.002  0.00  0.00    -0.303 N 
ATOM     14  C   UNL     1      -1.177  -0.698   0.004  0.00  0.00    +0.097 A 
ATOM     15  C   UNL     1      -1.159  -2.048  -0.004  0.00  0.00    +0.016 A 
ATOM     16  C   UNL     1       0.087  -2.720  -0.014  0.00  0.00    +0.258 A 
ATOM     17  O   UNL     1       0.129  -3.937  -0.022  0.00  0.00    -0.267 OA
ATOM     18  N   UNL     1       1.227  -2.000  -0.016  0.00  0.00    -0.264 N 
ATOM     19  C   UNL     1       1.180  -0.654  -0.013  0.00  0.00    +0.331 A 
ATOM     20  O   UNL     1       2.216  -0.018  -0.019  0.00  0.00    -0.246 OA
ATOM     21  C   UNL     1       2.522  -2.684  -0.026  0.00  0.00    +0.157 C 
ENDBRANCH  11  15
ENDBRANCH   8  11
ENDBRANCH   7   8
ENDBRANCH   1   7
BRANCH   5  22
ATOM     22  C   UNL     1      -3.855  -7.107  -5.248  0.00  0.00    +0.158 C 
BRANCH  22  23
ATOM     23  N   UNL     1      -2.564  -6.889  -5.904  0.00  0.00    -0.326 N 
ATOM     24  C   UNL     1      -2.365  -6.613  -7.222  0.00  0.00    +0.200 A 
ATOM     25  N   UNL     1      -1.094  -6.478  -7.464  0.00  0.00    -0.236 NA
ATOM     26  C   UNL     1      -0.389  -6.657  -6.317  0.00  0.00    +0.089 A 
ATOM     27  C   UNL     1      -1.323  -6.918  -5.300  0.00  0.00    +0.069 A 
ATOM     28  C   UNL     1      -0.886  -7.140  -4.001  0.00  0.00    +0.028 A 
ATOM     29  C   UNL     1       0.464  -7.100  -3.719  0.00  0.00    +0.002 A 
ATOM     30  C   UNL     1       1.385  -6.839  -4.723  0.00  0.00    +0.002 A 
ATOM     31  C   UNL     1       0.973  -6.625  -6.008  0.00  0.00    +0.030 A 
ENDBRANCH  22  23
ENDBRANCH   5  22
TORSDOF 6
