REMARK  Name = ZINC65298321
REMARK  9 active torsions:
REMARK  status: ('A' for Active; 'I' for Inactive)
REMARK    1  A    between atoms: C_1  and  C_2
REMARK    2  A    between atoms: C_2  and  N_3
REMARK    3  A    between atoms: C_10  and  C_22
REMARK    4  A    between atoms: C_13  and  C_15
REMARK    5  A    between atoms: C_18  and  C_21
REMARK    6  A    between atoms: C_26  and  O_29
REMARK    7  A    between atoms: C_27  and  O_28
REMARK    8  A    between atoms: O_29  and  C_30
REMARK    9  A    between atoms: C_30  and  C_31
REMARK                            x       y       z     vdW  Elec       q    Type
REMARK                         _______ _______ _______ _____ _____    ______ ____
ROOT
ATOM      1  N   UNL     1       0.690  -0.478  -1.207  0.00  0.00    +0.380 N 
ATOM      2  C   UNL     1       2.096  -0.062  -1.162  0.00  0.00    -0.075 C 
ATOM      3  C   UNL     1       2.799  -0.484  -2.454  0.00  0.00    +0.027 C 
ATOM      4  C   UNL     1       2.722  -2.008  -2.595  0.00  0.00    +0.109 C 
ATOM      5  C   UNL     1       1.250  -2.435  -2.570  0.00  0.00    +0.027 C 
ATOM      6  C   UNL     1       0.605  -1.942  -1.274  0.00  0.00    -0.075 C 
ATOM      7  N   UNL     1       3.320  -2.406  -3.876  0.00  0.00    -0.286 NA
ATOM      8  C   UNL     1       4.775  -2.178  -3.849  0.00  0.00    +0.095 C 
ATOM      9  C   UNL     1       5.395  -3.160  -2.850  0.00  0.00    +0.079 C 
ATOM     10  C   UNL     1       4.601  -3.141  -1.573  0.00  0.00    +0.047 C 
ATOM     11  N   UNL     1       3.430  -2.636  -1.484  0.00  0.00    -0.266 NA
ATOM     12  H   UNL     1       3.109  -3.369  -4.090  0.00  0.00    +0.125 HD
ATOM     13  H   UNL     1       0.249  -0.078  -2.022  0.00  0.00    -0.082 HD
ENDROOT
BRANCH  10  14
ATOM     14  C   UNL     1       5.204  -3.736  -0.363  0.00  0.00    -0.004 A 
ATOM     15  C   UNL     1       6.483  -4.293  -0.418  0.00  0.00    +0.010 A 
ATOM     16  C   UNL     1       7.039  -4.846   0.717  0.00  0.00    +0.004 A 
ATOM     17  C   UNL     1       6.333  -4.851   1.906  0.00  0.00    -0.050 A 
ATOM     18  C   UNL     1       5.065  -4.301   1.967  0.00  0.00    +0.004 A 
ATOM     19  C   UNL     1       4.499  -3.739   0.842  0.00  0.00    +0.010 A 
ATOM     20  C   UNL     1       6.947  -5.458   3.141  0.00  0.00    +0.044 C 
ENDBRANCH  10  14
BRANCH   8  21
ATOM     21  C   UNL     1       5.352  -2.416  -5.221  0.00  0.00    +0.015 A 
ATOM     22  C   UNL     1       4.648  -3.163  -6.147  0.00  0.00    +0.009 A 
ATOM     23  C   UNL     1       5.174  -3.383  -7.406  0.00  0.00    +0.004 A 
ATOM     24  C   UNL     1       6.408  -2.857  -7.745  0.00  0.00    +0.049 A 
ATOM     25  C   UNL     1       7.118  -2.108  -6.822  0.00  0.00    +0.162 A 
ATOM     26  C   UNL     1       6.585  -1.881  -5.556  0.00  0.00    +0.163 A 
BRANCH  26  27
ATOM     27  O   UNL     1       7.277  -1.141  -4.648  0.00  0.00    -0.503 OA
ATOM     28  H   UNL     1       7.874  -1.659  -4.092  0.00  0.00    +0.292 HD
ENDBRANCH  26  27
BRANCH  25  29
ATOM     29  O   UNL     1       8.331  -1.590  -7.154  0.00  0.00    -0.489 OA
BRANCH  29  30
ATOM     30  C   UNL     1       8.813  -1.858  -8.472  0.00  0.00    +0.226 C 
ATOM     31  C   UNL     1      10.181  -1.200  -8.659  0.00  0.00    +0.048 C 
ENDBRANCH  29  30
ENDBRANCH  25  29
ENDBRANCH   8  21
BRANCH   1  33
ATOM     32  C   UNL     1      -0.019   1.526   0.010  0.00  0.00    -0.017 C 
ATOM     33  C   UNL     1       0.002  -0.004   0.002  0.00  0.00    -0.082 C 
ENDBRANCH   1  33
TORSDOF 6
