REMARK  Name = ZINC66823987
REMARK  7 active torsions:
REMARK  status: ('A' for Active; 'I' for Inactive)
REMARK    1  A    between atoms: C_1  and  C_2
REMARK    2  A    between atoms: C_11  and  C_14
REMARK    3  A    between atoms: C_14  and  N_15
REMARK    4  A    between atoms: C_16  and  C_18
REMARK    5  A    between atoms: C_18  and  C_20
REMARK    6  A    between atoms: C_18  and  N_21
REMARK    7  A    between atoms: C_22  and  C_24
REMARK                            x       y       z     vdW  Elec       q    Type
REMARK                         _______ _______ _______ _____ _____    ______ ____
ROOT
ATOM      1  N   UNL     1      -2.304  -7.683   4.228  0.00  0.00    -0.310 N 
ATOM      2  C   UNL     1      -2.664  -8.757   4.959  0.00  0.00    +0.233 C 
ATOM      3  O   UNL     1      -3.160  -8.605   6.055  0.00  0.00    -0.274 OA
ATOM      4  H   UNL     1      -1.907  -7.804   3.351  0.00  0.00    +0.149 HD
ENDROOT
BRANCH   2   5
ATOM      5  C   UNL     1      -2.452 -10.145   4.413  0.00  0.00    +0.156 C 
ATOM      6  C   UNL     1      -3.235 -10.306   3.108  0.00  0.00    +0.038 C 
BRANCH   5   7
ATOM      7  N   UNL     1      -2.922 -11.131   5.389  0.00  0.00    -0.304 N 
ATOM      8  C   UNL     1      -2.412 -12.378   5.387  0.00  0.00    +0.217 C 
ATOM      9  O   UNL     1      -1.563 -12.684   4.577  0.00  0.00    -0.275 OA
ATOM     10  H   UNL     1      -3.602 -10.886   6.037  0.00  0.00    +0.149 HD
BRANCH   8  11
ATOM     11  C   UNL     1      -2.896 -13.392   6.391  0.00  0.00    +0.079 C 
ATOM     12  C   UNL     1      -2.608 -12.887   7.809  0.00  0.00    +0.041 C 
ATOM     13  C   UNL     1      -3.031 -13.957   8.819  0.00  0.00    +0.160 C 
ATOM     14  O   UNL     1      -2.334 -15.174   8.542  0.00  0.00    -0.380 OA
ATOM     15  C   UNL     1      -2.601 -15.718   7.248  0.00  0.00    +0.160 C 
ATOM     16  C   UNL     1      -2.161 -14.719   6.175  0.00  0.00    +0.041 C 
ENDBRANCH   8  11
ENDBRANCH   5   7
ENDBRANCH   2   5
BRANCH   1  17
ATOM     17  C   UNL     1      -2.510  -6.333   4.759  0.00  0.00    +0.141 C 
BRANCH  17  28
ATOM     18  C   UNL     1       1.516  -1.759  -2.543  0.00  0.00    +0.007 C 
ATOM     19  C   UNL     1       0.744  -1.592  -1.232  0.00  0.00    -0.011 C 
ATOM     20  C   UNL     1       1.541  -2.221  -0.087  0.00  0.00    +0.022 C 
ATOM     21  C   UNL     1       0.782  -2.021   1.228  0.00  0.00    +0.107 C 
ATOM     22  N   UNL     1      -0.578  -2.556   1.075  0.00  0.00    -0.317 N 
ATOM     23  C   UNL     1      -1.400  -2.086  -0.049  0.00  0.00    +0.107 C 
ATOM     24  C   UNL     1      -0.616  -2.284  -1.350  0.00  0.00    +0.022 C 
ATOM     25  C   UNL     1      -1.078  -3.489   1.976  0.00  0.00    +0.099 A 
ATOM     26  C   UNL     1      -2.408  -3.889   1.888  0.00  0.00    +0.042 A 
ATOM     27  C   UNL     1      -2.892  -4.819   2.790  0.00  0.00    +0.010 A 
ATOM     28  C   UNL     1      -2.026  -5.319   3.755  0.00  0.00    -0.014 A 
ATOM     29  C   UNL     1      -0.719  -4.878   3.784  0.00  0.00    +0.089 A 
ATOM     30  N   UNL     1      -0.283  -3.994   2.906  0.00  0.00    -0.349 N 
ATOM     31  H   UNL     1       0.642  -3.704   2.947  0.00  0.00    +0.167 HD
ENDBRANCH  17  28
ENDBRANCH   1  17
TORSDOF 5
