REMARK  Name = ZINC59278069
REMARK  8 active torsions:
REMARK  status: ('A' for Active; 'I' for Inactive)
REMARK    1  A    between atoms: C_1  and  O_2
REMARK    2  A    between atoms: O_2  and  C_3
REMARK    3  A    between atoms: C_6  and  C_9
REMARK    4  A    between atoms: C_9  and  N_10
REMARK    5  A    between atoms: N_13  and  C_14
REMARK    6  A    between atoms: N_13  and  C_24
REMARK    7  A    between atoms: C_14  and  C_15
REMARK    8  A    between atoms: C_24  and  C_25
REMARK                            x       y       z     vdW  Elec       q    Type
REMARK                         _______ _______ _______ _____ _____    ______ ____
ROOT
ATOM      1  N   UNL     1       1.620  -2.797   5.383  0.00  0.00    -0.295 N 
ATOM      2  C   UNL     1       2.016  -3.400   6.521  0.00  0.00    +0.303 C 
ATOM      3  O   UNL     1       3.175  -3.740   6.658  0.00  0.00    -0.253 OA
ATOM      4  N   UNL     1       1.126  -3.627   7.508  0.00  0.00    -0.281 N 
ATOM      5  H   UNL     1       0.695  -2.526   5.274  0.00  0.00    +0.151 HD
ENDROOT
BRANCH   1   6
ATOM      6  C   UNL     1       2.587  -2.550   4.310  0.00  0.00    +0.141 C 
BRANCH   6  10
ATOM      7  C   UNL     1       0.626  -0.618   1.042  0.00  0.00    +0.120 A 
ATOM      8  C   UNL     1       1.202   0.138   2.051  0.00  0.00    +0.046 A 
ATOM      9  C   UNL     1       1.835  -0.488   3.107  0.00  0.00    +0.009 A 
ATOM     10  C   UNL     1       1.895  -1.869   3.158  0.00  0.00    -0.030 A 
ATOM     11  C   UNL     1       1.322  -2.625   2.152  0.00  0.00    +0.009 A 
ATOM     12  C   UNL     1       0.682  -2.003   1.098  0.00  0.00    +0.046 A 
BRANCH   7  14
ATOM     13  C   UNL     1      -0.017   1.425   0.010  0.00  0.00    +0.277 C 
ATOM     14  O   UNL     1       0.002  -0.004   0.002  0.00  0.00    -0.495 OA
ENDBRANCH   7  14
ENDBRANCH   6  10
ENDBRANCH   1   6
BRANCH   4  15
ATOM     15  C   UNL     1       1.557  -4.283   8.745  0.00  0.00    +0.144 C 
BRANCH  15  16
ATOM     16  C   UNL     1       2.009  -3.241   9.736  0.00  0.00    -0.026 A 
ATOM     17  C   UNL     1       3.331  -2.837   9.756  0.00  0.00    +0.009 A 
ATOM     18  C   UNL     1       3.750  -1.881  10.662  0.00  0.00    +0.050 A 
ATOM     19  C   UNL     1       2.846  -1.326  11.553  0.00  0.00    +0.166 A 
ATOM     20  C   UNL     1       1.514  -1.733  11.532  0.00  0.00    +0.167 A 
ATOM     21  C   UNL     1       1.100  -2.687  10.618  0.00  0.00    +0.054 A 
ATOM     22  O   UNL     1       0.833  -1.046  12.495  0.00  0.00    -0.453 OA
ATOM     23  C   UNL     1       1.842  -0.516  13.376  0.00  0.00    +0.466 C 
ATOM     24  O   UNL     1       2.999  -0.384  12.529  0.00  0.00    -0.453 OA
ENDBRANCH  15  16
ENDBRANCH   4  15
BRANCH   4  25
ATOM     25  C   UNL     1      -0.271  -3.218   7.344  0.00  0.00    +0.113 C 
BRANCH  25  26
ATOM     26  C   UNL     1      -1.066  -4.362   6.712  0.00  0.00    +0.010 C 
ATOM     27  C   UNL     1      -2.502  -3.899   6.433  0.00  0.00    +0.009 C 
ATOM     28  C   UNL     1      -3.219  -4.995   5.643  0.00  0.00    +0.027 C 
ATOM     29  C   UNL     1      -3.024  -6.325   6.311  0.00  0.00    -0.031 C 
ATOM     30  C   UNL     1      -2.108  -6.566   7.193  0.00  0.00    -0.031 C 
ATOM     31  C   UNL     1      -1.115  -5.549   7.676  0.00  0.00    +0.032 C 
ENDBRANCH  25  26
ENDBRANCH   4  25
TORSDOF 7
