REMARK  Name = ZINC28471388
REMARK  7 active torsions:
REMARK  status: ('A' for Active; 'I' for Inactive)
REMARK    1  A    between atoms: N_9  and  C_12
REMARK    2  A    between atoms: C_12  and  C_13
REMARK    3  A    between atoms: C_13  and  O_15
REMARK    4  A    between atoms: O_15  and  C_16
REMARK    5  A    between atoms: C_16  and  C_17
REMARK    6  A    between atoms: N_19  and  C_20
REMARK    7  A    between atoms: C_21  and  C_29
REMARK                            x       y       z     vdW  Elec       q    Type
REMARK                         _______ _______ _______ _____ _____    ______ ____
ROOT
ATOM      1  C   UNL     1       1.051   3.506   0.011  0.00  0.00    +0.255 C 
ATOM      2  O   UNL     1      -0.076   3.954   0.024  0.00  0.00    -0.272 OA
ATOM      3  N   UNL     1       2.108   4.341   0.005  0.00  0.00    -0.277 N 
ATOM      4  H   UNL     1       3.130   3.935  -0.007  0.00  0.00    +0.155 HD
ENDROOT
BRANCH   3   5
ATOM      5  C   UNL     1       1.908   5.713   0.015  0.00  0.00    +0.084 A 
ATOM      6  C   UNL     1       2.859   6.724   0.017  0.00  0.00    +0.068 A 
ATOM      7  C   UNL     1       2.382   8.096   0.022  0.00  0.00    -0.023 A 
ATOM      8  C   UNL     1       1.038   8.237   0.037  0.00  0.00    -0.004 A 
ATOM      9  S   UNL     1       0.409   6.583   0.034  0.00  0.00    -0.077 S 
ATOM     10  C   UNL     1       0.265   9.520   0.052  0.00  0.00    +0.043 C 
ATOM     11  C   UNL     1       1.225  10.659   0.427  0.00  0.00    +0.005 C 
ATOM     12  C   UNL     1       2.493  10.535  -0.424  0.00  0.00    +0.005 C 
ATOM     13  C   UNL     1       3.299   9.313   0.019  0.00  0.00    +0.037 C 
BRANCH   6  14
ATOM     14  C   UNL     1       4.293   6.418   0.009  0.00  0.00    +0.244 C 
ATOM     15  O   UNL     1       4.884   6.298  -1.049  0.00  0.00    -0.270 OA
ATOM     16  N   UNL     1       4.957   6.270   1.172  0.00  0.00    -0.325 N 
ATOM     17  H   UNL     1       6.033   6.040   1.166  0.00  0.00    +0.145 HD
ATOM     18  H   UNL     1       4.423   6.378   2.128  0.00  0.00    +0.145 HD
ENDBRANCH   6  14
ENDBRANCH   3   5
BRANCH   1  19
ATOM     19  C   UNL     1       1.268   2.015   0.001  0.00  0.00    +0.328 C 
BRANCH  19  20
ATOM     20  O   UNL     1      -0.016   1.338   0.009  0.00  0.00    -0.454 OA
BRANCH  20  21
ATOM     21  C   UNL     1       0.002  -0.004   0.002  0.00  0.00    +0.326 C 
ATOM     22  O   UNL     1       1.056  -0.594  -0.011  0.00  0.00    -0.249 OA
BRANCH  21  23
ATOM     23  C   UNL     1      -1.293  -0.775   0.010  0.00  0.00    +0.237 C 
BRANCH  23  32
ATOM     24  C   UNL     1      -0.103  -6.707   0.658  0.00  0.00    +0.001 A 
ATOM     25  C   UNL     1      -0.117  -6.699  -0.724  0.00  0.00    +0.001 A 
ATOM     26  C   UNL     1      -0.357  -5.524  -1.418  0.00  0.00    +0.014 A 
ATOM     27  C   UNL     1      -0.586  -4.349  -0.721  0.00  0.00    +0.049 A 
ATOM     28  C   UNL     1      -0.572  -4.356   0.689  0.00  0.00    +0.049 A 
ATOM     29  C   UNL     1      -0.330  -5.539   1.369  0.00  0.00    +0.014 A 
ATOM     30  C   UNL     1      -0.846  -2.964   1.103  0.00  0.00    +0.254 C 
ATOM     31  O   UNL     1      -0.915  -2.566   2.249  0.00  0.00    -0.270 OA
ATOM     32  N   UNL     1      -1.005  -2.212  -0.000  0.00  0.00    -0.223 N 
ATOM     33  C   UNL     1      -0.873  -2.953  -1.115  0.00  0.00    +0.254 C 
ATOM     34  O   UNL     1      -0.970  -2.544  -2.254  0.00  0.00    -0.270 OA
ENDBRANCH  23  32
ENDBRANCH  21  23
ENDBRANCH  20  21
ENDBRANCH  19  20
ENDBRANCH   1  19
TORSDOF 7
