REMARK  Name = ZINC44785375
REMARK  5 active torsions:
REMARK  status: ('A' for Active; 'I' for Inactive)
REMARK    1  A    between atoms: C_3  and  C_20
REMARK    2  A    between atoms: C_8  and  C_10
REMARK    3  A    between atoms: C_10  and  C_16
REMARK    4  A    between atoms: N_17  and  O_18
REMARK    5  A    between atoms: C_20  and  O_21
REMARK                            x       y       z     vdW  Elec       q    Type
REMARK                         _______ _______ _______ _____ _____    ______ ____
ROOT
ATOM      1  C   UNL     1      -1.109  -1.789   1.930  0.00  0.00    +0.109 C 
ATOM      2  C   UNL     1      -1.449  -2.706   3.108  0.00  0.00    +0.052 C 
ATOM      3  C   UNL     1      -0.590  -3.971   3.024  0.00  0.00    +0.161 C 
ATOM      4  O   UNL     1      -0.819  -4.618   1.771  0.00  0.00    -0.380 OA
ATOM      5  C   UNL     1      -0.474  -3.825   0.633  0.00  0.00    +0.161 C 
ATOM      6  C   UNL     1      -1.328  -2.554   0.621  0.00  0.00    +0.052 C 
ENDROOT
BRANCH   1  13
ATOM      7  C   UNL     1      -0.009   1.560   0.067  0.00  0.00    +0.019 C 
ATOM      8  C   UNL     1       1.431   2.079   0.060  0.00  0.00    +0.009 C 
ATOM      9  C   UNL     1       2.162   1.575   1.307  0.00  0.00    +0.032 C 
ATOM     10  C   UNL     1       2.199   0.043   1.288  0.00  0.00    +0.113 C 
ATOM     11  N   UNL     1       0.826  -0.461   1.149  0.00  0.00    -0.300 N 
ATOM     12  C   UNL     1       0.004   0.029   0.035  0.00  0.00    +0.108 C 
ATOM     13  C   UNL     1       0.331  -1.357   2.026  0.00  0.00    +0.229 C 
ATOM     14  O   UNL     1       1.045  -1.815   2.893  0.00  0.00    -0.275 OA
BRANCH   9  15
ATOM     15  C   UNL     1       3.592   2.121   1.316  0.00  0.00    +0.160 C 
BRANCH  15  16
ATOM     16  O   UNL     1       3.557   3.543   1.447  0.00  0.00    -0.395 OA
ATOM     17  H   UNL     1       4.431   3.958   1.461  0.00  0.00    +0.209 HD
ENDBRANCH  15  16
ENDBRANCH   9  15
ENDBRANCH   1  13
BRANCH   1  18
ATOM     18  C   UNL     1      -2.002  -0.575   1.960  0.00  0.00    +0.147 C 
ATOM     19  N   UNL     1      -1.909   0.272   2.930  0.00  0.00    -0.076 NA
ATOM     20  N   UNL     1      -2.918  -0.370   0.952  0.00  0.00    -0.343 N 
ATOM     21  H   UNL     1      -3.040  -1.041   0.263  0.00  0.00    +0.144 HD
ATOM     22  H   UNL     1      -3.442   0.447   0.932  0.00  0.00    +0.144 HD
BRANCH  19  23
ATOM     23  O   UNL     1      -1.043   0.009   4.019  0.00  0.00    -0.408 OA
ATOM     24  H   UNL     1      -1.040   0.699   4.696  0.00  0.00    +0.328 HD
ENDBRANCH  19  23
ENDBRANCH   1  18
TORSDOF 5
