REMARK  Name = ZINC20835512
REMARK  8 active torsions:
REMARK  status: ('A' for Active; 'I' for Inactive)
REMARK    1  A    between atoms: C_1  and  C_2
REMARK    2  A    between atoms: C_2  and  C_22
REMARK    3  A    between atoms: N_3  and  N_4
REMARK    4  A    between atoms: C_7  and  S_10
REMARK    5  A    between atoms: S_10  and  C_11
REMARK    6  A    between atoms: C_11  and  C_12
REMARK    7  A    between atoms: N_14  and  N_15
REMARK    8  A    between atoms: C_16  and  C_18
REMARK                            x       y       z     vdW  Elec       q    Type
REMARK                         _______ _______ _______ _____ _____    ______ ____
ROOT
ATOM      1  N   UNL     1      -2.442   1.308   0.019  0.00  0.00    -0.205 N 
ATOM      2  C   UNL     1      -1.128   1.754   0.016  0.00  0.00    +0.232 A 
ATOM      3  N   UNL     1      -0.011   0.966   0.007  0.00  0.00    -0.186 NA
ATOM      4  C   UNL     1       1.083   1.784   0.001  0.00  0.00    +0.211 A 
ATOM      5  N   UNL     1       0.661   3.026   0.012  0.00  0.00    -0.144 NA
ATOM      6  N   UNL     1      -0.740   3.006   0.025  0.00  0.00    -0.245 N 
ATOM      7  H   UNL     1      -2.656   0.229   0.014  0.00  0.00    +0.177 HD
ATOM      8  H   UNL     1      -1.487   3.814   0.041  0.00  0.00    +0.192 HD
ENDROOT
BRANCH   1  11
ATOM      9  C   UNL     1      -5.018   0.335   0.023  0.00  0.00    +0.068 C 
ATOM     10  C   UNL     1      -4.725   1.813   0.031  0.00  0.00    +0.063 C 
ATOM     11  N   UNL     1      -3.495   2.231   0.028  0.00  0.00    -0.184 NA
BRANCH  10  12
ATOM     12  C   UNL     1      -5.834   2.784   0.041  0.00  0.00    -0.002 A 
ATOM     13  C   UNL     1      -7.158   2.337   0.037  0.00  0.00    +0.012 A 
ATOM     14  C   UNL     1      -8.191   3.251   0.053  0.00  0.00    +0.039 A 
ATOM     15  C   UNL     1      -7.918   4.610   0.059  0.00  0.00    +0.123 A 
ATOM     16  C   UNL     1      -6.606   5.059   0.057  0.00  0.00    +0.039 A 
ATOM     17  C   UNL     1      -5.565   4.155   0.048  0.00  0.00    +0.012 A 
ATOM     18  F   UNL     1      -8.934   5.500   0.069  0.00  0.00    -0.205 F 
ENDBRANCH  10  12
ENDBRANCH   1  11
BRANCH   4  19
ATOM     19  S   UNL     1       2.766   1.262  -0.017  0.00  0.00    -0.075 S 
BRANCH  19  20
ATOM     20  C   UNL     1       3.706   2.813  -0.018  0.00  0.00    +0.174 C 
BRANCH  20  21
ATOM     21  C   UNL     1       5.182   2.506  -0.033  0.00  0.00    +0.239 C 
ATOM     22  O   UNL     1       5.561   1.354  -0.042  0.00  0.00    -0.273 OA
ATOM     23  N   UNL     1       6.079   3.512  -0.036  0.00  0.00    -0.233 N 
ATOM     24  H   UNL     1       5.735   4.556  -0.028  0.00  0.00    +0.173 HD
BRANCH  23  25
ATOM     25  N   UNL     1       7.451   3.226  -0.050  0.00  0.00    -0.227 N 
ATOM     26  C   UNL     1       8.348   4.232  -0.053  0.00  0.00    +0.333 C 
ATOM     27  O   UNL     1       7.968   5.383  -0.044  0.00  0.00    -0.264 OA
ATOM     28  H   UNL     1       7.795   2.182  -0.058  0.00  0.00    +0.173 HD
BRANCH  26  29
ATOM     29  C   UNL     1       9.823   3.925  -0.069  0.00  0.00    +0.471 C 
ATOM     30  F   UNL     1      10.549   5.121  -0.069  0.00  0.00    -0.162 F 
ATOM     31  F   UNL     1      10.156   3.178   1.067  0.00  0.00    -0.162 F 
ATOM     32  F   UNL     1      10.135   3.190  -1.217  0.00  0.00    -0.162 F 
ENDBRANCH  26  29
ENDBRANCH  23  25
ENDBRANCH  20  21
ENDBRANCH  19  20
ENDBRANCH   4  19
TORSDOF 7
