REMARK  Name = ZINC11212731
REMARK  8 active torsions:
REMARK  status: ('A' for Active; 'I' for Inactive)
REMARK    1  A    between atoms: C_1  and  C_2
REMARK    2  A    between atoms: C_2  and  O_3
REMARK    3  A    between atoms: O_3  and  C_4
REMARK    4  A    between atoms: C_4  and  C_6
REMARK    5  A    between atoms: C_7  and  C_26
REMARK    6  A    between atoms: C_12  and  C_14
REMARK    7  A    between atoms: C_18  and  O_20
REMARK    8  A    between atoms: O_20  and  C_21
REMARK                            x       y       z     vdW  Elec       q    Type
REMARK                         _______ _______ _______ _____ _____    ______ ____
ROOT
ATOM      1  C   UNL     1      -0.024   1.700   2.400  0.00  0.00    +0.078 C 
ATOM      2  C   UNL     1      -0.722   1.554   1.252  0.00  0.00    +0.019 C 
ATOM      3  N   UNL     1      -2.050   1.863   1.192  0.00  0.00    -0.300 N 
ATOM      4  C   UNL     1      -2.757   2.313   2.236  0.00  0.00    +0.135 C 
ATOM      5  S   UNL     1      -4.421   2.655   2.025  0.00  0.00    -0.019 S 
ATOM      6  N   UNL     1      -2.200   2.510   3.448  0.00  0.00    -0.315 N 
ATOM      7  C   UNL     1      -0.768   2.211   3.618  0.00  0.00    +0.141 C 
ATOM      8  C   UNL     1      -0.022   1.049   0.018  0.00  0.00    +0.061 C 
ATOM      9  H   UNL     1      -2.509   1.747   0.345  0.00  0.00    +0.154 HD
ATOM     10  H   UNL     1      -2.730   2.840   4.190  0.00  0.00    +0.149 HD
ENDROOT
BRANCH   7  11
ATOM     11  C   UNL     1      -0.083   3.470   4.085  0.00  0.00    -0.015 A 
ATOM     12  C   UNL     1       0.794   3.421   5.152  0.00  0.00    +0.055 A 
ATOM     13  C   UNL     1       1.429   4.577   5.586  0.00  0.00    +0.166 A 
ATOM     14  C   UNL     1       1.181   5.784   4.946  0.00  0.00    +0.204 A 
ATOM     15  C   UNL     1       0.296   5.828   3.873  0.00  0.00    +0.166 A 
ATOM     16  C   UNL     1      -0.330   4.668   3.443  0.00  0.00    +0.055 A 
ATOM     17  O   UNL     1       1.796   6.928   5.353  0.00  0.00    -0.482 OA
ATOM     18  C   UNL     1       2.384   6.914   6.658  0.00  0.00    +0.270 C 
ATOM     19  C   UNL     1       3.185   5.614   6.809  0.00  0.00    +0.270 C 
ATOM     20  O   UNL     1       2.287   4.512   6.640  0.00  0.00    -0.485 OA
BRANCH  15  21
ATOM     21  O   UNL     1       0.048   7.008   3.244  0.00  0.00    -0.491 OA
ATOM     22  C   UNL     1      -0.872   6.980   2.151  0.00  0.00    +0.277 C 
ENDBRANCH  15  21
ENDBRANCH   7  11
BRANCH   1  23
ATOM     23  C   UNL     1       1.353   1.385   2.463  0.00  0.00    +0.339 C 
ATOM     24  O   UNL     1       1.954   1.079   1.450  0.00  0.00    -0.245 OA
BRANCH  23  25
ATOM     25  O   UNL     1       2.001   1.424   3.646  0.00  0.00    -0.462 OA
BRANCH  25  27
ATOM     26  C   UNL     1       3.949   1.193   5.058  0.00  0.00    +0.048 C 
ATOM     27  C   UNL     1       3.391   1.094   3.636  0.00  0.00    +0.229 C 
ENDBRANCH  25  27
ENDBRANCH  23  25
ENDBRANCH   1  23
TORSDOF 5
