REMARK  Name = ZINC48971723
REMARK  9 active torsions:
REMARK  status: ('A' for Active; 'I' for Inactive)
REMARK    1  A    between atoms: C_1  and  N_2
REMARK    2  A    between atoms: N_2  and  C_3
REMARK    3  A    between atoms: N_2  and  C_10
REMARK    4  A    between atoms: C_3  and  C_4
REMARK    5  A    between atoms: C_10  and  C_12
REMARK    6  A    between atoms: C_10  and  C_14
REMARK    7  A    between atoms: C_12  and  N_13
REMARK    8  A    between atoms: C_19  and  O_20
REMARK    9  A    between atoms: O_20  and  C_21
REMARK                            x       y       z     vdW  Elec       q    Type
REMARK                         _______ _______ _______ _____ _____    ______ ____
ROOT
ATOM      1  C   UNL     1      -1.329  -0.630   0.075  0.00  0.00    +0.073 C 
ENDROOT
BRANCH   1   2
ATOM      2  C   UNL     1      -2.007  -0.298  -1.229  0.00  0.00    +0.011 A 
ATOM      3  C   UNL     1      -1.250   0.003  -2.345  0.00  0.00    +0.024 A 
ATOM      4  C   UNL     1      -1.872   0.308  -3.542  0.00  0.00    +0.018 A 
ATOM      5  C   UNL     1      -3.254   0.311  -3.625  0.00  0.00    +0.019 A 
ATOM      6  C   UNL     1      -4.014   0.010  -2.512  0.00  0.00    +0.047 A 
ATOM      7  C   UNL     1      -3.392  -0.301  -1.312  0.00  0.00    +0.125 A 
ATOM      8 BR   UNL     1      -0.834   0.721  -5.068  0.00  0.00    -0.050 Br
BRANCH   7   9
ATOM      9  O   UNL     1      -4.138  -0.602  -0.216  0.00  0.00    -0.495 OA
ATOM     10  C   UNL     1      -5.558  -0.586  -0.374  0.00  0.00    +0.277 C 
ENDBRANCH   7   9
ENDBRANCH   1   2
BRANCH   1  12
ATOM     11  C   UNL     1      -0.098   1.455   0.047  0.00  0.00    +0.105 C 
ATOM     12  N   UNL     1       0.003  -0.009   0.106  0.00  0.00    -0.295 NA
BRANCH  12  13
ATOM     13  C   UNL     1       0.756  -0.439   1.292  0.00  0.00    +0.127 C 
BRANCH  13  14
ATOM     14  C   UNL     1       2.205  -0.058   1.131  0.00  0.00    +0.005 A 
ATOM     15  C   UNL     1       2.834   1.083   1.504  0.00  0.00    +0.014 A 
ATOM     16  C   UNL     1       4.187   1.215   1.253  0.00  0.00    +0.028 A 
ATOM     17  C   UNL     1       4.845   0.198   0.641  0.00  0.00    +0.078 A 
ATOM     18  S   UNL     1       3.540  -0.998   0.408  0.00  0.00    -0.080 S 
ATOM     19 CL   UNL     1       6.521   0.086   0.205  0.00  0.00    -0.076 Cl
ENDBRANCH  13  14
ENDBRANCH  12  13
ENDBRANCH   1  12
BRANCH   1  20
ATOM     20  C   UNL     1      -1.187  -2.148   0.204  0.00  0.00    -0.062 C 
BRANCH  20  21
ATOM     21  N   UNL     1      -0.265  -2.643  -0.827  0.00  0.00    +0.379 N 
ATOM     22  H   UNL     1      -0.670  -2.495  -1.739  0.00  0.00    -0.090 HD
ATOM     23  H   UNL     1       0.610  -2.146  -0.762  0.00  0.00    -0.090 HD
ATOM     24  H   UNL     1      -0.103  -3.630  -0.688  0.00  0.00    -0.090 HD
ENDBRANCH  20  21
ENDBRANCH   1  20
TORSDOF 7
