REMARK  Name = ZINC14654951
REMARK  15 active torsions:
REMARK  status: ('A' for Active; 'I' for Inactive)
REMARK    1  A    between atoms: C_1  and  C_2
REMARK    2  A    between atoms: C_2  and  C_3
REMARK    3  A    between atoms: C_3  and  C_4
REMARK    4  A    between atoms: C_4  and  N_5
REMARK    5  A    between atoms: C_6  and  N_33
REMARK    6  A    between atoms: C_7  and  N_14
REMARK    7  A    between atoms: N_14  and  C_15
REMARK    8  A    between atoms: C_16  and  C_18
REMARK    9  A    between atoms: C_18  and  C_19
REMARK   10  A    between atoms: C_19  and  N_20
REMARK   11  A    between atoms: C_21  and  C_23
REMARK   12  A    between atoms: C_26  and  C_29
REMARK   13  A    between atoms: C_29  and  C_30
REMARK   14  A    between atoms: C_29  and  C_31
REMARK   15  A    between atoms: C_29  and  C_32
REMARK                            x       y       z     vdW  Elec       q    Type
REMARK                         _______ _______ _______ _____ _____    ______ ____
ROOT
ATOM      1  N   UNL     1       6.047   2.150  -0.042  0.00  0.00    -0.267 N 
ATOM      2  C   UNL     1       5.952   3.605  -0.176  0.00  0.00    +0.138 C 
ATOM      3  C   UNL     1       4.925   1.402   0.006  0.00  0.00    +0.221 C 
ATOM      4  O   UNL     1       5.003   0.191   0.033  0.00  0.00    -0.275 OA
ENDROOT
BRANCH   1   7
ATOM      5  N   UNL     1       8.988   0.106  -0.863  0.00  0.00    -0.280 N 
ATOM      6  C   UNL     1       7.750   0.696  -0.970  0.00  0.00    +0.127 A 
ATOM      7  C   UNL     1       7.312   1.530   0.039  0.00  0.00    +0.139 A 
ATOM      8  C   UNL     1       8.151   1.756   1.146  0.00  0.00    +0.277 A 
ATOM      9  O   UNL     1       7.791   2.492   2.049  0.00  0.00    -0.266 OA
ATOM     10  N   UNL     1       9.353   1.150   1.203  0.00  0.00    -0.273 N 
ATOM     11  H   UNL     1       9.947   1.304   1.993  0.00  0.00    +0.173 HD
ATOM     12  C   UNL     1       9.763   0.340   0.211  0.00  0.00    +0.331 A 
ATOM     13  O   UNL     1      10.854  -0.191   0.287  0.00  0.00    -0.246 OA
BRANCH   6  14
ATOM     14  N   UNL     1       6.958   0.457  -2.067  0.00  0.00    -0.343 N 
ATOM     15  H   UNL     1       6.058   0.816  -2.103  0.00  0.00    +0.144 HD
ATOM     16  H   UNL     1       7.299  -0.072  -2.805  0.00  0.00    +0.144 HD
ENDBRANCH   6  14
BRANCH   5  17
ATOM     17  C   UNL     1       9.466  -0.781  -1.927  0.00  0.00    +0.128 C 
BRANCH  17  18
ATOM     18  C   UNL     1      10.227   0.038  -2.971  0.00  0.00    +0.021 C 
BRANCH  18  20
ATOM     19  C   UNL     1      11.487  -0.069  -5.125  0.00  0.00    +0.004 C 
ATOM     20  C   UNL     1      10.726  -0.888  -4.081  0.00  0.00    -0.002 C 
ENDBRANCH  18  20
ENDBRANCH  17  18
ENDBRANCH   5  17
ENDBRANCH   1   7
BRANCH   3  21
ATOM     21  C   UNL     1       3.574   2.070   0.026  0.00  0.00    +0.115 C 
BRANCH  21  22
ATOM     22  C   UNL     1       2.478   1.003   0.081  0.00  0.00    +0.113 C 
BRANCH  22  23
ATOM     23  N   UNL     1       1.165   1.653   0.100  0.00  0.00    -0.311 N 
ATOM     24  C   UNL     1       0.044   0.906   0.148  0.00  0.00    +0.244 C 
ATOM     25  O   UNL     1       0.123  -0.307   0.174  0.00  0.00    -0.270 OA
ATOM     26  H   UNL     1       1.103   2.621   0.079  0.00  0.00    +0.149 HD
BRANCH  24  27
ATOM     27  C   UNL     1      -1.281   1.561   0.161  0.00  0.00    +0.037 A 
ATOM     28  C   UNL     1      -1.374   2.954   0.136  0.00  0.00    +0.013 A 
ATOM     29  C   UNL     1      -2.614   3.559   0.145  0.00  0.00    +0.005 A 
ATOM     30  C   UNL     1      -3.763   2.789   0.188  0.00  0.00    -0.042 A 
ATOM     31  C   UNL     1      -3.677   1.408   0.217  0.00  0.00    +0.005 A 
ATOM     32  C   UNL     1      -2.443   0.790   0.205  0.00  0.00    +0.013 A 
BRANCH  30  33
ATOM     33  C   UNL     1      -5.114   3.457   0.202  0.00  0.00    -0.013 C 
ATOM     34  C   UNL     1      -5.863   3.065   1.477  0.00  0.00    +0.015 C 
ATOM     35  C   UNL     1      -4.932   4.975   0.164  0.00  0.00    +0.015 C 
ATOM     36  C   UNL     1      -5.917   3.008  -1.020  0.00  0.00    +0.015 C 
ENDBRANCH  30  33
ENDBRANCH  24  27
ENDBRANCH  22  23
ENDBRANCH  21  22
ENDBRANCH   3  21
TORSDOF 10
