REMARK  Name = ZINC25922032
REMARK  6 active torsions:
REMARK  status: ('A' for Active; 'I' for Inactive)
REMARK    1  A    between atoms: C_3  and  C_21
REMARK    2  A    between atoms: N_7  and  C_8
REMARK    3  A    between atoms: C_8  and  C_9
REMARK    4  A    between atoms: C_9  and  C_11
REMARK    5  A    between atoms: C_9  and  O_20
REMARK    6  A    between atoms: C_14  and  N_17
REMARK                            x       y       z     vdW  Elec       q    Type
REMARK                         _______ _______ _______ _____ _____    ______ ____
ROOT
ATOM      1  C   UNL     1      -0.017   1.425   0.010  0.00  0.00    +0.161 C 
ENDROOT
BRANCH   1   2
ATOM      2  C   UNL     1      -0.723   1.911   1.250  0.00  0.00    -0.018 A 
ATOM      3  C   UNL     1      -0.519   1.269   2.457  0.00  0.00    +0.008 A 
ATOM      4  C   UNL     1      -1.162   1.718   3.595  0.00  0.00    +0.033 A 
ATOM      5  C   UNL     1      -2.017   2.802   3.524  0.00  0.00    +0.126 A 
ATOM      6  C   UNL     1      -2.225   3.440   2.316  0.00  0.00    +0.033 A 
ATOM      7  C   UNL     1      -1.578   2.995   1.179  0.00  0.00    +0.008 A 
BRANCH   5   8
ATOM      8  N   UNL     1      -2.711   3.279   4.742  0.00  0.00    +0.056 N 
ATOM      9  O   UNL     1      -3.465   4.234   4.679  0.00  0.00    -0.126 OA
ATOM     10  O   UNL     1      -2.528   2.716   5.807  0.00  0.00    -0.126 OA
ENDBRANCH   5   8
ENDBRANCH   1   2
BRANCH   1  11
ATOM     11  O   UNL     1       0.002  -0.004   0.002  0.00  0.00    -0.386 OA
ATOM     12  H   UNL     1      -0.943  -0.567   0.008  0.00  0.00    +0.210 HD
ENDBRANCH   1  11
BRANCH   1  13
ATOM     13  C   UNL     1       1.418   1.954  -0.001  0.00  0.00    +0.139 C 
BRANCH  13  20
ATOM     14  C   UNL     1       5.969   2.706  -1.943  0.00  0.00    +0.021 A 
ATOM     15  C   UNL     1       5.322   1.983  -2.931  0.00  0.00    +0.024 A 
ATOM     16  C   UNL     1       3.996   1.596  -2.711  0.00  0.00    +0.091 A 
ATOM     17  C   UNL     1       3.378   1.954  -1.501  0.00  0.00    +0.136 A 
ATOM     18  N   UNL     1       4.041   2.651  -0.592  0.00  0.00    -0.239 NA
ATOM     19  C   UNL     1       5.293   3.021  -0.778  0.00  0.00    +0.113 A 
ATOM     20  N   UNL     1       2.066   1.583  -1.261  0.00  0.00    -0.325 N 
ATOM     21  H   UNL     1       1.511   1.008  -2.017  0.00  0.00    +0.148 HD
BRANCH  16  22
ATOM     22  C   UNL     1       3.282   0.847  -3.701  0.00  0.00    +0.103 C 
ATOM     23  N   UNL     1       2.715   0.252  -4.486  0.00  0.00    -0.191 NA
ENDBRANCH  16  22
ENDBRANCH  13  20
ENDBRANCH   1  13
TORSDOF 6
