REMARK  Name = ZINC37562780
REMARK  6 active torsions:
REMARK  status: ('A' for Active; 'I' for Inactive)
REMARK    1  A    between atoms: C_1  and  C_2
REMARK    2  A    between atoms: C_2  and  C_4
REMARK    3  A    between atoms: C_2  and  N_11
REMARK    4  A    between atoms: N_11  and  C_12
REMARK    5  A    between atoms: C_12  and  C_13
REMARK    6  A    between atoms: C_15  and  N_18
REMARK                            x       y       z     vdW  Elec       q    Type
REMARK                         _______ _______ _______ _____ _____    ______ ____
ROOT
ATOM      1  N   UNL     1      -1.376  -0.512   0.012  0.00  0.00    +0.386 N 
ATOM      2  H   UNL     1      -1.363  -1.518   0.090  0.00  0.00    -0.085 HD
ATOM      3  H   UNL     1      -1.873  -0.121   0.799  0.00  0.00    -0.085 HD
ENDROOT
BRANCH   1   5
ATOM      4  C   UNL     1      -0.019   1.526   0.010  0.00  0.00    -0.009 C 
ATOM      5  C   UNL     1       0.002  -0.004   0.002  0.00  0.00    -0.043 C 
BRANCH   5   6
ATOM      6  C   UNL     1       0.731  -0.503   1.223  0.00  0.00    -0.048 A 
ATOM      7  C   UNL     1       0.018  -0.951   2.319  0.00  0.00    +0.003 A 
ATOM      8  C   UNL     1       0.686  -1.409   3.439  0.00  0.00    +0.000 A 
ATOM      9  C   UNL     1       2.068  -1.420   3.463  0.00  0.00    +0.001 A 
ATOM     10  C   UNL     1       2.782  -0.973   2.368  0.00  0.00    +0.015 A 
ATOM     11  C   UNL     1       2.114  -0.519   1.245  0.00  0.00    +0.019 A 
ATOM     12 BR   UNL     1       3.090   0.086  -0.257  0.00  0.00    -0.050 Br
ENDBRANCH   5   6
ENDBRANCH   1   5
BRANCH   1  13
ATOM     13  C   UNL     1      -2.050  -0.126  -1.234  0.00  0.00    -0.045 C 
BRANCH  13  14
ATOM     14  C   UNL     1      -3.464  -0.648  -1.224  0.00  0.00    -0.055 A 
ATOM     15  C   UNL     1      -3.752  -1.903  -1.726  0.00  0.00    +0.042 A 
ATOM     16  C   UNL     1      -5.034  -2.342  -1.701  0.00  0.00    +0.164 A 
ATOM     17  S   UNL     1      -5.883  -0.962  -0.950  0.00  0.00    -0.073 S 
ATOM     18  C   UNL     1      -4.471   0.104  -0.716  0.00  0.00    +0.049 A 
BRANCH  16  19
ATOM     19  N   UNL     1      -5.588  -3.631  -2.174  0.00  0.00    +0.063 N 
ATOM     20  O   UNL     1      -4.856  -4.460  -2.663  0.00  0.00    -0.126 OA
ATOM     21  O   UNL     1      -6.771  -3.855  -2.071  0.00  0.00    -0.126 OA
ENDBRANCH  16  19
ENDBRANCH  13  14
ENDBRANCH   1  13
TORSDOF 5
