REMARK  Name = ZINC39594174
REMARK  9 active torsions:
REMARK  status: ('A' for Active; 'I' for Inactive)
REMARK    1  A    between atoms: C_1  and  C_2
REMARK    2  A    between atoms: C_2  and  C_3
REMARK    3  A    between atoms: C_3  and  C_4
REMARK    4  A    between atoms: C_4  and  C_5
REMARK    5  A    between atoms: C_9  and  C_18
REMARK    6  A    between atoms: N_20  and  C_21
REMARK    7  A    between atoms: C_21  and  C_22
REMARK    8  A    between atoms: C_22  and  C_24
REMARK    9  A    between atoms: C_22  and  N_30
REMARK                            x       y       z     vdW  Elec       q    Type
REMARK                         _______ _______ _______ _____ _____    ______ ____
ROOT
ATOM      1  C   UNL     1       2.038  -2.697  -3.230  0.00  0.00    +0.216 C 
ATOM      2  O   UNL     1       2.468  -2.008  -4.130  0.00  0.00    -0.276 OA
ATOM      3  N   UNL     1       2.044  -4.040  -3.347  0.00  0.00    -0.300 N 
ATOM      4  C   UNL     1       1.560  -5.040  -2.366  0.00  0.00    +0.121 C 
ATOM      5  C   UNL     1       0.871  -6.126  -3.223  0.00  0.00    +0.100 C 
ATOM      6  C   UNL     1       1.518  -5.998  -4.612  0.00  0.00    -0.004 C 
ATOM      7  C   UNL     1       2.531  -4.850  -4.489  0.00  0.00    +0.115 C 
ATOM      8  C   UNL     1       0.462  -5.651  -5.657  0.00  0.00    -0.010 C 
ATOM      9  C   UNL     1       1.120  -5.585  -7.038  0.00  0.00    -0.082 C 
ATOM     10  N   UNL     1       1.738  -6.879  -7.350  0.00  0.00    +0.379 N 
ATOM     11  C   UNL     1       2.816  -7.162  -6.394  0.00  0.00    -0.082 C 
ATOM     12  C   UNL     1       2.230  -7.294  -4.985  0.00  0.00    -0.010 C 
ATOM     13  H   UNL     1       1.041  -7.606  -7.293  0.00  0.00    -0.086 HD
ATOM     14  H   UNL     1       2.118  -6.853  -8.284  0.00  0.00    -0.086 HD
ENDROOT
BRANCH   5  15
ATOM     15  C   UNL     1       1.131  -7.493  -2.644  0.00  0.00    +0.218 C 
ATOM     16  O   UNL     1       2.164  -7.713  -2.049  0.00  0.00    -0.275 OA
ATOM     17  N   UNL     1       0.215  -8.471  -2.789  0.00  0.00    -0.316 N 
ATOM     18  H   UNL     1      -0.612  -8.294  -3.266  0.00  0.00    +0.149 HD
BRANCH  17  19
ATOM     19  C   UNL     1       0.467  -9.800  -2.227  0.00  0.00    +0.093 C 
BRANCH  19  20
ATOM     20  C   UNL     1      -0.656 -10.752  -2.645  0.00  0.00    -0.019 C 
BRANCH  20  21
ATOM     21  C   UNL     1      -0.619 -10.946  -4.139  0.00  0.00    -0.041 A 
ATOM     22  C   UNL     1      -1.488 -10.243  -4.960  0.00  0.00    +0.005 A 
ATOM     23  C   UNL     1      -1.419 -10.454  -6.328  0.00  0.00    +0.020 A 
ATOM     24  C   UNL     1      -0.493 -11.351  -6.825  0.00  0.00    +0.111 A 
ATOM     25  N   UNL     1       0.318 -12.002  -6.015  0.00  0.00    -0.263 NA
ATOM     26  C   UNL     1       0.284 -11.823  -4.709  0.00  0.00    +0.112 A 
ENDBRANCH  20  21
BRANCH  20  27
ATOM     27  N   UNL     1      -0.472 -12.048  -1.978  0.00  0.00    +0.385 N 
ATOM     28  C   UNL     1      -0.576 -11.885  -0.505  0.00  0.00    -0.078 C 
ATOM     29  C   UNL     1      -0.928 -13.312  -0.015  0.00  0.00    -0.020 C 
ATOM     30  C   UNL     1      -1.877 -13.833  -1.119  0.00  0.00    -0.020 C 
ATOM     31  C   UNL     1      -1.560 -12.975  -2.359  0.00  0.00    -0.078 C 
ATOM     32  H   UNL     1       0.423 -12.442  -2.223  0.00  0.00    -0.081 HD
ENDBRANCH  20  27
ENDBRANCH  19  20
ENDBRANCH  17  19
ENDBRANCH   5  15
BRANCH   1  33
ATOM     33  C   UNL     1       1.497  -2.053  -1.980  0.00  0.00    +0.096 C 
BRANCH  33  34
ATOM     34  C   UNL     1       1.605  -0.531  -2.103  0.00  0.00    +0.009 C 
BRANCH  34  36
ATOM     35  C   UNL     1       1.164   1.645  -0.957  0.00  0.00    +0.004 C 
ATOM     36  C   UNL     1       1.055   0.123  -0.834  0.00  0.00    -0.003 C 
ENDBRANCH  34  36
ENDBRANCH  33  34
ENDBRANCH   1  33
TORSDOF 8
