REMARK  Name = ZINC66743057
REMARK  9 active torsions:
REMARK  status: ('A' for Active; 'I' for Inactive)
REMARK    1  A    between atoms: C_1  and  C_2
REMARK    2  A    between atoms: C_9  and  C_11
REMARK    3  A    between atoms: C_11  and  C_12
REMARK    4  A    between atoms: N_14  and  C_15
REMARK    5  A    between atoms: C_15  and  C_16
REMARK    6  A    between atoms: C_15  and  C_17
REMARK    7  A    between atoms: C_15  and  C_18
REMARK    8  A    between atoms: C_18  and  O_19
REMARK    9  A    between atoms: O_19  and  C_20
REMARK                            x       y       z     vdW  Elec       q    Type
REMARK                         _______ _______ _______ _____ _____    ______ ____
ROOT
ATOM      1  C   UNL     1       0.418  -2.651   0.215  0.00  0.00    +0.118 C 
ENDROOT
BRANCH   1  10
ATOM      2  C   UNL     1       0.413   1.522  -0.073  0.00  0.00    +0.109 C 
ATOM      3  C   UNL     1       0.283   0.021  -0.046  0.00  0.00    +0.213 C 
ATOM      4  O   UNL     1       0.288  -0.570   1.013  0.00  0.00    -0.276 OA
ATOM      5  N   UNL     1       0.161  -0.666  -1.200  0.00  0.00    -0.298 N 
ATOM      6  C   UNL     1       0.061   0.040  -2.484  0.00  0.00    +0.108 C 
ATOM      7  C   UNL     1       1.134  -0.507  -3.431  0.00  0.00    +0.019 C 
ATOM      8  C   UNL     1       0.989  -2.026  -3.537  0.00  0.00    +0.003 C 
ATOM      9  C   UNL     1       1.196  -2.657  -2.158  0.00  0.00    +0.023 C 
ATOM     10  C   UNL     1       0.130  -2.135  -1.196  0.00  0.00    +0.085 C 
ENDBRANCH   1  10
BRANCH   1  11
ATOM     11  C   UNL     1      -0.812  -2.486   1.071  0.00  0.00    +0.215 C 
ATOM     12  O   UNL     1      -1.819  -2.003   0.598  0.00  0.00    -0.276 OA
ATOM     13  N   UNL     1      -0.792  -2.875   2.361  0.00  0.00    -0.308 N 
ATOM     14  H   UNL     1       0.013  -3.261   2.739  0.00  0.00    +0.149 HD
BRANCH  13  15
ATOM     15  C   UNL     1      -1.987  -2.714   3.193  0.00  0.00    +0.052 C 
ATOM     16  C   UNL     1      -2.367  -1.233   3.259  0.00  0.00    +0.033 C 
ATOM     17  C   UNL     1      -3.143  -3.510   2.584  0.00  0.00    +0.033 C 
BRANCH  15  18
ATOM     18  C   UNL     1      -1.700  -3.230   4.604  0.00  0.00    +0.184 C 
BRANCH  18  19
ATOM     19  O   UNL     1      -2.865  -3.073   5.415  0.00  0.00    -0.381 OA
ATOM     20  C   UNL     1      -2.703  -3.527   6.760  0.00  0.00    +0.194 C 
ENDBRANCH  18  19
ENDBRANCH  15  18
ENDBRANCH  13  15
ENDBRANCH   1  11
TORSDOF 5
