REMARK  Name = ZINC42152822
REMARK  7 active torsions:
REMARK  status: ('A' for Active; 'I' for Inactive)
REMARK    1  A    between atoms: C_1  and  C_2
REMARK    2  A    between atoms: C_8  and  O_10
REMARK    3  A    between atoms: O_10  and  C_11
REMARK    4  A    between atoms: C_11  and  C_12
REMARK    5  A    between atoms: C_12  and  S_13
REMARK    6  A    between atoms: S_13  and  C_14
REMARK    7  A    between atoms: N_20  and  C_21
REMARK                            x       y       z     vdW  Elec       q    Type
REMARK                         _______ _______ _______ _____ _____    ______ ____
ROOT
ATOM      1  C   UNL     1       0.119   0.640   4.733  0.00  0.00    +0.105 C 
ENDROOT
BRANCH   1   2
ATOM      2  C   UNL     1       0.938   0.149   3.537  0.00  0.00    +0.171 C 
BRANCH   2   3
ATOM      3  O   UNL     1       0.073  -0.050   2.417  0.00  0.00    -0.375 OA
BRANCH   3  10
ATOM      4  C   UNL     1      -0.019   1.526   0.010  0.00  0.00    +0.010 C 
ATOM      5  C   UNL     1       0.002  -0.004   0.002  0.00  0.00    +0.015 C 
ATOM      6  C   UNL     1       0.718  -0.497  -1.257  0.00  0.00    +0.006 C 
ATOM      7  C   UNL     1       0.739  -2.027  -1.265  0.00  0.00    +0.000 C 
ATOM      8  C   UNL     1       1.479  -2.534  -0.026  0.00  0.00    +0.003 C 
ATOM      9  C   UNL     1       0.763  -2.041   1.233  0.00  0.00    +0.032 C 
ATOM     10  C   UNL     1       0.742  -0.511   1.242  0.00  0.00    +0.121 C 
ENDBRANCH   3  10
ENDBRANCH   2   3
ENDBRANCH   1   2
BRANCH   1  11
ATOM     11  S   UNL     1       1.216   0.893   6.155  0.00  0.00    -0.084 S 
BRANCH  11  12
ATOM     12  C   UNL     1       0.138   1.450   7.432  0.00  0.00    +0.192 A 
ATOM     13  N   UNL     1      -1.149   1.616   7.321  0.00  0.00    -0.145 NA
ATOM     14  N   UNL     1      -1.636   2.068   8.555  0.00  0.00    -0.226 N 
ATOM     15  H   UNL     1      -2.560   2.275   8.766  0.00  0.00    +0.194 HD
ATOM     16  C   UNL     1      -0.585   2.160   9.395  0.00  0.00    +0.345 A 
ATOM     17  O   UNL     1      -0.622   2.521  10.558  0.00  0.00    -0.245 OA
ATOM     18  N   UNL     1       0.514   1.776   8.715  0.00  0.00    -0.274 N 
ATOM     19  C   UNL     1       1.877   1.720   9.250  0.00  0.00    +0.156 C 
ENDBRANCH  11  12
ENDBRANCH   1  11
TORSDOF 5
