REMARK  Name = ZINC50671557
REMARK  9 active torsions:
REMARK  status: ('A' for Active; 'I' for Inactive)
REMARK    1  A    between atoms: C_1  and  C_2
REMARK    2  A    between atoms: C_2  and  C_3
REMARK    3  A    between atoms: C_3  and  C_5
REMARK    4  A    between atoms: C_3  and  N_8
REMARK    5  A    between atoms: C_5  and  C_6
REMARK    6  A    between atoms: C_5  and  C_7
REMARK    7  A    between atoms: N_8  and  S_9
REMARK    8  A    between atoms: S_9  and  C_12
REMARK    9  A    between atoms: C_13  and  N_20
REMARK                            x       y       z     vdW  Elec       q    Type
REMARK                         _______ _______ _______ _____ _____    ______ ____
ROOT
ATOM      1  S   UNL     1      -3.458   0.658   1.259  0.00  0.00    +0.078 S 
ATOM      2  O   UNL     1      -3.934   0.786   2.592  0.00  0.00    -0.151 OA
ATOM      3  O   UNL     1      -3.214   1.784   0.426  0.00  0.00    -0.151 OA
ENDROOT
BRANCH   1   4
ATOM      4  C   UNL     1      -4.617  -0.357   0.405  0.00  0.00    +0.220 A 
ATOM      5  C   UNL     1      -4.794  -0.415  -0.931  0.00  0.00    +0.163 A 
ATOM      6  N   UNL     1      -5.767  -1.305  -1.190  0.00  0.00    -0.205 NA
ATOM      7  C   UNL     1      -6.200  -1.800  -0.064  0.00  0.00    +0.181 A 
ATOM      8  N   UNL     1      -5.517  -1.253   0.989  0.00  0.00    -0.276 N 
ATOM      9  C   UNL     1      -5.863  -1.687   2.250  0.00  0.00    +0.102 A 
ATOM     10  C   UNL     1      -6.819  -2.600   2.419  0.00  0.00    +0.067 A 
ATOM     11  S   UNL     1      -7.327  -2.917   0.737  0.00  0.00    -0.058 S 
BRANCH   5  12
ATOM     12  N   UNL     1      -4.082   0.326  -1.887  0.00  0.00    -0.340 N 
ATOM     13  H   UNL     1      -3.394   0.948  -1.605  0.00  0.00    +0.144 HD
ATOM     14  H   UNL     1      -4.280   0.217  -2.831  0.00  0.00    +0.144 HD
ENDBRANCH   5  12
ENDBRANCH   1   4
BRANCH   1  15
ATOM     15  N   UNL     1      -2.036  -0.186   1.343  0.00  0.00    -0.185 NA
ATOM     16  H   UNL     1      -1.688  -0.466   2.204  0.00  0.00    +0.148 HD
BRANCH  15  17
ATOM     17  C   UNL     1      -1.303  -0.510   0.116  0.00  0.00    +0.079 C 
BRANCH  17  18
ATOM     18  C   UNL     1      -1.048  -2.017   0.057  0.00  0.00    +0.001 C 
ATOM     19  C   UNL     1      -2.377  -2.765   0.186  0.00  0.00    +0.009 C 
ATOM     20  C   UNL     1      -0.391  -2.372  -1.278  0.00  0.00    +0.009 C 
ENDBRANCH  17  18
BRANCH  17  22
ATOM     21  C   UNL     1      -0.221   1.741   0.043  0.00  0.00    +0.005 C 
ATOM     22  C   UNL     1       0.034   0.234   0.110  0.00  0.00    +0.017 C 
ENDBRANCH  17  22
ENDBRANCH  15  17
ENDBRANCH   1  15
TORSDOF 6
