REMARK  Name = ZINC04063440
REMARK  6 active torsions:
REMARK  status: ('A' for Active; 'I' for Inactive)
REMARK    1  A    between atoms: C_1  and  C_2
REMARK    2  A    between atoms: C_8  and  C_35
REMARK    3  A    between atoms: C_9  and  O_34
REMARK    4  A    between atoms: C_19  and  C_21
REMARK    5  A    between atoms: C_21  and  N_63
REMARK    6  A    between atoms: C_27  and  C_29
REMARK                            x       y       z     vdW  Elec       q    Type
REMARK                         _______ _______ _______ _____ _____    ______ ____
ROOT
ATOM      1  C   UNL     1      -1.029   1.008  -2.277  0.00  0.00    +0.008 C 
ATOM      2  C   UNL     1      -1.936   1.080  -1.057  0.00  0.00    -0.001 C 
ATOM      3  C   UNL     1      -1.286   0.383   0.134  0.00  0.00    +0.008 C 
ATOM      4  C   UNL     1      -2.143   0.671   1.374  0.00  0.00    +0.027 C 
ATOM      5  C   UNL     1      -3.546   0.205   1.099  0.00  0.00    -0.027 C 
ATOM      6  C   UNL     1      -4.048   0.136  -0.096  0.00  0.00    -0.061 C 
ATOM      7  C   UNL     1      -3.319   0.525  -1.355  0.00  0.00    +0.018 C 
ATOM      8  C   UNL     1      -3.288  -0.676  -2.284  0.00  0.00    +0.132 C 
ATOM      9  C   UNL     1      -4.568  -1.454  -2.401  0.00  0.00    +0.071 C 
ATOM     10  C   UNL     1      -5.400  -1.655  -1.135  0.00  0.00    +0.187 C 
ATOM     11  C   UNL     1      -5.457  -0.391  -0.270  0.00  0.00    +0.076 C 
ATOM     12  O   UNL     1      -6.764  -1.874  -1.634  0.00  0.00    -0.460 OA
ATOM     13  C   UNL     1      -6.919  -1.369  -2.866  0.00  0.00    +0.309 C 
ATOM     14  O   UNL     1      -7.971  -1.294  -3.466  0.00  0.00    -0.251 OA
ATOM     15  C   UNL     1      -5.577  -0.918  -3.421  0.00  0.00    +0.090 C 
ATOM     16  C   UNL     1      -4.101   1.666  -2.023  0.00  0.00    +0.018 C 
ENDROOT
BRANCH   8  17
ATOM     17  O   UNL     1      -2.273  -1.596  -1.850  0.00  0.00    -0.391 OA
ATOM     18  H   UNL     1      -2.199  -2.388  -2.401  0.00  0.00    +0.210 HD
ENDBRANCH   8  17
BRANCH  15  19
ATOM     19  C   UNL     1      -5.340  -1.555  -4.797  0.00  0.00    -0.064 C 
BRANCH  19  27
ATOM     20  C   UNL     1      -4.282   0.368  -5.819  0.00  0.00    -0.059 C 
ATOM     21  C   UNL     1      -2.929   0.946  -6.247  0.00  0.00    +0.089 C 
ATOM     22  N   UNL     1      -2.333   0.048  -7.247  0.00  0.00    -0.299 N 
ATOM     23  C   UNL     1      -2.242  -1.385  -6.929  0.00  0.00    +0.089 C 
ATOM     24  C   UNL     1      -3.622  -1.871  -6.474  0.00  0.00    -0.059 C 
ATOM     25  C   UNL     1      -1.881   0.525  -8.424  0.00  0.00    +0.282 C 
ATOM     26  O   UNL     1      -1.496  -0.244  -9.285  0.00  0.00    -0.267 OA
ATOM     27  N   UNL     1      -4.080  -1.021  -5.354  0.00  0.00    +0.382 N 
ATOM     28  H   UNL     1      -3.362  -1.025  -4.619  0.00  0.00    -0.082 HD
BRANCH  25  29
ATOM     29  C   UNL     1      -1.855   1.971  -8.667  0.00  0.00    +0.189 A 
ATOM     30  C   UNL     1      -1.556   2.580  -9.852  0.00  0.00    +0.054 A 
ATOM     31  C   UNL     1      -1.653   3.963  -9.631  0.00  0.00    +0.042 A 
ATOM     32  C   UNL     1      -2.003   4.135  -8.337  0.00  0.00    +0.196 A 
ATOM     33  O   UNL     1      -2.129   2.932  -7.761  0.00  0.00    -0.458 OA
ENDBRANCH  25  29
ENDBRANCH  19  27
ENDBRANCH  15  19
TORSDOF 4
