REMARK  Name = ZINC04267594
REMARK  2 active torsions:
REMARK  status: ('A' for Active; 'I' for Inactive)
REMARK    1  A    between atoms: C_4  and  C_7
REMARK    2  A    between atoms: C_10  and  C_20
REMARK                            x       y       z     vdW  Elec       q    Type
REMARK                         _______ _______ _______ _____ _____    ______ ____
ROOT
ATOM      1  C   UNL     1      -0.985   1.632  -1.024  0.00  0.00    +0.092 C 
ATOM      2  C   UNL     1      -2.440   1.303  -0.709  0.00  0.00    +0.042 C 
ATOM      3  C   UNL     1      -2.862   0.979   0.508  0.00  0.00    +0.197 C 
ATOM      4  O   UNL     1      -2.045   0.955   1.608  0.00  0.00    -0.457 OA
ATOM      5  C   UNL     1      -0.851   1.693   1.436  0.00  0.00    +0.307 C 
ATOM      6  C   UNL     1      -0.174   1.112   0.151  0.00  0.00    +0.248 C 
ATOM      7  O   UNL     1       1.151   1.677   0.334  0.00  0.00    -0.441 OA
ATOM      8  C   UNL     1       1.389   1.546   1.671  0.00  0.00    +0.403 C 
ATOM      9  O   UNL     1       2.499   1.469   2.160  0.00  0.00    -0.226 OA
ATOM     10  N   UNL     1       0.234   1.514   2.392  0.00  0.00    -0.243 N 
ATOM     11  H   UNL     1       0.150   1.395   3.351  0.00  0.00    +0.156 HD
ENDROOT
BRANCH   1  15
ATOM     12  C   UNL     1      -0.572   5.873  -1.328  0.00  0.00    +0.000 A 
ATOM     13  C   UNL     1       0.260   5.043  -2.056  0.00  0.00    +0.000 A 
ATOM     14  C   UNL     1       0.126   3.671  -1.958  0.00  0.00    +0.004 A 
ATOM     15  C   UNL     1      -0.839   3.128  -1.131  0.00  0.00    -0.037 A 
ATOM     16  C   UNL     1      -1.674   3.958  -0.406  0.00  0.00    +0.004 A 
ATOM     17  C   UNL     1      -1.537   5.330  -0.500  0.00  0.00    +0.000 A 
ENDBRANCH   1  15
BRANCH   3  18
ATOM     18  C   UNL     1      -4.242   0.638   0.680  0.00  0.00    +0.137 C 
ATOM     19  N   UNL     1      -5.337   0.367   0.817  0.00  0.00    -0.188 NA
ENDBRANCH   3  18
TORSDOF 2
