REMARK  Name = ZINC34717525
REMARK  5 active torsions:
REMARK  status: ('A' for Active; 'I' for Inactive)
REMARK    1  A    between atoms: C_1  and  C_2
REMARK    2  A    between atoms: C_5  and  O_22
REMARK    3  A    between atoms: C_6  and  N_8
REMARK    4  A    between atoms: C_9  and  C_11
REMARK    5  A    between atoms: O_22  and  C_23
REMARK                            x       y       z     vdW  Elec       q    Type
REMARK                         _______ _______ _______ _____ _____    ______ ____
ROOT
ATOM      1  N   UNL     1       0.050  -2.795   2.399  0.00  0.00    -0.281 N 
ATOM      2  C   UNL     1       0.149  -2.130   3.568  0.00  0.00    +0.235 C 
ATOM      3  O   UNL     1       0.134  -0.917   3.579  0.00  0.00    -0.274 OA
ATOM      4  H   UNL     1      -0.018  -3.762   2.396  0.00  0.00    +0.155 HD
ENDROOT
BRANCH   2   5
ATOM      5  C   UNL     1       0.279  -2.894   4.860  0.00  0.00    +0.145 C 
ATOM      6  C   UNL     1      -1.099  -3.381   5.310  0.00  0.00    +0.063 C 
ATOM      7  C   UNL     1      -1.019  -3.931   6.710  0.00  0.00    -0.041 A 
ATOM      8  C   UNL     1      -2.052  -4.736   7.165  0.00  0.00    +0.004 A 
ATOM      9  C   UNL     1      -2.020  -5.257   8.443  0.00  0.00    +0.000 A 
ATOM     10  C   UNL     1      -0.952  -4.974   9.274  0.00  0.00    +0.000 A 
ATOM     11  C   UNL     1       0.078  -4.175   8.822  0.00  0.00    +0.005 A 
ATOM     12  C   UNL     1       0.048  -3.652   7.537  0.00  0.00    -0.030 A 
ATOM     13  C   UNL     1       1.201  -2.794   7.085  0.00  0.00    +0.117 C 
ATOM     14  N   UNL     1       0.830  -2.013   5.902  0.00  0.00    -0.301 NA
ATOM     15  H   UNL     1       1.617  -1.487   5.552  0.00  0.00    +0.123 HD
ENDBRANCH   2   5
BRANCH   1  21
ATOM     16  C   UNL     1       1.263   1.227  -0.157  0.00  0.00    +0.044 C 
ATOM     17  C   UNL     1       0.627  -0.137  -0.079  0.00  0.00    -0.048 A 
ATOM     18  C   UNL     1       0.040  -0.689  -1.202  0.00  0.00    +0.007 A 
ATOM     19  C   UNL     1      -0.546  -1.940  -1.136  0.00  0.00    +0.048 A 
ATOM     20  C   UNL     1      -0.545  -2.643   0.058  0.00  0.00    +0.141 A 
ATOM     21  C   UNL     1       0.047  -2.088   1.189  0.00  0.00    +0.076 A 
ATOM     22  C   UNL     1       0.637  -0.835   1.114  0.00  0.00    +0.030 A 
BRANCH  20  23
ATOM     23  O   UNL     1      -1.121  -3.873   0.124  0.00  0.00    -0.493 OA
ATOM     24  C   UNL     1      -1.709  -4.380  -1.076  0.00  0.00    +0.277 C 
ENDBRANCH  20  23
ENDBRANCH   1  21
TORSDOF 3
