REMARK  Name = ZINC51120897
REMARK  5 active torsions:
REMARK  status: ('A' for Active; 'I' for Inactive)
REMARK    1  A    between atoms: C_3  and  N_19
REMARK    2  A    between atoms: C_4  and  C_9
REMARK    3  A    between atoms: C_6  and  N_7
REMARK    4  A    between atoms: N_7  and  N_8
REMARK    5  A    between atoms: C_15  and  O_18
REMARK                            x       y       z     vdW  Elec       q    Type
REMARK                         _______ _______ _______ _____ _____    ______ ____
ROOT
ATOM      1  C   UNL     1      -0.029   1.384   0.089  0.00  0.00    +0.026 A 
ATOM      2  C   UNL     1       0.829   1.622  -0.969  0.00  0.00    +0.035 A 
ATOM      3  C   UNL     1       2.046   0.976  -1.035  0.00  0.00    +0.138 A 
ATOM      4  C   UNL     1       2.415   0.077  -0.032  0.00  0.00    +0.069 A 
ATOM      5  C   UNL     1       1.550  -0.163   1.035  0.00  0.00    +0.039 A 
ATOM      6  C   UNL     1       0.329   0.492   1.092  0.00  0.00    +0.042 A 
ENDROOT
BRANCH   4   7
ATOM      7  C   UNL     1       3.719  -0.617  -0.101  0.00  0.00    +0.249 C 
ATOM      8  O   UNL     1       4.751   0.023  -0.060  0.00  0.00    -0.270 OA
ATOM      9  N   UNL     1       3.762  -1.960  -0.208  0.00  0.00    -0.295 N 
ATOM     10  C   UNL     1       2.528  -2.736  -0.392  0.00  0.00    +0.108 C 
ATOM     11  C   UNL     1       2.686  -3.627  -1.628  0.00  0.00    +0.021 C 
ATOM     12  C   UNL     1       3.949  -4.479  -1.480  0.00  0.00    +0.034 C 
ATOM     13  C   UNL     1       5.174  -3.567  -1.382  0.00  0.00    +0.132 C 
ATOM     14  C   UNL     1       5.044  -2.674  -0.150  0.00  0.00    +0.139 C 
BRANCH  13  15
ATOM     15  O   UNL     1       6.355  -4.364  -1.275  0.00  0.00    -0.390 OA
ATOM     16  H   UNL     1       7.171  -3.850  -1.210  0.00  0.00    +0.210 HD
ENDBRANCH  13  15
ENDBRANCH   4   7
BRANCH   3  17
ATOM     17  N   UNL     1       2.961   1.234  -2.170  0.00  0.00    +0.057 N 
ATOM     18  O   UNL     1       2.608   1.948  -3.080  0.00  0.00    -0.126 OA
ATOM     19  O   UNL     1       4.060   0.731  -2.187  0.00  0.00    -0.126 OA
ENDBRANCH   3  17
BRANCH   6  20
ATOM     20  N   UNL     1      -0.542   0.255   2.159  0.00  0.00    -0.283 N 
ATOM     21  H   UNL     1      -0.292  -0.367   2.860  0.00  0.00    +0.166 HD
BRANCH  20  22
ATOM     22  N   UNL     1      -1.744   0.901   2.216  0.00  0.00    -0.257 NA
ATOM     23  H   UNL     1      -2.284   0.735   1.379  0.00  0.00    +0.140 HD
ATOM     24  H   UNL     1      -2.261   0.630   3.039  0.00  0.00    +0.140 HD
ENDBRANCH  20  22
ENDBRANCH   6  20
TORSDOF 5
