REMARK  Name = ZINC20897307
REMARK  11 active torsions:
REMARK  status: ('A' for Active; 'I' for Inactive)
REMARK    1  A    between atoms: C_1  and  C_2
REMARK    2  A    between atoms: C_2  and  C_3
REMARK    3  A    between atoms: C_3  and  N_4
REMARK    4  A    between atoms: N_4  and  C_5
REMARK    5  A    between atoms: C_6  and  N_21
REMARK    6  A    between atoms: N_7  and  C_14
REMARK    7  A    between atoms: C_14  and  C_15
REMARK    8  A    between atoms: C_22  and  C_24
REMARK    9  A    between atoms: C_24  and  S_25
REMARK   10  A    between atoms: S_25  and  C_26
REMARK   11  A    between atoms: C_28  and  C_31
REMARK                            x       y       z     vdW  Elec       q    Type
REMARK                         _______ _______ _______ _____ _____    ______ ____
ROOT
ATOM      1  C   UNL     1      -7.305   4.178   6.349  0.00  0.00    +0.140 A 
ATOM      2  C   UNL     1      -8.006   5.150   5.666  0.00  0.00    +0.128 A 
ATOM      3  N   UNL     1      -9.250   5.525   6.118  0.00  0.00    -0.276 N 
ATOM      4  C   UNL     1      -9.773   4.956   7.219  0.00  0.00    +0.331 A 
ATOM      5  O   UNL     1     -10.872   5.305   7.606  0.00  0.00    -0.246 OA
ATOM      6  N   UNL     1      -9.102   4.011   7.901  0.00  0.00    -0.273 N 
ATOM      7  H   UNL     1      -9.549   3.559   8.799  0.00  0.00    +0.173 HD
ATOM      8  C   UNL     1      -7.883   3.605   7.497  0.00  0.00    +0.277 A 
ATOM      9  O   UNL     1      -7.283   2.746   8.123  0.00  0.00    -0.266 OA
ENDROOT
BRANCH   1  10
ATOM     10  N   UNL     1      -6.029   3.769   5.908  0.00  0.00    -0.264 N 
ATOM     11  C   UNL     1      -5.889   3.178   4.703  0.00  0.00    +0.230 C 
ATOM     12  O   UNL     1      -6.869   2.921   4.036  0.00  0.00    -0.274 OA
BRANCH  10  13
ATOM     13  C   UNL     1      -4.855   3.988   6.758  0.00  0.00    +0.114 C 
BRANCH  13  15
ATOM     14  C   UNL     1      -3.045   5.600   7.361  0.00  0.00    +0.005 C 
ATOM     15  C   UNL     1      -4.270   5.372   6.473  0.00  0.00    +0.016 C 
ENDBRANCH  13  15
ENDBRANCH  10  13
BRANCH  11  16
ATOM     16  C   UNL     1      -4.515   2.835   4.187  0.00  0.00    +0.172 C 
BRANCH  16  17
ATOM     17  S   UNL     1      -4.659   2.058   2.559  0.00  0.00    -0.089 S 
BRANCH  17  18
ATOM     18  C   UNL     1      -2.956   1.772   2.205  0.00  0.00    +0.135 A 
ATOM     19  N   UNL     1      -2.413   1.224   1.134  0.00  0.00    -0.238 NA
ATOM     20  C   UNL     1      -1.105   1.080   1.031  0.00  0.00    +0.047 A 
ATOM     21  C   UNL     1      -0.324   1.519   2.047  0.00  0.00    +0.070 A 
ATOM     22  S   UNL     1      -1.563   2.146   3.172  0.00  0.00    -0.069 S 
ATOM     23  C   UNL     1      -0.493   0.448  -0.193  0.00  0.00    +0.066 C 
ENDBRANCH  17  18
ENDBRANCH  16  17
ENDBRANCH  11  16
ENDBRANCH   1  10
BRANCH   2  24
ATOM     24  N   UNL     1      -7.469   5.735   4.544  0.00  0.00    -0.343 N 
ATOM     25  H   UNL     1      -8.033   6.510   4.004  0.00  0.00    +0.144 HD
ATOM     26  H   UNL     1      -6.475   5.429   4.186  0.00  0.00    +0.144 HD
ENDBRANCH   2  24
BRANCH   3  27
ATOM     27  C   UNL     1     -10.007   6.553   5.399  0.00  0.00    +0.163 C 
BRANCH  27  28
ATOM     28  C   UNL     1      -9.665   7.910   5.957  0.00  0.00    -0.028 A 
ATOM     29  C   UNL     1     -10.403   8.434   7.003  0.00  0.00    +0.005 A 
ATOM     30  C   UNL     1     -10.086   9.677   7.517  0.00  0.00    +0.000 A 
ATOM     31  C   UNL     1      -9.039  10.401   6.980  0.00  0.00    +0.000 A 
ATOM     32  C   UNL     1      -8.304   9.880   5.931  0.00  0.00    +0.000 A 
ATOM     33  C   UNL     1      -8.617   8.634   5.420  0.00  0.00    +0.005 A 
ENDBRANCH  27  28
ENDBRANCH   3  27
TORSDOF 9
