REMARK  Name = ZINC45293384
REMARK  10 active torsions:
REMARK  status: ('A' for Active; 'I' for Inactive)
REMARK    1  A    between atoms: C_1  and  C_2
REMARK    2  A    between atoms: C_2  and  C_3
REMARK    3  A    between atoms: C_2  and  C_4
REMARK    4  A    between atoms: C_4  and  C_5
REMARK    5  A    between atoms: C_5  and  C_7
REMARK    6  A    between atoms: C_5  and  N_14
REMARK    7  A    between atoms: N_9  and  C_10
REMARK    8  A    between atoms: C_10  and  C_11
REMARK    9  A    between atoms: C_11  and  C_12
REMARK   10  A    between atoms: C_11  and  C_13
REMARK                            x       y       z     vdW  Elec       q    Type
REMARK                         _______ _______ _______ _____ _____    ______ ____
ROOT
ATOM      1  C   UNL     1      -2.135  -0.131  -1.286  0.00  0.00    +0.170 C 
ENDROOT
BRANCH   1   2
ATOM      2  N   UNL     1      -1.486  -0.796  -2.418  0.00  0.00    -0.230 N 
ATOM      3  C   UNL     1      -1.409  -2.146  -2.545  0.00  0.00    +0.227 C 
ATOM      4  O   UNL     1      -2.015  -2.973  -1.899  0.00  0.00    -0.275 OA
ATOM      5  C   UNL     1      -0.424  -2.408  -3.644  0.00  0.00    +0.091 C 
ATOM      6  C   UNL     1      -0.658  -3.599  -4.549  0.00  0.00    +0.040 C 
ATOM      7  C   UNL     1       0.250  -3.427  -5.748  0.00  0.00    -0.030 C 
ATOM      8  C   UNL     1       0.798  -2.302  -6.096  0.00  0.00    -0.030 C 
ATOM      9  C   UNL     1       0.591  -0.989  -5.371  0.00  0.00    +0.040 C 
ATOM     10  C   UNL     1      -0.642  -1.134  -4.517  0.00  0.00    +0.091 C 
ATOM     11  C   UNL     1      -0.907  -0.121  -3.446  0.00  0.00    +0.227 C 
ATOM     12  O   UNL     1      -0.653   1.064  -3.487  0.00  0.00    -0.275 OA
ENDBRANCH   1   2
BRANCH   1  13
ATOM     13  C   UNL     1      -3.583  -0.545  -1.223  0.00  0.00    +0.234 C 
ATOM     14  O   UNL     1      -4.028  -1.319  -2.044  0.00  0.00    -0.274 OA
ATOM     15  N   UNL     1      -4.383  -0.056  -0.256  0.00  0.00    -0.314 N 
ATOM     16  H   UNL     1      -4.027   0.564   0.401  0.00  0.00    +0.149 HD
BRANCH  15  17
ATOM     17  C   UNL     1      -5.790  -0.458  -0.195  0.00  0.00    +0.107 C 
BRANCH  17  18
ATOM     18  C   UNL     1      -6.469   0.236   0.988  0.00  0.00    -0.000 C 
ATOM     19  C   UNL     1      -7.965  -0.086   0.978  0.00  0.00    +0.009 C 
ATOM     20  C   UNL     1      -5.849  -0.262   2.295  0.00  0.00    +0.009 C 
ENDBRANCH  17  18
ENDBRANCH  15  17
ENDBRANCH   1  13
BRANCH   1  21
ATOM     21  C   UNL     1      -1.433  -0.534   0.013  0.00  0.00    +0.035 C 
BRANCH  21  23
ATOM     22  C   UNL     1      -0.019   1.526   0.010  0.00  0.00    +0.007 C 
ATOM     23  C   UNL     1       0.002  -0.004   0.002  0.00  0.00    -0.015 C 
ATOM     24  C   UNL     1       0.742  -0.511   1.242  0.00  0.00    +0.007 C 
ENDBRANCH  21  23
ENDBRANCH   1  21
TORSDOF 6
