REMARK  Name = ZINC21242905
REMARK  7 active torsions:
REMARK  status: ('A' for Active; 'I' for Inactive)
REMARK    1  A    between atoms: C_1  and  C_2
REMARK    2  A    between atoms: C_9  and  C_16
REMARK    3  A    between atoms: C_11  and  O_12
REMARK    4  A    between atoms: C_16  and  S_17
REMARK    5  A    between atoms: S_17  and  C_18
REMARK    6  A    between atoms: C_21  and  C_29
REMARK    7  A    between atoms: N_22  and  C_23
REMARK                            x       y       z     vdW  Elec       q    Type
REMARK                         _______ _______ _______ _____ _____    ______ ____
ROOT
ATOM      1  C   UNL     1      -2.193   1.470   0.609  0.00  0.00    +0.109 C 
ATOM      2  C   UNL     1      -2.168  -0.036   0.609  0.00  0.00    +0.214 C 
ATOM      3  O   UNL     1      -3.058  -0.658   1.150  0.00  0.00    -0.276 OA
ATOM      4  N   UNL     1      -1.156  -0.694   0.009  0.00  0.00    -0.286 N 
ATOM      5  C   UNL     1      -1.081  -2.085   0.091  0.00  0.00    +0.037 A 
ATOM      6  C   UNL     1       0.164  -2.708   0.166  0.00  0.00    +0.024 A 
ATOM      7  C   UNL     1       0.253  -4.066   0.253  0.00  0.00    +0.013 A 
ATOM      8  C   UNL     1      -0.913  -4.841   0.254  0.00  0.00    +0.022 A 
ATOM      9  C   UNL     1      -0.848  -6.301   0.341  0.00  0.00    -0.020 A 
ATOM     10  C   UNL     1      -2.014  -6.998   0.339  0.00  0.00    +0.092 A 
ATOM     11  C   UNL     1      -3.242  -6.309   0.254  0.00  0.00    +0.285 A 
ATOM     12  O   UNL     1      -3.295  -4.971   0.176  0.00  0.00    -0.425 OA
ATOM     13  C   UNL     1      -2.173  -4.219   0.173  0.00  0.00    +0.141 A 
ATOM     14  C   UNL     1      -2.246  -2.837   0.092  0.00  0.00    +0.070 A 
ATOM     15  H   UNL     1      -0.388  -0.134  -0.545  0.00  0.00    +0.155 HD
ENDROOT
BRANCH  11  16
ATOM     16  O   UNL     1      -4.280  -6.946   0.253  0.00  0.00    -0.480 OA
ATOM     17  H   UNL     1      -5.246  -6.423   0.188  0.00  0.00    +0.295 HD
ENDBRANCH  11  16
BRANCH   9  18
ATOM     18  C   UNL     1       0.478  -7.013   0.429  0.00  0.00    +0.113 C 
BRANCH  18  19
ATOM     19  S   UNL     1       1.070  -7.395  -1.238  0.00  0.00    -0.081 S 
BRANCH  19  20
ATOM     20  C   UNL     1       2.589  -8.198  -0.846  0.00  0.00    +0.196 A 
ATOM     21  N   UNL     1       3.074  -8.408   0.355  0.00  0.00    -0.122 NA
ATOM     22  N   UNL     1       4.199  -9.024   0.272  0.00  0.00    -0.133 NA
ATOM     23  C   UNL     1       4.504  -9.235  -0.978  0.00  0.00    +0.142 A 
ATOM     24  N   UNL     1       3.488  -8.717  -1.737  0.00  0.00    -0.274 N 
BRANCH  24  25
ATOM     25  C   UNL     1       3.392  -8.717  -3.136  0.00  0.00    +0.050 A 
ATOM     26  C   UNL     1       3.279  -9.916  -3.825  0.00  0.00    +0.026 A 
ATOM     27  C   UNL     1       3.179  -9.913  -5.203  0.00  0.00    +0.002 A 
ATOM     28  C   UNL     1       3.202  -8.717  -5.896  0.00  0.00    +0.000 A 
ATOM     29  C   UNL     1       3.320  -7.521  -5.213  0.00  0.00    +0.002 A 
ATOM     30  C   UNL     1       3.414  -7.518  -3.835  0.00  0.00    +0.026 A 
ENDBRANCH  24  25
BRANCH  23  31
ATOM     31  C   UNL     1       5.742  -9.923  -1.491  0.00  0.00    +0.057 C 
ATOM     32  C   UNL     1       6.648 -10.606  -0.465  0.00  0.00    +0.012 C 
ATOM     33  C   UNL     1       7.094  -9.303  -1.132  0.00  0.00    +0.012 C 
ENDBRANCH  23  31
ENDBRANCH  19  20
ENDBRANCH  18  19
ENDBRANCH   9  18
TORSDOF 6
