REMARK  Name = ZINC67373904
REMARK  4 active torsions:
REMARK  status: ('A' for Active; 'I' for Inactive)
REMARK    1  A    between atoms: C_6  and  C_7
REMARK    2  A    between atoms: C_7  and  C_9
REMARK    3  A    between atoms: C_7  and  O_24
REMARK    4  A    between atoms: N_12  and  C_15
REMARK                            x       y       z     vdW  Elec       q    Type
REMARK                         _______ _______ _______ _____ _____    ______ ____
ROOT
ATOM      1  C   UNL     1      -1.653  -1.152   1.449  0.00  0.00    +0.025 C 
ATOM      2  C   UNL     1      -0.538  -2.016   2.044  0.00  0.00    +0.025 C 
ATOM      3  C   UNL     1      -0.885  -2.362   3.495  0.00  0.00    +0.105 C 
ATOM      4  N   UNL     1      -2.216  -2.986   3.527  0.00  0.00    -0.326 N 
ATOM      5  C   UNL     1      -3.342  -2.280   2.902  0.00  0.00    +0.105 C 
ATOM      6  C   UNL     1      -2.967  -1.934   1.458  0.00  0.00    +0.025 C 
ENDROOT
BRANCH   4   7
ATOM      7  C   UNL     1      -2.406  -4.237   4.145  0.00  0.00    +0.099 A 
ATOM      8  C   UNL     1      -2.733  -4.444   5.446  0.00  0.00    +0.130 A 
ATOM      9  N   UNL     1      -2.822  -5.787   5.637  0.00  0.00    -0.281 N 
ATOM     10  H   UNL     1      -3.041  -6.232   6.471  0.00  0.00    +0.188 HD
ATOM     11  N   UNL     1      -2.541  -6.415   4.417  0.00  0.00    -0.147 NA
ATOM     12  C   UNL     1      -2.299  -5.489   3.524  0.00  0.00    +0.256 A 
ATOM     13  N   UNL     1      -1.964  -5.725   2.101  0.00  0.00    +0.079 N 
ATOM     14  O   UNL     1      -1.756  -4.788   1.366  0.00  0.00    -0.124 OA
ATOM     15  O   UNL     1      -1.900  -6.854   1.674  0.00  0.00    -0.124 OA
ENDBRANCH   4   7
BRANCH   1  16
ATOM     16  C   UNL     1      -1.293  -0.775   0.011  0.00  0.00    +0.148 C 
BRANCH  16  22
ATOM     17  C   UNL     1      -0.017   1.378   0.010  0.00  0.00    +0.007 A 
ATOM     18  C   UNL     1       1.171   2.086   0.002  0.00  0.00    +0.020 A 
ATOM     19  C   UNL     1       2.378   1.410  -0.013  0.00  0.00    +0.041 A 
ATOM     20  C   UNL     1       2.396   0.027  -0.021  0.00  0.00    +0.020 A 
ATOM     21  C   UNL     1       1.208  -0.679  -0.013  0.00  0.00    +0.007 A 
ATOM     22  C   UNL     1       0.002  -0.004   0.002  0.00  0.00    -0.019 A 
ATOM     23 CL   UNL     1       3.870   2.298  -0.023  0.00  0.00    -0.084 Cl
ENDBRANCH  16  22
BRANCH  16  24
ATOM     24  O   UNL     1      -1.145  -1.963  -0.770  0.00  0.00    -0.387 OA
ATOM     25  H   UNL     1      -0.455  -2.560  -0.450  0.00  0.00    +0.210 HD
ENDBRANCH  16  24
ENDBRANCH   1  16
TORSDOF 4
