REMARK  Name = ZINC50224983
REMARK  8 active torsions:
REMARK  status: ('A' for Active; 'I' for Inactive)
REMARK    1  A    between atoms: C_1  and  C_2
REMARK    2  A    between atoms: C_2  and  C_3
REMARK    3  A    between atoms: C_2  and  C_4
REMARK    4  A    between atoms: C_2  and  C_5
REMARK    5  A    between atoms: C_7  and  C_10
REMARK    6  A    between atoms: C_10  and  N_11
REMARK    7  A    between atoms: C_13  and  C_16
REMARK    8  A    between atoms: C_16  and  N_17
REMARK                            x       y       z     vdW  Elec       q    Type
REMARK                         _______ _______ _______ _____ _____    ______ ____
ROOT
ATOM      1  C   UNL     1       3.576  -0.751  -3.427  0.00  0.00    +0.224 C 
ENDROOT
BRANCH   1   4
ATOM      2  C   UNL     1       0.707  -0.490  -1.238  0.00  0.00    +0.233 A 
ATOM      3  N   UNL     1       1.943  -0.232  -1.565  0.00  0.00    -0.194 NA
ATOM      4  C   UNL     1       2.243  -0.821  -2.728  0.00  0.00    +0.193 A 
ATOM      5  N   UNL     1       1.196  -1.464  -3.157  0.00  0.00    -0.059 NA
ATOM      6  O   UNL     1       0.175  -1.266  -2.191  0.00  0.00    -0.337 OA
BRANCH   2   8
ATOM      7  C   UNL     1      -0.019   1.526   0.010  0.00  0.00    +0.020 C 
ATOM      8  C   UNL     1       0.002  -0.004   0.002  0.00  0.00    +0.041 C 
ATOM      9  C   UNL     1       0.742  -0.511   1.242  0.00  0.00    +0.020 C 
ATOM     10  C   UNL     1      -1.433  -0.534   0.013  0.00  0.00    +0.020 C 
ENDBRANCH   2   8
ENDBRANCH   1   4
BRANCH   1  11
ATOM     11  N   UNL     1       4.423  -1.858  -2.975  0.00  0.00    -0.244 N 
ATOM     12  C   UNL     1       5.027  -2.770  -3.771  0.00  0.00    +0.132 A 
ATOM     13  C   UNL     1       5.704  -3.602  -2.945  0.00  0.00    +0.066 A 
ATOM     14  N   UNL     1       5.484  -3.164  -1.701  0.00  0.00    -0.136 NA
ATOM     15  N   UNL     1       4.726  -2.126  -1.753  0.00  0.00    -0.065 NA
BRANCH  13  16
ATOM     16  C   UNL     1       6.540  -4.789  -3.348  0.00  0.00    -0.027 C 
BRANCH  16  17
ATOM     17  N   UNL     1       7.948  -4.383  -3.454  0.00  0.00    +0.382 N 
ATOM     18  H   UNL     1       8.038  -3.657  -4.149  0.00  0.00    -0.090 HD
ATOM     19  H   UNL     1       8.266  -4.035  -2.561  0.00  0.00    -0.090 HD
ATOM     20  H   UNL     1       8.508  -5.178  -3.724  0.00  0.00    -0.090 HD
ENDBRANCH  16  17
ENDBRANCH  13  16
ENDBRANCH   1  11
TORSDOF 5
