REMARK  Name = ZINC44924287
REMARK  4 active torsions:
REMARK  status: ('A' for Active; 'I' for Inactive)
REMARK    1  A    between atoms: C_1  and  C_2
REMARK    2  A    between atoms: C_2  and  N_9
REMARK    3  A    between atoms: N_9  and  C_10
REMARK    4  A    between atoms: C_15  and  N_16
REMARK                            x       y       z     vdW  Elec       q    Type
REMARK                         _______ _______ _______ _____ _____    ______ ____
ROOT
ATOM      1  C   UNL     1      -2.238  -0.018  -1.065  0.00  0.00    +0.050 A 
ATOM      2  C   UNL     1      -1.697   0.616  -2.170  0.00  0.00    +0.048 A 
ATOM      3  C   UNL     1      -2.515   0.987  -3.235  0.00  0.00    +0.039 A 
ATOM      4  C   UNL     1      -3.875   0.712  -3.170  0.00  0.00    -0.016 A 
ATOM      5  C   UNL     1      -4.420   0.081  -2.073  0.00  0.00    +0.030 A 
ATOM      6  C   UNL     1      -3.605  -0.294  -1.014  0.00  0.00    +0.046 A 
ATOM      7  C   UNL     1      -4.476   1.231  -4.457  0.00  0.00    +0.133 C 
ATOM      8  C   UNL     1      -3.295   1.808  -5.209  0.00  0.00    +0.222 C 
ATOM      9  O   UNL     1      -3.325   2.335  -6.301  0.00  0.00    -0.275 OA
ATOM     10  N   UNL     1      -2.209   1.628  -4.439  0.00  0.00    -0.285 N 
ATOM     11  H   UNL     1      -1.315   1.909  -4.690  0.00  0.00    +0.155 HD
ENDROOT
BRANCH   6  12
ATOM     12  N   UNL     1      -4.152  -0.942   0.102  0.00  0.00    -0.357 N 
ATOM     13  H   UNL     1      -3.581  -1.200   0.843  0.00  0.00    +0.142 HD
ATOM     14  H   UNL     1      -5.103  -1.132   0.135  0.00  0.00    +0.142 HD
ENDBRANCH   6  12
BRANCH   1  15
ATOM     15  N   UNL     1      -1.411  -0.389   0.003  0.00  0.00    -0.335 N 
ATOM     16  H   UNL     1      -1.793  -0.812   0.788  0.00  0.00    +0.147 HD
BRANCH  15  18
ATOM     17  C   UNL     1       0.612  -0.946  -1.227  0.00  0.00    +0.033 C 
ATOM     18  C   UNL     1       0.030  -0.137  -0.066  0.00  0.00    +0.050 C 
ATOM     19  C   UNL     1       0.670  -0.619   1.235  0.00  0.00    +0.049 C 
ATOM     20  C   UNL     1       1.953   0.204   1.541  0.00  0.00    +0.168 C 
ATOM     21  S   UNL     1       1.375   1.879   1.024  0.00  0.00    -0.029 S 
ATOM     22  O   UNL     1       2.470   2.606   0.483  0.00  0.00    -0.174 OA
ATOM     23  O   UNL     1       0.601   2.450   2.070  0.00  0.00    -0.174 OA
ATOM     24  C   UNL     1       0.257   1.361  -0.345  0.00  0.00    +0.191 C 
ENDBRANCH  15  18
ENDBRANCH   1  15
TORSDOF 3
