REMARK  Name = ZINC38507937
REMARK  6 active torsions:
REMARK  status: ('A' for Active; 'I' for Inactive)
REMARK    1  A    between atoms: C_1  and  C_2
REMARK    2  A    between atoms: C_4  and  C_10
REMARK    3  A    between atoms: N_6  and  C_7
REMARK    4  A    between atoms: C_7  and  C_8
REMARK    5  A    between atoms: C_7  and  C_9
REMARK    6  A    between atoms: C_15  and  C_18
REMARK                            x       y       z     vdW  Elec       q    Type
REMARK                         _______ _______ _______ _____ _____    ______ ____
ROOT
ATOM      1  C   UNL     1       0.041  -3.365  -1.397  0.00  0.00    +0.270 C 
ATOM      2  O   UNL     1       0.035  -3.304  -2.611  0.00  0.00    -0.268 OA
ATOM      3  N   UNL     1       0.060  -4.565  -0.784  0.00  0.00    -0.259 N 
ATOM      4  C   UNL     1       0.072  -5.731  -1.538  0.00  0.00    +0.165 A 
ATOM      5  N   UNL     1       0.086  -6.987  -1.133  0.00  0.00    -0.224 NA
ATOM      6  C   UNL     1       0.096  -7.989  -2.000  0.00  0.00    +0.087 A 
ATOM      7  C   UNL     1       0.093  -7.715  -3.341  0.00  0.00    +0.077 A 
ATOM      8  S   UNL     1       0.066  -5.928  -3.314  0.00  0.00    -0.060 S 
ATOM      9  H   UNL     1       0.065  -4.614   0.185  0.00  0.00    +0.157 HD
ENDROOT
BRANCH   6  10
ATOM     10  C   UNL     1       0.111  -9.391  -1.523  0.00  0.00    +0.086 A 
ATOM     11  C   UNL     1       0.109  -9.690  -0.181  0.00  0.00    +0.028 A 
ATOM     12  C   UNL     1       0.125 -11.106   0.194  0.00  0.00    +0.018 A 
ATOM     13  C   UNL     1      -0.142 -11.504   1.509  0.00  0.00    +0.011 A 
ATOM     14  C   UNL     1      -0.123 -12.831   1.833  0.00  0.00    +0.001 A 
ATOM     15  C   UNL     1       0.158 -13.788   0.868  0.00  0.00    +0.004 A 
ATOM     16  C   UNL     1       0.425 -13.417  -0.434  0.00  0.00    +0.047 A 
ATOM     17  C   UNL     1       0.413 -12.075  -0.785  0.00  0.00    +0.139 A 
ATOM     18  O   UNL     1       0.678 -11.688  -2.055  0.00  0.00    -0.422 OA
ATOM     19  C   UNL     1       0.123 -10.522  -2.467  0.00  0.00    +0.347 A 
ATOM     20  O   UNL     1      -0.347 -10.411  -3.584  0.00  0.00    -0.244 OA
ENDBRANCH   6  10
BRANCH   1  24
ATOM     21  C   UNL     1      -0.018   1.503   0.010  0.00  0.00    +0.065 C 
ATOM     22  C   UNL     1       0.002  -0.004   0.002  0.00  0.00    +0.037 A 
ATOM     23  C   UNL     1       0.009  -0.801  -1.092  0.00  0.00    +0.057 A 
ATOM     24  C   UNL     1       0.029  -2.126  -0.595  0.00  0.00    +0.148 A 
ATOM     25  N   UNL     1       0.033  -2.043   0.721  0.00  0.00    -0.166 NA
ATOM     26  N   UNL     1       0.023  -0.811   1.085  0.00  0.00    -0.265 N 
BRANCH  26  27
ATOM     27  C   UNL     1       0.031  -0.348   2.475  0.00  0.00    +0.101 C 
ATOM     28  C   UNL     1      -1.205  -0.887   3.198  0.00  0.00    +0.032 C 
ATOM     29  C   UNL     1       1.294  -0.854   3.174  0.00  0.00    +0.032 C 
ENDBRANCH  26  27
ENDBRANCH   1  24
TORSDOF 3
