REMARK  Name = ZINC49752681
REMARK  3 active torsions:
REMARK  status: ('A' for Active; 'I' for Inactive)
REMARK    1  A    between atoms: C_18  and  C_20
REMARK    2  A    between atoms: C_20  and  C_21
REMARK    3  A    between atoms: C_21  and  O_22
REMARK                            x       y       z     vdW  Elec       q    Type
REMARK                         _______ _______ _______ _____ _____    ______ ____
ROOT
ATOM      1  C   UNL     1       0.734   0.650   1.720  0.00  0.00    +0.224 A 
ATOM      2  N   UNL     1       1.819   1.334   1.399  0.00  0.00    -0.220 NA
ATOM      3  C   UNL     1       2.235   1.448   0.148  0.00  0.00    +0.133 A 
ATOM      4  C   UNL     1       1.491   0.816  -0.886  0.00  0.00    +0.051 A 
ATOM      5  C   UNL     1       1.761   0.807  -2.334  0.00  0.00    -0.025 A 
ATOM      6  C   UNL     1       0.898   0.130  -3.108  0.00  0.00    -0.004 A 
ATOM      7  S   UNL     1      -0.310  -0.534  -1.984  0.00  0.00    -0.073 S 
ATOM      8  C   UNL     1       0.350   0.107  -0.469  0.00  0.00    +0.114 A 
ATOM      9  N   UNL     1       0.005   0.043   0.803  0.00  0.00    -0.228 NA
ATOM     10  C   UNL     1       1.270   0.194  -4.565  0.00  0.00    +0.043 C 
ATOM     11  C   UNL     1       2.262   1.374  -4.660  0.00  0.00    +0.010 C 
ATOM     12  C   UNL     1       2.844   1.409  -3.234  0.00  0.00    +0.037 C 
ATOM     13  N   UNL     1       3.375   2.173  -0.150  0.00  0.00    -0.311 N 
ATOM     14  C   UNL     1       4.678   1.504  -0.264  0.00  0.00    +0.107 C 
ATOM     15  C   UNL     1       5.676   2.207   0.662  0.00  0.00    +0.019 C 
ATOM     16  C   UNL     1       5.706   3.701   0.332  0.00  0.00    +0.003 C 
ATOM     17  C   UNL     1       4.319   4.305   0.569  0.00  0.00    +0.022 C 
ATOM     18  C   UNL     1       3.305   3.624  -0.363  0.00  0.00    +0.077 C 
ENDROOT
BRANCH  18  19
ATOM     19  C   UNL     1       1.895   4.123  -0.041  0.00  0.00    +0.050 C 
BRANCH  19  20
ATOM     20  C   UNL     1       1.786   5.608  -0.395  0.00  0.00    +0.157 C 
BRANCH  20  21
ATOM     21  O   UNL     1       0.438   6.044  -0.207  0.00  0.00    -0.395 OA
ATOM     22  H   UNL     1       0.295   6.978  -0.413  0.00  0.00    +0.209 HD
ENDBRANCH  20  21
ENDBRANCH  19  20
ENDBRANCH  18  19
TORSDOF 3
