REMARK  Name = ZINC57849701
REMARK  8 active torsions:
REMARK  status: ('A' for Active; 'I' for Inactive)
REMARK    1  A    between atoms: C_1  and  C_2
REMARK    2  A    between atoms: C_2  and  C_20
REMARK    3  A    between atoms: N_5  and  C_9
REMARK    4  A    between atoms: C_9  and  C_10
REMARK    5  A    between atoms: C_10  and  C_11
REMARK    6  A    between atoms: C_11  and  O_12
REMARK    7  A    between atoms: O_12  and  C_13
REMARK    8  A    between atoms: C_17  and  N_19
REMARK                            x       y       z     vdW  Elec       q    Type
REMARK                         _______ _______ _______ _____ _____    ______ ____
ROOT
ATOM      1  C   UNL     1      -0.019   1.526   0.010  0.00  0.00    +0.050 C 
ATOM      2  C   UNL     1       0.002  -0.004   0.002  0.00  0.00    +0.168 C 
ATOM      3  C   UNL     1      -1.404  -0.557   0.121  0.00  0.00    +0.254 C 
ATOM      4  O   UNL     1      -2.324  -0.392  -0.652  0.00  0.00    -0.272 OA
ATOM      5  N   UNL     1      -1.419  -1.272   1.263  0.00  0.00    -0.224 N 
ATOM      6  C   UNL     1      -0.231  -1.248   1.876  0.00  0.00    +0.310 C 
ATOM      7  O   UNL     1       0.001  -1.819   2.923  0.00  0.00    -0.252 OA
ATOM      8  N   UNL     1       0.679  -0.520   1.204  0.00  0.00    -0.279 N 
ATOM      9  H   UNL     1       1.602  -0.365   1.461  0.00  0.00    +0.152 HD
ENDROOT
BRANCH   2  10
ATOM     10  C   UNL     1       0.673  -0.517  -1.246  0.00  0.00    +0.137 A 
ATOM     11  C   UNL     1       1.988  -0.767  -1.386  0.00  0.00    +0.047 A 
ATOM     12  C   UNL     1       2.178  -1.229  -2.709  0.00  0.00    +0.041 A 
ATOM     13  C   UNL     1       0.968  -1.234  -3.297  0.00  0.00    +0.195 A 
ATOM     14  O   UNL     1       0.060  -0.807  -2.405  0.00  0.00    -0.465 OA
ENDBRANCH   2  10
BRANCH   5  15
ATOM     15  C   UNL     1      -2.593  -1.987   1.771  0.00  0.00    +0.121 C 
BRANCH  15  16
ATOM     16  C   UNL     1      -2.601  -3.413   1.217  0.00  0.00    +0.060 C 
BRANCH  16  17
ATOM     17  C   UNL     1      -3.827  -4.159   1.747  0.00  0.00    +0.230 C 
BRANCH  17  18
ATOM     18  O   UNL     1      -3.835  -5.491   1.230  0.00  0.00    -0.492 OA
BRANCH  18  19
ATOM     19  C   UNL     1      -4.864  -6.293   1.607  0.00  0.00    +0.122 A 
ATOM     20  C   UNL     1      -5.851  -5.806   2.453  0.00  0.00    +0.046 A 
ATOM     21  C   UNL     1      -6.898  -6.621   2.838  0.00  0.00    +0.005 A 
ATOM     22  C   UNL     1      -6.968  -7.923   2.381  0.00  0.00    +0.023 A 
ATOM     23  C   UNL     1      -5.984  -8.416   1.533  0.00  0.00    +0.028 A 
ATOM     24  C   UNL     1      -4.934  -7.597   1.141  0.00  0.00    +0.068 A 
BRANCH  23  25
ATOM     25  N   UNL     1      -6.054  -9.732   1.071  0.00  0.00    -0.358 N 
ATOM     26  H   UNL     1      -6.791 -10.303   1.342  0.00  0.00    +0.142 HD
ATOM     27  H   UNL     1      -5.367 -10.076   0.479  0.00  0.00    +0.142 HD
ENDBRANCH  23  25
ENDBRANCH  18  19
ENDBRANCH  17  18
ENDBRANCH  16  17
ENDBRANCH  15  16
ENDBRANCH   5  15
TORSDOF 7
