REMARK  Name = ZINC56718249
REMARK  7 active torsions:
REMARK  status: ('A' for Active; 'I' for Inactive)
REMARK    1  A    between atoms: C_1  and  O_2
REMARK    2  A    between atoms: O_2  and  C_3
REMARK    3  A    between atoms: C_6  and  N_10
REMARK    4  A    between atoms: N_13  and  C_14
REMARK    5  A    between atoms: C_14  and  C_15
REMARK    6  A    between atoms: C_15  and  C_16
REMARK    7  A    between atoms: C_16  and  N_17
REMARK                            x       y       z     vdW  Elec       q    Type
REMARK                         _______ _______ _______ _____ _____    ______ ____
ROOT
ATOM      1  N   UNL     1      -4.893  -2.584   0.035  0.00  0.00    -0.269 N 
ATOM      2  C   UNL     1      -5.546  -2.807  -1.123  0.00  0.00    +0.304 C 
ATOM      3  O   UNL     1      -5.019  -2.523  -2.182  0.00  0.00    -0.253 OA
ATOM      4  N   UNL     1      -6.782  -3.344  -1.108  0.00  0.00    -0.299 N 
ATOM      5  H   UNL     1      -5.280  -2.880   0.874  0.00  0.00    +0.156 HD
ATOM      6  H   UNL     1      -7.202  -3.570  -0.264  0.00  0.00    +0.150 HD
ENDROOT
BRANCH   1  10
ATOM      7  C   UNL     1      -1.212  -0.619   0.013  0.00  0.00    +0.190 A 
ATOM      8  C   UNL     1      -2.183  -0.285  -0.922  0.00  0.00    +0.169 A 
ATOM      9  C   UNL     1      -3.403  -0.936  -0.915  0.00  0.00    +0.065 A 
ATOM     10  C   UNL     1      -3.657  -1.924   0.027  0.00  0.00    +0.040 A 
ATOM     11  C   UNL     1      -2.686  -2.258   0.962  0.00  0.00    +0.065 A 
ATOM     12  C   UNL     1      -1.464  -1.611   0.951  0.00  0.00    +0.169 A 
ATOM     13  F   UNL     1      -0.517  -1.940   1.856  0.00  0.00    -0.201 F 
ATOM     14  F   UNL     1      -1.936   0.676  -1.838  0.00  0.00    -0.201 F 
BRANCH   7  16
ATOM     15  C   UNL     1       1.023  -0.548  -0.799  0.00  0.00    +0.277 C 
ATOM     16  O   UNL     1      -0.011   0.021   0.005  0.00  0.00    -0.490 OA
ENDBRANCH   7  16
ENDBRANCH   1  10
BRANCH   4  17
ATOM     17  C   UNL     1      -7.490  -3.586  -2.367  0.00  0.00    +0.107 C 
BRANCH  17  18
ATOM     18  C   UNL     1      -8.862  -4.196  -2.071  0.00  0.00    +0.038 C 
BRANCH  18  19
ATOM     19  C   UNL     1      -9.602  -4.449  -3.386  0.00  0.00    +0.119 C 
BRANCH  19  20
ATOM     20  N   UNL     1     -10.915  -5.033  -3.102  0.00  0.00    -0.224 N 
ATOM     21  C   UNL     1     -11.151  -6.359  -3.003  0.00  0.00    +0.246 C 
ATOM     22  O   UNL     1     -10.349  -7.260  -3.127  0.00  0.00    -0.273 OA
ATOM     23  C   UNL     1     -12.624  -6.481  -2.706  0.00  0.00    +0.113 C 
ATOM     24  C   UNL     1     -12.859  -7.189  -1.365  0.00  0.00    +0.035 C 
ATOM     25  C   UNL     1     -14.154  -8.010  -1.598  0.00  0.00    +0.003 C 
ATOM     26  C   UNL     1     -14.001  -8.488  -3.064  0.00  0.00    +0.003 C 
ATOM     27  C   UNL     1     -13.344  -7.291  -3.786  0.00  0.00    +0.035 C 
ATOM     28  N   UNL     1     -13.104  -5.098  -2.665  0.00  0.00    -0.285 N 
ATOM     29  C   UNL     1     -12.030  -4.319  -2.904  0.00  0.00    +0.309 C 
ATOM     30  O   UNL     1     -12.071  -3.104  -2.938  0.00  0.00    -0.252 OA
ATOM     31  H   UNL     1     -14.013  -4.802  -2.497  0.00  0.00    +0.151 HD
ENDBRANCH  19  20
ENDBRANCH  18  19
ENDBRANCH  17  18
ENDBRANCH   4  17
TORSDOF 6
