REMARK  Name = ZINC12305896
REMARK  7 active torsions:
REMARK  status: ('A' for Active; 'I' for Inactive)
REMARK    1  A    between atoms: C_1  and  N_49
REMARK    2  A    between atoms: C_2  and  C_3
REMARK    3  A    between atoms: C_2  and  N_49
REMARK    4  A    between atoms: C_5  and  C_8
REMARK    5  A    between atoms: C_14  and  C_15
REMARK    6  A    between atoms: C_14  and  N_49
REMARK    7  A    between atoms: C_20  and  C_21
REMARK                            x       y       z     vdW  Elec       q    Type
REMARK                         _______ _______ _______ _____ _____    ______ ____
ROOT
ATOM      1  C   UNL     1      -4.614  -5.281   1.449  0.00  0.00    -0.039 C 
ENDROOT
BRANCH   1   2
ATOM      2  C   UNL     1      -5.013  -5.547   2.877  0.00  0.00    -0.016 A 
ATOM      3  C   UNL     1      -4.490  -6.494   3.685  0.00  0.00    +0.107 A 
ATOM      4  N   UNL     1      -5.109  -6.410   4.883  0.00  0.00    -0.284 N 
ATOM      5  H   UNL     1      -4.924  -6.984   5.681  0.00  0.00    +0.188 HD
ATOM      6  N   UNL     1      -6.056  -5.381   4.814  0.00  0.00    -0.171 NA
ATOM      7  C   UNL     1      -6.003  -4.856   3.606  0.00  0.00    +0.129 A 
BRANCH   7   8
ATOM      8  C   UNL     1      -6.833  -3.740   3.104  0.00  0.00    +0.156 A 
ATOM      9  C   UNL     1      -8.125  -3.517   3.445  0.00  0.00    +0.060 A 
ATOM     10  C   UNL     1      -8.535  -2.316   2.714  0.00  0.00    +0.021 A 
ATOM     11  C   UNL     1      -9.720  -1.582   2.635  0.00  0.00    +0.011 A 
ATOM     12  C   UNL     1      -9.778  -0.474   1.836  0.00  0.00    +0.001 A 
ATOM     13  C   UNL     1      -8.668  -0.075   1.106  0.00  0.00    +0.004 A 
ATOM     14  C   UNL     1      -7.489  -0.786   1.172  0.00  0.00    +0.047 A 
ATOM     15  C   UNL     1      -7.407  -1.916   1.976  0.00  0.00    +0.136 A 
ATOM     16  O   UNL     1      -6.416  -2.791   2.244  0.00  0.00    -0.453 OA
ENDBRANCH   7   8
ENDBRANCH   1   2
BRANCH   1  18
ATOM     17  C   UNL     1      -2.435  -4.426   2.068  0.00  0.00    -0.095 C 
ATOM     18  N   UNL     1      -3.721  -4.104   1.415  0.00  0.00    +0.385 N 
ATOM     19  H   UNL     1      -4.168  -3.331   1.921  0.00  0.00    -0.081 HD
BRANCH  18  20
ATOM     20  C   UNL     1      -3.486  -3.688   0.016  0.00  0.00    -0.000 C 
BRANCH  20  21
ATOM     21  C   UNL     1      -2.761  -2.367   0.016  0.00  0.00    +0.122 A 
ATOM     22  C   UNL     1      -1.421  -2.181  -0.001  0.00  0.00    +0.074 A 
ATOM     23  C   UNL     1      -1.272  -0.766   0.011  0.00  0.00    +0.113 A 
ATOM     24  N   UNL     1      -2.485  -0.272   0.025  0.00  0.00    -0.078 NA
ATOM     25  O   UNL     1      -3.318  -1.148   0.028  0.00  0.00    -0.361 OA
BRANCH  23  26
ATOM     26  C   UNL     1       0.002  -0.004   0.002  0.00  0.00    +0.004 A 
ATOM     27  C   UNL     1      -0.017   1.389   0.010  0.00  0.00    +0.010 A 
ATOM     28  C   UNL     1       1.170   2.093   0.002  0.00  0.00    +0.001 A 
ATOM     29  C   UNL     1       2.377   1.418  -0.013  0.00  0.00    +0.000 A 
ATOM     30  C   UNL     1       2.402   0.035  -0.021  0.00  0.00    +0.001 A 
ATOM     31  C   UNL     1       1.221  -0.679  -0.013  0.00  0.00    +0.010 A 
ENDBRANCH  23  26
ENDBRANCH  20  21
ENDBRANCH  18  20
ENDBRANCH   1  18
TORSDOF 6
