REMARK  Name = ZINC40129485
REMARK  13 active torsions:
REMARK  status: ('A' for Active; 'I' for Inactive)
REMARK    1  A    between atoms: C_1  and  C_2
REMARK    2  A    between atoms: C_2  and  C_3
REMARK    3  A    between atoms: C_3  and  C_4
REMARK    4  A    between atoms: C_4  and  N_5
REMARK    5  A    between atoms: N_5  and  C_6
REMARK    6  A    between atoms: C_7  and  N_18
REMARK    7  A    between atoms: N_8  and  C_15
REMARK    8  A    between atoms: C_15  and  C_16
REMARK    9  A    between atoms: C_16  and  C_17
REMARK   10  A    between atoms: C_19  and  C_21
REMARK   11  A    between atoms: C_24  and  C_31
REMARK   12  A    between atoms: C_25  and  N_27
REMARK   13  A    between atoms: C_28  and  C_30
REMARK                            x       y       z     vdW  Elec       q    Type
REMARK                         _______ _______ _______ _____ _____    ______ ____
ROOT
ATOM      1  N   UNL     1       1.458  -1.876  -2.475  0.00  0.00    -0.260 N 
ATOM      2  C   UNL     1       0.663  -2.477  -3.384  0.00  0.00    +0.251 C 
ATOM      3  O   UNL     1      -0.539  -2.516  -3.208  0.00  0.00    -0.270 OA
ENDROOT
BRANCH   1   4
ATOM      4  C   UNL     1       2.845  -1.775  -2.708  0.00  0.00    +0.140 A 
ATOM      5  C   UNL     1       3.324  -1.088  -3.805  0.00  0.00    +0.127 A 
ATOM      6  N   UNL     1       4.682  -1.007  -4.006  0.00  0.00    -0.280 N 
ATOM      7  C   UNL     1       5.534  -1.591  -3.143  0.00  0.00    +0.331 A 
ATOM      8  O   UNL     1       6.731  -1.509  -3.339  0.00  0.00    -0.246 OA
ATOM      9  N   UNL     1       5.085  -2.265  -2.069  0.00  0.00    -0.273 N 
ATOM     10  H   UNL     1       5.720  -2.676  -1.462  0.00  0.00    +0.173 HD
ATOM     11  C   UNL     1       3.765  -2.369  -1.823  0.00  0.00    +0.277 A 
ATOM     12  O   UNL     1       3.369  -2.977  -0.843  0.00  0.00    -0.266 OA
BRANCH   5  13
ATOM     13  N   UNL     1       2.454  -0.492  -4.687  0.00  0.00    -0.343 N 
ATOM     14  H   UNL     1       1.498  -0.615  -4.582  0.00  0.00    +0.144 HD
ATOM     15  H   UNL     1       2.797   0.051  -5.414  0.00  0.00    +0.144 HD
ENDBRANCH   5  13
BRANCH   6  16
ATOM     16  C   UNL     1       5.205  -0.281  -5.166  0.00  0.00    +0.128 C 
BRANCH  16  17
ATOM     17  C   UNL     1       5.430   1.185  -4.791  0.00  0.00    +0.018 C 
ATOM     18  C   UNL     1       5.976   1.943  -6.003  0.00  0.00    +0.005 C 
ENDBRANCH  16  17
ENDBRANCH   6  16
ENDBRANCH   1   4
BRANCH   2  19
ATOM     19  C   UNL     1       1.254  -3.087  -4.593  0.00  0.00    +0.039 A 
ATOM     20  C   UNL     1       2.587  -3.505  -4.588  0.00  0.00    +0.013 A 
ATOM     21  C   UNL     1       3.135  -4.075  -5.718  0.00  0.00    +0.006 A 
ATOM     22  C   UNL     1       2.370  -4.234  -6.859  0.00  0.00    -0.029 A 
ATOM     23  C   UNL     1       1.044  -3.822  -6.874  0.00  0.00    +0.037 A 
ATOM     24  C   UNL     1       0.481  -3.253  -5.742  0.00  0.00    +0.036 A 
ATOM     25  C   UNL     1       2.978  -4.857  -8.089  0.00  0.00    +0.045 C 
BRANCH  23  26
ATOM     26  N   UNL     1       0.274  -3.986  -8.031  0.00  0.00    -0.285 N 
ATOM     27  C   UNL     1      -0.712  -3.111  -8.315  0.00  0.00    +0.214 C 
ATOM     28  O   UNL     1      -0.868  -2.128  -7.621  0.00  0.00    -0.276 OA
ATOM     29  C   UNL     1      -1.620  -3.354  -9.493  0.00  0.00    +0.109 C 
ATOM     30  H   UNL     1       0.449  -4.729  -8.630  0.00  0.00    +0.155 HD
ENDBRANCH  23  26
ENDBRANCH   2  19
BRANCH   1  31
ATOM     31  C   UNL     1       0.880  -1.328  -1.245  0.00  0.00    +0.114 C 
BRANCH  31  32
ATOM     32  C   UNL     1       0.585   0.161  -1.440  0.00  0.00    +0.019 C 
BRANCH  32  34
ATOM     33  C   UNL     1      -0.314   2.222  -0.350  0.00  0.00    +0.004 C 
ATOM     34  C   UNL     1      -0.018   0.733  -0.156  0.00  0.00    -0.002 C 
ENDBRANCH  32  34
ENDBRANCH  31  32
ENDBRANCH   1  31
TORSDOF 9
