REMARK  Name = ZINC08749705
REMARK  15 active torsions:
REMARK  status: ('A' for Active; 'I' for Inactive)
REMARK    1  A    between atoms: C_1  and  C_2
REMARK    2  A    between atoms: C_2  and  O_3
REMARK    3  A    between atoms: O_3  and  C_4
REMARK    4  A    between atoms: C_7  and  C_10
REMARK    5  A    between atoms: C_12  and  C_42
REMARK    6  A    between atoms: C_13  and  C_41
REMARK    7  A    between atoms: C_20  and  C_21
REMARK    8  A    between atoms: C_24  and  O_29
REMARK    9  A    between atoms: C_25  and  O_27
REMARK   10  A    between atoms: O_27  and  C_28
REMARK   11  A    between atoms: O_29  and  C_30
REMARK   12  A    between atoms: C_30  and  C_31
REMARK   13  A    between atoms: C_42  and  O_44
REMARK   14  A    between atoms: O_44  and  C_45
REMARK   15  A    between atoms: C_45  and  C_46
REMARK                            x       y       z     vdW  Elec       q    Type
REMARK                         _______ _______ _______ _____ _____    ______ ____
ROOT
ATOM      1  C   UNL     1       2.463   0.477  -0.025  0.00  0.00    +0.162 C 
ATOM      2  C   UNL     1       2.591   0.876   1.427  0.00  0.00    +0.085 C 
ATOM      3  C   UNL     1       3.684   1.609   1.798  0.00  0.00    +0.053 C 
ATOM      4  N   UNL     1       4.600   1.955   0.902  0.00  0.00    -0.228 NA
ATOM      5  C   UNL     1       4.556   1.646  -0.369  0.00  0.00    +0.178 A 
ATOM      6  N   UNL     1       3.546   0.915  -0.950  0.00  0.00    -0.275 N 
ATOM      7  C   UNL     1       3.609   0.662  -2.263  0.00  0.00    +0.268 A 
ATOM      8  O   UNL     1       2.738   0.019  -2.821  0.00  0.00    -0.266 OA
ATOM      9  C   UNL     1       4.761   1.183  -3.011  0.00  0.00    +0.081 A 
ATOM     10  C   UNL     1       5.058   1.066  -4.332  0.00  0.00    +0.028 C 
ATOM     11  S   UNL     1       5.668   2.010  -1.714  0.00  0.00    -0.046 S 
ATOM     12  C   UNL     1       3.850   2.027   3.236  0.00  0.00    +0.066 C 
ENDROOT
BRANCH   1  16
ATOM     13  C   UNL     1      -1.233   2.039  -1.496  0.00  0.00    +0.121 A 
ATOM     14  C   UNL     1      -0.122   2.864  -1.392  0.00  0.00    +0.046 A 
ATOM     15  C   UNL     1       1.071   2.357  -0.916  0.00  0.00    +0.009 A 
ATOM     16  C   UNL     1       1.159   1.028  -0.544  0.00  0.00    -0.020 A 
ATOM     17  C   UNL     1       0.054   0.204  -0.646  0.00  0.00    +0.009 A 
ATOM     18  C   UNL     1      -1.142   0.707  -1.121  0.00  0.00    +0.046 A 
BRANCH  13  19
ATOM     19  O   UNL     1      -2.407   2.535  -1.968  0.00  0.00    -0.492 OA
BRANCH  19  21
ATOM     20  C   UNL     1      -3.822   4.289  -2.841  0.00  0.00    +0.048 C 
ATOM     21  C   UNL     1      -2.427   3.916  -2.335  0.00  0.00    +0.225 C 
ENDBRANCH  19  21
ENDBRANCH  13  19
ENDBRANCH   1  16
BRANCH  10  22
ATOM     22  C   UNL     1       6.155   1.851  -4.910  0.00  0.00    -0.020 A 
ATOM     23  C   UNL     1       6.584   1.600  -6.220  0.00  0.00    +0.012 A 
ATOM     24  C   UNL     1       7.614   2.338  -6.759  0.00  0.00    +0.050 A 
ATOM     25  C   UNL     1       8.230   3.331  -6.009  0.00  0.00    +0.162 A 
ATOM     26  C   UNL     1       7.809   3.587  -4.704  0.00  0.00    +0.162 A 
ATOM     27  C   UNL     1       6.773   2.856  -4.156  0.00  0.00    +0.057 A 
BRANCH  26  28
ATOM     28  O   UNL     1       8.414   4.561  -3.973  0.00  0.00    -0.491 OA
ATOM     29  C   UNL     1       7.932   4.769  -2.644  0.00  0.00    +0.277 C 
ENDBRANCH  26  28
BRANCH  25  30
ATOM     30  O   UNL     1       9.245   4.056  -6.547  0.00  0.00    -0.484 OA
BRANCH  30  31
ATOM     31  C   UNL     1       9.626   3.742  -7.888  0.00  0.00    +0.264 C 
BRANCH  31  32
ATOM     32  C   UNL     1      10.758   4.642  -8.312  0.00  0.00    -0.007 A 
ATOM     33  C   UNL     1      10.486   5.851  -8.923  0.00  0.00    +0.011 A 
ATOM     34  C   UNL     1      11.521   6.683  -9.309  0.00  0.00    +0.050 A 
ATOM     35  C   UNL     1      12.835   6.299  -9.095  0.00  0.00    +0.166 A 
ATOM     36  C   UNL     1      13.109   5.078  -8.484  0.00  0.00    +0.167 A 
ATOM     37  C   UNL     1      12.066   4.253  -8.094  0.00  0.00    +0.056 A 
ATOM     38  O   UNL     1      14.463   4.933  -8.387  0.00  0.00    -0.453 OA
ATOM     39  C   UNL     1      15.019   5.887  -9.310  0.00  0.00    +0.466 C 
ATOM     40  O   UNL     1      14.017   6.919  -9.380  0.00  0.00    -0.453 OA
ENDBRANCH  31  32
ENDBRANCH  30  31
ENDBRANCH  25  30
ENDBRANCH  10  22
BRANCH   2  41
ATOM     41  C   UNL     1       1.617   0.506   2.367  0.00  0.00    +0.339 C 
ATOM     42  O   UNL     1       1.795   0.733   3.551  0.00  0.00    -0.245 OA
BRANCH  41  43
ATOM     43  O   UNL     1       0.482  -0.103   1.960  0.00  0.00    -0.462 OA
BRANCH  43  44
ATOM     44  C   UNL     1      -0.466  -0.453   2.971  0.00  0.00    +0.229 C 
ATOM     45  C   UNL     1      -1.677  -1.127   2.323  0.00  0.00    +0.048 C 
ENDBRANCH  43  44
ENDBRANCH  41  43
ENDBRANCH   2  41
TORSDOF 11
