REMARK  Name = ZINC50653804
REMARK  6 active torsions:
REMARK  status: ('A' for Active; 'I' for Inactive)
REMARK    1  A    between atoms: C_1  and  C_2
REMARK    2  A    between atoms: C_7  and  N_10
REMARK    3  A    between atoms: N_10  and  S_11
REMARK    4  A    between atoms: S_11  and  C_14
REMARK    5  A    between atoms: C_19  and  N_20
REMARK    6  A    between atoms: N_20  and  C_21
REMARK                            x       y       z     vdW  Elec       q    Type
REMARK                         _______ _______ _______ _____ _____    ______ ____
ROOT
ATOM      1  S   UNL     1       2.475  -3.813   0.112  0.00  0.00    +0.062 S 
ATOM      2  O   UNL     1       3.150  -4.029  -1.120  0.00  0.00    -0.153 OA
ATOM      3  O   UNL     1       3.167  -3.551   1.325  0.00  0.00    -0.153 OA
ENDROOT
BRANCH   1   4
ATOM      4  C   UNL     1       1.482  -5.241   0.397  0.00  0.00    +0.145 A 
ATOM      5  C   UNL     1       1.522  -5.890   1.618  0.00  0.00    +0.033 A 
ATOM      6  C   UNL     1       0.723  -7.011   1.799  0.00  0.00    +0.022 A 
ATOM      7  C   UNL     1      -0.083  -7.441   0.764  0.00  0.00    +0.113 A 
ATOM      8  N   UNL     1      -0.101  -6.802  -0.390  0.00  0.00    -0.239 NA
ATOM      9  C   UNL     1       0.642  -5.726  -0.600  0.00  0.00    +0.145 A 
BRANCH   9  10
ATOM     10  N   UNL     1       0.588  -5.080  -1.829  0.00  0.00    -0.331 N 
ATOM     11  C   UNL     1      -0.208  -5.648  -2.921  0.00  0.00    +0.127 C 
ATOM     12  H   UNL     1       1.077  -4.253  -1.965  0.00  0.00    +0.147 HD
ENDBRANCH   9  10
ENDBRANCH   1   4
BRANCH   1  13
ATOM     13  N   UNL     1       1.444  -2.540  -0.129  0.00  0.00    -0.187 NA
ATOM     14  H   UNL     1       1.413  -2.098  -0.992  0.00  0.00    +0.148 HD
BRANCH  13  20
ATOM     15  C   UNL     1      -0.274   1.382  -0.490  0.00  0.00    +0.007 C 
ATOM     16  C   UNL     1      -0.150  -0.142  -0.436  0.00  0.00    -0.013 C 
ATOM     17  C   UNL     1      -1.537  -0.771  -0.585  0.00  0.00    +0.003 C 
ATOM     18  C   UNL     1      -1.413  -2.296  -0.531  0.00  0.00    +0.002 C 
ATOM     19  C   UNL     1      -0.807  -2.711   0.811  0.00  0.00    +0.020 C 
ATOM     20  C   UNL     1       0.580  -2.081   0.960  0.00  0.00    +0.077 C 
ATOM     21  C   UNL     1       0.456  -0.557   0.906  0.00  0.00    +0.023 C 
ENDBRANCH  13  20
ENDBRANCH   1  13
TORSDOF 4
