REMARK  Name = ZINC67571686
REMARK  7 active torsions:
REMARK  status: ('A' for Active; 'I' for Inactive)
REMARK    1  A    between atoms: C_1  and  C_2
REMARK    2  A    between atoms: N_4  and  C_5
REMARK    3  A    between atoms: C_5  and  C_6
REMARK    4  A    between atoms: C_9  and  C_11
REMARK    5  A    between atoms: N_13  and  N_14
REMARK    6  A    between atoms: C_15  and  C_17
REMARK    7  A    between atoms: C_22  and  O_23
REMARK                            x       y       z     vdW  Elec       q    Type
REMARK                         _______ _______ _______ _____ _____    ______ ____
ROOT
ATOM      1  C   UNL     1      -1.025  -3.937  -6.326  0.00  0.00    +0.267 C 
ATOM      2  O   UNL     1      -0.282  -4.246  -7.239  0.00  0.00    -0.268 OA
ATOM      3  N   UNL     1      -2.360  -4.009  -6.489  0.00  0.00    -0.230 N 
ATOM      4  H   UNL     1      -2.952  -3.763  -5.761  0.00  0.00    +0.173 HD
ENDROOT
BRANCH   1   8
ATOM      5  C   UNL     1       0.013  -2.631  -2.600  0.00  0.00    +0.008 A 
ATOM      6  C   UNL     1       1.079  -2.895  -3.396  0.00  0.00    +0.013 A 
ATOM      7  C   UNL     1       0.862  -3.343  -4.677  0.00  0.00    +0.021 A 
ATOM      8  C   UNL     1      -0.466  -3.487  -5.048  0.00  0.00    +0.076 A 
ATOM      9  S   UNL     1      -1.317  -2.989  -3.562  0.00  0.00    -0.087 S 
BRANCH   5  10
ATOM     10  C   UNL     1       0.020  -2.136  -1.177  0.00  0.00    +0.146 C 
BRANCH  10  14
ATOM     11  C   UNL     1      -0.018   1.503   0.010  0.00  0.00    +0.109 C 
ATOM     12  C   UNL     1       0.002  -0.004   0.002  0.00  0.00    +0.210 C 
ATOM     13  O   UNL     1       0.020  -0.616   1.049  0.00  0.00    -0.276 OA
ATOM     14  N   UNL     1       0.000  -0.672  -1.169  0.00  0.00    -0.311 N 
ATOM     15  H   UNL     1      -0.015  -0.182  -2.006  0.00  0.00    +0.149 HD
ENDBRANCH  10  14
ENDBRANCH   5  10
ENDBRANCH   1   8
BRANCH   3  16
ATOM     16  N   UNL     1      -2.894  -4.440  -7.711  0.00  0.00    -0.230 N 
ATOM     17  C   UNL     1      -4.230  -4.512  -7.874  0.00  0.00    +0.264 C 
ATOM     18  O   UNL     1      -4.972  -4.203  -6.962  0.00  0.00    -0.269 OA
ATOM     19  H   UNL     1      -2.303  -4.686  -8.439  0.00  0.00    +0.173 HD
BRANCH  17  20
ATOM     20  C   UNL     1      -4.793  -4.965  -9.161  0.00  0.00    +0.081 A 
ATOM     21  C   UNL     1      -3.944  -5.326 -10.210  0.00  0.00    +0.036 A 
ATOM     22  C   UNL     1      -4.476  -5.749 -11.410  0.00  0.00    +0.042 A 
ATOM     23  C   UNL     1      -5.850  -5.817 -11.580  0.00  0.00    +0.023 A 
ATOM     24  C   UNL     1      -6.699  -5.463 -10.550  0.00  0.00    +0.047 A 
ATOM     25  C   UNL     1      -6.181  -5.042  -9.335  0.00  0.00    +0.129 A 
ATOM     26 CL   UNL     1      -3.421  -6.197 -12.713  0.00  0.00    -0.084 Cl
BRANCH  25  27
ATOM     27  O   UNL     1      -7.015  -4.699  -8.321  0.00  0.00    -0.506 OA
ATOM     28  H   UNL     1      -7.266  -3.765  -8.317  0.00  0.00    +0.292 HD
ENDBRANCH  25  27
ENDBRANCH  17  20
ENDBRANCH   3  16
TORSDOF 6
