REMARK  Name = ZINC59427662
REMARK  8 active torsions:
REMARK  status: ('A' for Active; 'I' for Inactive)
REMARK    1  A    between atoms: C_4  and  C_7
REMARK    2  A    between atoms: C_9  and  C_27
REMARK    3  A    between atoms: C_10  and  C_21
REMARK    4  A    between atoms: N_11  and  C_12
REMARK    5  A    between atoms: C_15  and  N_18
REMARK    6  A    between atoms: N_28  and  N_29
REMARK    7  A    between atoms: N_29  and  C_30
REMARK    8  A    between atoms: C_30  and  N_32
REMARK                            x       y       z     vdW  Elec       q    Type
REMARK                         _______ _______ _______ _____ _____    ______ ____
ROOT
ATOM      1  C   UNL     1       3.708  -0.744   0.152  0.00  0.00    +0.055 A 
ATOM      2  C   UNL     1       4.925  -0.079   0.076  0.00  0.00    +0.038 A 
ATOM      3  C   UNL     1       5.922  -1.035  -0.131  0.00  0.00    +0.021 A 
ATOM      4  C   UNL     1       5.230  -2.350  -0.177  0.00  0.00    +0.063 A 
ATOM      5  N   UNL     1       3.904  -2.104   0.004  0.00  0.00    -0.308 N 
ENDROOT
BRANCH   1   9
ATOM      6  C   UNL     1      -0.049   1.121   0.763  0.00  0.00    +0.000 A 
ATOM      7  C   UNL     1       1.007   1.854   0.245  0.00  0.00    +0.001 A 
ATOM      8  C   UNL     1       2.231   1.257   0.043  0.00  0.00    +0.010 A 
ATOM      9  C   UNL     1       2.408  -0.098   0.363  0.00  0.00    -0.001 A 
ATOM     10  C   UNL     1       1.332  -0.832   0.887  0.00  0.00    +0.010 A 
ATOM     11  C   UNL     1       0.115  -0.217   1.082  0.00  0.00    +0.001 A 
ENDBRANCH   1   9
BRANCH   5  12
ATOM     12  C   UNL     1       2.897  -3.076   0.033  0.00  0.00    +0.047 A 
ATOM     13  C   UNL     1       1.951  -3.127  -0.982  0.00  0.00    +0.028 A 
ATOM     14  C   UNL     1       0.958  -4.087  -0.950  0.00  0.00    +0.035 A 
ATOM     15  C   UNL     1       0.906  -4.996   0.092  0.00  0.00    +0.126 A 
ATOM     16  C   UNL     1       1.847  -4.947   1.104  0.00  0.00    +0.035 A 
ATOM     17  C   UNL     1       2.846  -3.993   1.075  0.00  0.00    +0.028 A 
BRANCH  15  18
ATOM     18  N   UNL     1      -0.160  -6.023   0.123  0.00  0.00    +0.056 N 
ATOM     19  O   UNL     1      -1.056  -6.071  -0.840  0.00  0.00    -0.126 OA
ATOM     20  O   UNL     1      -0.211  -6.889   1.114  0.00  0.00    -0.126 OA
ENDBRANCH  15  18
ENDBRANCH   5  12
BRANCH   4  21
ATOM     21  C   UNL     1       5.835  -3.614  -0.368  0.00  0.00    -0.001 A 
ATOM     22  C   UNL     1       6.863  -4.047   0.493  0.00  0.00    +0.010 A 
ATOM     23  C   UNL     1       7.439  -5.269   0.298  0.00  0.00    +0.001 A 
ATOM     24  C   UNL     1       7.017  -6.084  -0.743  0.00  0.00    +0.000 A 
ATOM     25  C   UNL     1       6.006  -5.668  -1.597  0.00  0.00    +0.001 A 
ATOM     26  C   UNL     1       5.410  -4.452  -1.418  0.00  0.00    +0.010 A 
ENDBRANCH   4  21
BRANCH   3  27
ATOM     27  C   UNL     1       7.302  -0.801  -0.267  0.00  0.00    +0.140 C 
ATOM     28  N   UNL     1       8.115  -1.799  -0.546  0.00  0.00    -0.188 NA
BRANCH  28  29
ATOM     29  N   UNL     1       9.390  -1.605  -0.569  0.00  0.00    -0.219 N 
ATOM     30  H   UNL     1       9.755  -0.746  -0.308  0.00  0.00    +0.176 HD
BRANCH  29  31
ATOM     31  C   UNL     1      10.216  -2.598  -0.956  0.00  0.00    +0.147 C 
ATOM     32  S   UNL     1      11.912  -2.385  -0.864  0.00  0.00    -0.017 S 
BRANCH  31  33
ATOM     33  N   UNL     1       9.706  -3.758  -1.416  0.00  0.00    -0.339 N 
ATOM     34  H   UNL     1       8.748  -3.853  -1.537  0.00  0.00    +0.144 HD
ATOM     35  H   UNL     1      10.297  -4.498  -1.626  0.00  0.00    +0.144 HD
ENDBRANCH  31  33
ENDBRANCH  29  31
ENDBRANCH  28  29
ENDBRANCH   3  27
TORSDOF 8
