REMARK  Name = ZINC17146904
REMARK  7 active torsions:
REMARK  status: ('A' for Active; 'I' for Inactive)
REMARK    1  A    between atoms: C_1  and  C_2
REMARK    2  A    between atoms: C_2  and  C_3
REMARK    3  A    between atoms: C_3  and  S_4
REMARK    4  A    between atoms: S_4  and  C_5
REMARK    5  A    between atoms: N_15  and  C_16
REMARK    6  A    between atoms: C_16  and  O_18
REMARK    7  A    between atoms: O_18  and  C_19
REMARK                            x       y       z     vdW  Elec       q    Type
REMARK                         _______ _______ _______ _____ _____    ______ ____
ROOT
ATOM      1  C   UNL     1       1.605  -2.716  -2.750  0.00  0.00    +0.010 A 
ATOM      2  C   UNL     1       2.081  -1.704  -3.578  0.00  0.00    +0.017 A 
ATOM      3  C   UNL     1       2.745  -2.016  -4.745  0.00  0.00    +0.029 A 
ATOM      4  C   UNL     1       2.940  -3.345  -5.098  0.00  0.00    +0.065 A 
ATOM      5  C   UNL     1       2.464  -4.363  -4.270  0.00  0.00    +0.066 A 
ATOM      6  C   UNL     1       1.801  -4.046  -3.094  0.00  0.00    +0.042 A 
ATOM      7  N   UNL     1       2.801  -5.572  -4.871  0.00  0.00    -0.326 N 
ATOM      8  H   UNL     1       2.599  -6.455  -4.524  0.00  0.00    +0.169 HD
ATOM      9  C   UNL     1       3.463  -5.304  -6.029  0.00  0.00    +0.201 A 
ATOM     10  N   UNL     1       3.559  -3.957  -6.187  0.00  0.00    -0.326 N 
ATOM     11  N   UNL     1       3.939  -6.213  -6.872  0.00  0.00    -0.109 NA
ATOM     12  H   UNL     1       3.984  -3.500  -6.930  0.00  0.00    +0.169 HD
ENDROOT
BRANCH  11  13
ATOM     13  C   UNL     1       3.883  -7.510  -6.557  0.00  0.00    +0.427 C 
ATOM     14  O   UNL     1       3.310  -7.866  -5.543  0.00  0.00    -0.224 OA
BRANCH  13  15
ATOM     15  O   UNL     1       4.461  -8.426  -7.363  0.00  0.00    -0.452 OA
ATOM     16  C   UNL     1       4.362  -9.795  -6.965  0.00  0.00    +0.282 C 
ENDBRANCH  13  15
ENDBRANCH  11  13
BRANCH   1  17
ATOM     17  S   UNL     1       0.758  -2.309  -1.260  0.00  0.00    -0.125 S 
BRANCH  17  18
ATOM     18  C   UNL     1       0.747  -0.495  -1.243  0.00  0.00    +0.074 C 
BRANCH  18  20
ATOM     19  C   UNL     1       0.022   1.529   0.030  0.00  0.00    +0.004 C 
ATOM     20  C   UNL     1       0.031  -0.001   0.016  0.00  0.00    +0.008 C 
ENDBRANCH  18  20
ENDBRANCH  17  18
ENDBRANCH   1  17
TORSDOF 5
