REMARK  Name = ZINC54396617
REMARK  6 active torsions:
REMARK  status: ('A' for Active; 'I' for Inactive)
REMARK    1  A    between atoms: C_1  and  C_2
REMARK    2  A    between atoms: C_4  and  N_11
REMARK    3  A    between atoms: C_5  and  O_9
REMARK    4  A    between atoms: O_9  and  C_10
REMARK    5  A    between atoms: C_13  and  C_18
REMARK    6  A    between atoms: C_18  and  N_20
REMARK                            x       y       z     vdW  Elec       q    Type
REMARK                         _______ _______ _______ _____ _____    ______ ____
ROOT
ATOM      1  N   UNL     1       1.899  -2.732  -3.625  0.00  0.00    -0.295 N 
ATOM      2  C   UNL     1       0.848  -2.057  -4.221  0.00  0.00    +0.151 A 
ATOM      3  C   UNL     1      -0.195  -2.773  -4.834  0.00  0.00    +0.132 A 
ATOM      4  N   UNL     1      -1.200  -2.114  -5.403  0.00  0.00    -0.248 NA
ATOM      5  C   UNL     1      -1.214  -0.796  -5.391  0.00  0.00    +0.131 A 
ATOM      6  C   UNL     1      -0.185  -0.089  -4.786  0.00  0.00    +0.132 A 
ATOM      7  N   UNL     1       0.817  -0.730  -4.212  0.00  0.00    -0.236 NA
ATOM      8  H   UNL     1       1.961  -3.697  -3.701  0.00  0.00    +0.154 HD
ENDROOT
BRANCH   1  12
ATOM      9  C   UNL     1       3.301   1.379  -1.321  0.00  0.00    +0.045 C 
ATOM     10  C   UNL     1       3.580  -0.028  -1.783  0.00  0.00    -0.030 A 
ATOM     11  C   UNL     1       2.618  -0.727  -2.486  0.00  0.00    +0.031 A 
ATOM     12  C   UNL     1       2.874  -2.022  -2.913  0.00  0.00    +0.075 A 
ATOM     13  C   UNL     1       4.103  -2.615  -2.630  0.00  0.00    +0.143 A 
ATOM     14  C   UNL     1       5.063  -1.908  -1.925  0.00  0.00    +0.067 A 
ATOM     15  C   UNL     1       4.803  -0.615  -1.507  0.00  0.00    +0.047 A 
ATOM     16 CL   UNL     1       6.010   0.272  -0.630  0.00  0.00    -0.083 Cl
BRANCH  13  17
ATOM     17  O   UNL     1       4.359  -3.884  -3.046  0.00  0.00    -0.493 OA
ATOM     18  C   UNL     1       5.641  -4.427  -2.721  0.00  0.00    +0.277 C 
ENDBRANCH  13  17
ENDBRANCH   1  12
BRANCH   3  19
ATOM     19  C   UNL     1      -0.174  -4.248  -4.846  0.00  0.00    +0.099 C 
ATOM     20  S   UNL     1      -0.155  -5.116  -3.370  0.00  0.00    -0.033 S 
BRANCH  19  21
ATOM     21  N   UNL     1      -0.172  -4.912  -6.018  0.00  0.00    -0.350 N 
ATOM     22  H   UNL     1      -0.183  -4.420  -6.854  0.00  0.00    +0.143 HD
ATOM     23  H   UNL     1      -0.158  -5.882  -6.026  0.00  0.00    +0.143 HD
ENDBRANCH  19  21
ENDBRANCH   3  19
TORSDOF 4
