REMARK  Name = ZINC07260501
REMARK  8 active torsions:
REMARK  status: ('A' for Active; 'I' for Inactive)
REMARK    1  A    between atoms: C_1  and  C_2
REMARK    2  A    between atoms: C_3  and  C_16
REMARK    3  A    between atoms: C_4  and  C_10
REMARK    4  A    between atoms: N_18  and  C_19
REMARK    5  A    between atoms: C_21  and  O_28
REMARK    6  A    between atoms: C_24  and  O_25
REMARK    7  A    between atoms: O_25  and  C_26
REMARK    8  A    between atoms: O_28  and  C_29
REMARK                            x       y       z     vdW  Elec       q    Type
REMARK                         _______ _______ _______ _____ _____    ______ ____
ROOT
ATOM      1  C   UNL     1      -0.162   4.734  -0.647  0.00  0.00    +0.061 C 
ATOM      2  C   UNL     1      -0.223   3.313  -0.150  0.00  0.00    +0.019 C 
ATOM      3  C   UNL     1      -1.387   2.826   0.327  0.00  0.00    +0.056 C 
ATOM      4  C   UNL     1      -1.406   1.391   0.812  0.00  0.00    +0.142 C 
ATOM      5  N   UNL     1      -0.140   0.642   0.731  0.00  0.00    -0.288 N 
ATOM      6  C   UNL     1       0.943   1.267   0.229  0.00  0.00    +0.304 C 
ATOM      7  O   UNL     1       1.992   0.657   0.153  0.00  0.00    -0.252 OA
ATOM      8  N   UNL     1       0.902   2.538  -0.190  0.00  0.00    -0.273 N 
ATOM      9  H   UNL     1      -0.088  -0.279   1.029  0.00  0.00    +0.151 HD
ATOM     10  H   UNL     1       1.716   2.931  -0.542  0.00  0.00    +0.156 HD
ENDROOT
BRANCH   4  11
ATOM     11  C   UNL     1      -1.850   1.397   2.252  0.00  0.00    -0.023 A 
ATOM     12  C   UNL     1      -0.943   1.685   3.255  0.00  0.00    +0.006 A 
ATOM     13  C   UNL     1      -1.352   1.695   4.575  0.00  0.00    +0.000 A 
ATOM     14  C   UNL     1      -2.666   1.407   4.894  0.00  0.00    +0.000 A 
ATOM     15  C   UNL     1      -3.572   1.115   3.892  0.00  0.00    +0.000 A 
ATOM     16  C   UNL     1      -3.164   1.109   2.571  0.00  0.00    +0.006 A 
ENDBRANCH   4  11
BRANCH   3  17
ATOM     17  C   UNL     1      -2.554   3.628   0.369  0.00  0.00    +0.248 C 
ATOM     18  O   UNL     1      -3.410   3.504  -0.488  0.00  0.00    -0.270 OA
ATOM     19  N   UNL     1      -2.717   4.530   1.358  0.00  0.00    -0.279 N 
ATOM     20  H   UNL     1      -2.004   4.682   1.998  0.00  0.00    +0.155 HD
BRANCH  19  21
ATOM     21  C   UNL     1      -3.916   5.247   1.462  0.00  0.00    +0.079 A 
ATOM     22  C   UNL     1      -4.662   5.522   0.325  0.00  0.00    +0.074 A 
ATOM     23  C   UNL     1      -5.848   6.231   0.430  0.00  0.00    +0.140 A 
ATOM     24  C   UNL     1      -6.290   6.666   1.672  0.00  0.00    +0.086 A 
ATOM     25  C   UNL     1      -5.548   6.393   2.807  0.00  0.00    +0.071 A 
ATOM     26  C   UNL     1      -4.364   5.680   2.707  0.00  0.00    +0.143 A 
ATOM     27 CL   UNL     1      -7.776   7.554   1.801  0.00  0.00    -0.080 Cl
BRANCH  26  28
ATOM     28  O   UNL     1      -3.638   5.407   3.825  0.00  0.00    -0.493 OA
ATOM     29  C   UNL     1      -4.157   5.882   5.068  0.00  0.00    +0.277 C 
ENDBRANCH  26  28
BRANCH  23  30
ATOM     30  O   UNL     1      -6.579   6.501  -0.684  0.00  0.00    -0.494 OA
ATOM     31  C   UNL     1      -6.065   6.024  -1.929  0.00  0.00    +0.277 C 
ENDBRANCH  23  30
ENDBRANCH  19  21
ENDBRANCH   3  17
TORSDOF 5
