REMARK  Name = ZINC63489665
REMARK  9 active torsions:
REMARK  status: ('A' for Active; 'I' for Inactive)
REMARK    1  A    between atoms: C_1  and  C_2
REMARK    2  A    between atoms: C_6  and  C_7
REMARK    3  A    between atoms: C_14  and  C_15
REMARK    4  A    between atoms: C_15  and  N_16
REMARK    5  A    between atoms: C_17  and  O_19
REMARK    6  A    between atoms: O_19  and  C_20
REMARK    7  A    between atoms: C_20  and  C_21
REMARK    8  A    between atoms: C_20  and  C_22
REMARK    9  A    between atoms: C_20  and  C_23
REMARK                            x       y       z     vdW  Elec       q    Type
REMARK                         _______ _______ _______ _____ _____    ______ ____
ROOT
ATOM      1  C   UNL     1      -0.672  -0.731   2.817  0.00  0.00    +0.254 C 
ATOM      2  O   UNL     1      -0.658   0.486   2.812  0.00  0.00    -0.269 OA
ATOM      3  N   UNL     1      -0.316  -1.404   3.929  0.00  0.00    -0.293 N 
ATOM      4  C   UNL     1      -0.224  -2.870   3.919  0.00  0.00    +0.108 C 
ATOM      5  C   UNL     1      -1.083  -3.426   5.060  0.00  0.00    +0.019 C 
ATOM      6  C   UNL     1      -0.653  -2.778   6.378  0.00  0.00    +0.003 C 
ATOM      7  C   UNL     1      -0.873  -1.265   6.301  0.00  0.00    +0.024 C 
ATOM      8  C   UNL     1      -0.007  -0.685   5.173  0.00  0.00    +0.093 C 
ENDROOT
BRANCH   1  14
ATOM      9  C   UNL     1      -3.084  -0.065   0.961  0.00  0.00    +0.045 C 
ATOM     10  C   UNL     1      -2.134  -1.216   0.753  0.00  0.00    -0.031 A 
ATOM     11  C   UNL     1      -2.258  -2.084  -0.305  0.00  0.00    +0.011 A 
ATOM     12  C   UNL     1      -1.369  -3.099  -0.434  0.00  0.00    +0.046 A 
ATOM     13  S   UNL     1      -0.335  -2.909   0.877  0.00  0.00    -0.092 S 
ATOM     14  C   UNL     1      -1.076  -1.464   1.614  0.00  0.00    +0.077 A 
ENDBRANCH   1  14
BRANCH   8  15
ATOM     15  C   UNL     1      -0.319   0.802   4.997  0.00  0.00    +0.130 C 
BRANCH  15  16
ATOM     16  N   UNL     1       0.713   1.423   4.162  0.00  0.00    -0.279 N 
ATOM     17  C   UNL     1       0.704   2.755   3.958  0.00  0.00    +0.401 C 
ATOM     18  O   UNL     1      -0.161   3.441   4.466  0.00  0.00    -0.226 OA
ATOM     19  H   UNL     1       1.403   0.875   3.757  0.00  0.00    +0.152 HD
BRANCH  17  20
ATOM     20  O   UNL     1       1.652   3.325   3.192  0.00  0.00    -0.445 OA
BRANCH  20  21
ATOM     21  C   UNL     1       1.581   4.742   3.018  0.00  0.00    +0.107 C 
ATOM     22  C   UNL     1       1.687   5.428   4.381  0.00  0.00    +0.055 C 
ATOM     23  C   UNL     1       2.733   5.204   2.123  0.00  0.00    +0.055 C 
ATOM     24  C   UNL     1       0.248   5.109   2.364  0.00  0.00    +0.055 C 
ENDBRANCH  20  21
ENDBRANCH  17  20
ENDBRANCH  15  16
ENDBRANCH   8  15
TORSDOF 5
