REMARK  Name = ZINC01157385
REMARK  4 active torsions:
REMARK  status: ('A' for Active; 'I' for Inactive)
REMARK    1  A    between atoms: C_3  and  N_20
REMARK    2  A    between atoms: C_6  and  C_7
REMARK    3  A    between atoms: C_8  and  C_9
REMARK    4  A    between atoms: C_14  and  C_17
REMARK                            x       y       z     vdW  Elec       q    Type
REMARK                         _______ _______ _______ _____ _____    ______ ____
ROOT
ATOM      1  C   UNL     1       0.331  -1.356   2.016  0.00  0.00    +0.239 C 
ATOM      2  O   UNL     1       1.051  -1.808   2.887  0.00  0.00    -0.271 OA
ATOM      3  N   UNL     1       0.823  -0.469   1.129  0.00  0.00    -0.298 N 
ATOM      4  C   UNL     1       0.001   0.001   0.005  0.00  0.00    +0.109 C 
ATOM      5  C   UNL     1      -0.022   1.532   0.018  0.00  0.00    +0.032 C 
ATOM      6  C   UNL     1       1.414   2.061   0.009  0.00  0.00    +0.078 C 
ATOM      7  C   UNL     1       2.144   1.578   1.264  0.00  0.00    +0.032 C 
ATOM      8  C   UNL     1       2.192   0.047   1.266  0.00  0.00    +0.109 C 
ENDROOT
BRANCH   6   9
ATOM      9  C   UNL     1       1.395   3.567  -0.013  0.00  0.00    +0.214 C 
ATOM     10  O   UNL     1       0.337   4.160  -0.021  0.00  0.00    -0.276 OA
ATOM     11  N   UNL     1       2.553   4.256  -0.024  0.00  0.00    -0.329 N 
ATOM     12  H   UNL     1       3.400   3.781  -0.018  0.00  0.00    +0.145 HD
ATOM     13  H   UNL     1       2.541   5.226  -0.038  0.00  0.00    +0.145 HD
ENDBRANCH   6   9
BRANCH   1  15
ATOM     14  C   UNL     1      -1.589  -2.580   2.881  0.00  0.00    +0.013 C 
ATOM     15  C   UNL     1      -1.069  -1.775   1.933  0.00  0.00    +0.068 C 
BRANCH  14  21
ATOM     16  C   UNL     1      -3.800  -2.565   1.738  0.00  0.00    +0.010 A 
ATOM     17  C   UNL     1      -5.116  -2.970   1.663  0.00  0.00    +0.033 A 
ATOM     18  C   UNL     1      -5.646  -3.796   2.639  0.00  0.00    +0.126 A 
ATOM     19  C   UNL     1      -4.860  -4.227   3.693  0.00  0.00    +0.033 A 
ATOM     20  C   UNL     1      -3.540  -3.837   3.779  0.00  0.00    +0.010 A 
ATOM     21  C   UNL     1      -2.997  -3.002   2.797  0.00  0.00    -0.025 A 
BRANCH  18  22
ATOM     22  N   UNL     1      -7.062  -4.220   2.554  0.00  0.00    +0.056 N 
ATOM     23  O   UNL     1      -7.532  -4.947   3.411  0.00  0.00    -0.126 OA
ATOM     24  O   UNL     1      -7.756  -3.843   1.628  0.00  0.00    -0.126 OA
ENDBRANCH  18  22
ENDBRANCH  14  21
ENDBRANCH   1  15
TORSDOF 4
