REMARK  Name = ZINC15837972
REMARK  9 active torsions:
REMARK  status: ('A' for Active; 'I' for Inactive)
REMARK    1  A    between atoms: C_1  and  O_2
REMARK    2  A    between atoms: O_2  and  C_3
REMARK    3  A    between atoms: C_5  and  C_13
REMARK    4  A    between atoms: C_7  and  O_11
REMARK    5  A    between atoms: C_8  and  O_9
REMARK    6  A    between atoms: O_9  and  C_10
REMARK    7  A    between atoms: O_11  and  C_12
REMARK    8  A    between atoms: C_23  and  C_25
REMARK    9  A    between atoms: C_25  and  C_26
REMARK                            x       y       z     vdW  Elec       q    Type
REMARK                         _______ _______ _______ _____ _____    ______ ____
ROOT
ATOM      1  C   UNL     1      -4.849   0.222   0.038  0.00  0.00    +0.024 C 
ATOM      2  C   UNL     1      -6.064  -0.419  -0.058  0.00  0.00    +0.081 C 
ATOM      3  C   UNL     1      -7.344   0.337  -0.167  0.00  0.00    +0.152 C 
ATOM      4  N   UNL     1      -7.449   1.486  -0.780  0.00  0.00    -0.283 NA
ATOM      5  N   UNL     1      -8.433  -0.312   0.455  0.00  0.00    -0.152 N 
ATOM      6  C   UNL     1      -8.347  -1.677   0.625  0.00  0.00    +0.181 C 
ATOM      7  N   UNL     1      -7.325  -2.452   0.362  0.00  0.00    -0.152 NA
ATOM      8  C   UNL     1      -6.169  -1.899  -0.063  0.00  0.00    +0.273 C 
ATOM      9  O   UNL     1      -5.237  -2.593  -0.437  0.00  0.00    -0.268 OA
ATOM     10  S   UNL     1      -9.941  -2.068   1.296  0.00  0.00    -0.038 S 
ATOM     11  C   UNL     1     -10.569  -0.397   1.399  0.00  0.00    +0.104 C 
ATOM     12  N   UNL     1      -9.586   0.298   0.901  0.00  0.00    -0.169 NA
ATOM     13  H   UNL     1      -8.307   1.937  -0.822  0.00  0.00    +0.188 HD
ENDROOT
BRANCH   1  16
ATOM     14  C   UNL     1      -1.281  -0.923  -0.004  0.00  0.00    +0.166 A 
ATOM     15  C   UNL     1      -2.421  -0.196  -0.279  0.00  0.00    +0.057 A 
ATOM     16  C   UNL     1      -3.637  -0.546   0.327  0.00  0.00    -0.017 A 
ATOM     17  C   UNL     1      -3.687  -1.635   1.209  0.00  0.00    +0.057 A 
ATOM     18  C   UNL     1      -2.541  -2.356   1.478  0.00  0.00    +0.166 A 
ATOM     19  C   UNL     1      -1.337  -2.008   0.870  0.00  0.00    +0.204 A 
BRANCH  14  21
ATOM     20  C   UNL     1      -0.116   0.538  -1.475  0.00  0.00    +0.277 C 
ATOM     21  O   UNL     1      -0.101  -0.584  -0.591  0.00  0.00    -0.491 OA
ENDBRANCH  14  21
BRANCH  19  22
ATOM     22  O   UNL     1      -0.213  -2.724   1.133  0.00  0.00    -0.488 OA
ATOM     23  C   UNL     1       0.588  -2.293   2.236  0.00  0.00    +0.277 C 
ENDBRANCH  19  22
BRANCH  18  24
ATOM     24  O   UNL     1      -2.589  -3.412   2.334  0.00  0.00    -0.491 OA
ATOM     25  C   UNL     1      -3.857  -3.717   2.918  0.00  0.00    +0.277 C 
ENDBRANCH  18  24
ENDBRANCH   1  16
BRANCH  11  26
ATOM     26  C   UNL     1     -11.896   0.084   1.926  0.00  0.00    +0.099 C 
BRANCH  26  27
ATOM     27  C   UNL     1     -11.970   1.585   1.806  0.00  0.00    -0.041 A 
ATOM     28  C   UNL     1     -11.523   2.384   2.841  0.00  0.00    +0.004 A 
ATOM     29  C   UNL     1     -11.591   3.760   2.731  0.00  0.00    +0.000 A 
ATOM     30  C   UNL     1     -12.105   4.337   1.584  0.00  0.00    +0.000 A 
ATOM     31  C   UNL     1     -12.550   3.538   0.548  0.00  0.00    +0.000 A 
ATOM     32  C   UNL     1     -12.479   2.162   0.657  0.00  0.00    +0.004 A 
ENDBRANCH  26  27
ENDBRANCH  11  26
TORSDOF 6
