REMARK  Name = ZINC37799416
REMARK  4 active torsions:
REMARK  status: ('A' for Active; 'I' for Inactive)
REMARK    1  A    between atoms: C_1  and  C_2
REMARK    2  A    between atoms: C_5  and  C_9
REMARK    3  A    between atoms: C_7  and  N_8
REMARK    4  A    between atoms: C_16  and  C_18
REMARK                            x       y       z     vdW  Elec       q    Type
REMARK                         _______ _______ _______ _____ _____    ______ ____
ROOT
ATOM      1  C   UNL     1       1.681  -5.099  -0.194  0.00  0.00    +0.247 C 
ATOM      2  O   UNL     1       1.435  -5.637   0.868  0.00  0.00    -0.270 OA
ATOM      3  N   UNL     1       0.913  -5.354  -1.272  0.00  0.00    -0.286 N 
ATOM      4  C   UNL     1       1.109  -4.609  -2.523  0.00  0.00    +0.109 C 
ATOM      5  C   UNL     1      -0.232  -4.005  -2.952  0.00  0.00    +0.019 C 
ATOM      6  C   UNL     1      -1.283  -5.114  -3.038  0.00  0.00    +0.004 C 
ATOM      7  C   UNL     1      -1.462  -5.758  -1.662  0.00  0.00    +0.032 C 
ATOM      8  C   UNL     1      -0.131  -6.386  -1.220  0.00  0.00    +0.162 C 
ENDROOT
BRANCH   1  13
ATOM      9  C   UNL     1       6.125  -1.462  -0.634  0.00  0.00    +0.045 C 
ATOM     10  C   UNL     1       4.962  -2.413  -0.516  0.00  0.00    -0.030 A 
ATOM     11  C   UNL     1       4.439  -3.005  -1.651  0.00  0.00    +0.006 A 
ATOM     12  C   UNL     1       3.374  -3.877  -1.552  0.00  0.00    +0.013 A 
ATOM     13  C   UNL     1       2.822  -4.165  -0.303  0.00  0.00    +0.039 A 
ATOM     14  C   UNL     1       3.349  -3.569   0.842  0.00  0.00    +0.036 A 
ATOM     15  C   UNL     1       4.423  -2.698   0.733  0.00  0.00    +0.028 A 
BRANCH  15  16
ATOM     16  N   UNL     1       4.959  -2.102   1.877  0.00  0.00    -0.358 N 
ATOM     17  H   UNL     1       5.707  -1.490   1.800  0.00  0.00    +0.142 HD
ATOM     18  H   UNL     1       4.583  -2.301   2.749  0.00  0.00    +0.142 HD
ENDBRANCH  15  16
ENDBRANCH   1  13
BRANCH   8  19
ATOM     19  C   UNL     1      -0.258  -6.906   0.189  0.00  0.00    +0.231 C 
ATOM     20  O   UNL     1      -0.717  -6.196   1.058  0.00  0.00    -0.274 OA
ATOM     21  N   UNL     1       0.137  -8.161   0.482  0.00  0.00    -0.328 N 
ATOM     22  H   UNL     1       0.504  -8.729  -0.213  0.00  0.00    +0.145 HD
ATOM     23  H   UNL     1       0.055  -8.495   1.389  0.00  0.00    +0.145 HD
ENDBRANCH   8  19
TORSDOF 3
