REMARK  Name = ZINC17128388
REMARK  4 active torsions:
REMARK  status: ('A' for Active; 'I' for Inactive)
REMARK    1  A    between atoms: C_4  and  C_7
REMARK    2  A    between atoms: C_7  and  O_20
REMARK    3  A    between atoms: C_8  and  C_13
REMARK    4  A    between atoms: C_8  and  O_19
REMARK                            x       y       z     vdW  Elec       q    Type
REMARK                         _______ _______ _______ _____ _____    ______ ____
ROOT
ATOM      1  C   UNL     1      -3.484   2.014   0.030  0.00  0.00    +0.212 C 
ATOM      2  C   UNL     1      -2.703   3.343   0.034  0.00  0.00    +0.217 C 
ATOM      3  N   UNL     1      -1.293   2.927   0.030  0.00  0.00    -0.326 N 
ATOM      4  C   UNL     1      -1.211   1.637   0.017  0.00  0.00    +0.156 C 
ATOM      5  N   UNL     1      -2.420   0.997   0.019  0.00  0.00    -0.283 N 
ATOM      6  N   UNL     1      -0.011   0.966   0.007  0.00  0.00    -0.333 N 
ATOM      7  H   UNL     1      -2.681  -0.072   0.014  0.00  0.00    +0.152 HD
ATOM      8  H   UNL     1       0.004  -0.134  -0.004  0.00  0.00    +0.145 HD
ATOM      9  H   UNL     1       0.934   1.529   0.011  0.00  0.00    +0.145 HD
ATOM     10  H   UNL     1      -0.377   3.537   0.036  0.00  0.00    +0.165 HD
ENDROOT
BRANCH   1  14
ATOM     11  C   UNL     1      -5.878   1.653   3.549  0.00  0.00    +0.000 A 
ATOM     12  C   UNL     1      -4.553   1.262   3.572  0.00  0.00    +0.000 A 
ATOM     13  C   UNL     1      -3.778   1.379   2.433  0.00  0.00    +0.008 A 
ATOM     14  C   UNL     1      -4.329   1.887   1.271  0.00  0.00    +0.007 A 
ATOM     15  C   UNL     1      -5.653   2.282   1.250  0.00  0.00    +0.008 A 
ATOM     16  C   UNL     1      -6.429   2.161   2.387  0.00  0.00    +0.000 A 
ENDBRANCH   1  14
BRANCH   2  17
ATOM     17  C   UNL     1      -3.012   4.134   1.279  0.00  0.00    +0.009 A 
ATOM     18  C   UNL     1      -4.120   4.960   1.316  0.00  0.00    +0.008 A 
ATOM     19  C   UNL     1      -4.406   5.682   2.459  0.00  0.00    +0.000 A 
ATOM     20  C   UNL     1      -3.579   5.586   3.563  0.00  0.00    +0.000 A 
ATOM     21  C   UNL     1      -2.467   4.764   3.524  0.00  0.00    +0.000 A 
ATOM     22  C   UNL     1      -2.184   4.039   2.382  0.00  0.00    +0.008 A 
ENDBRANCH   2  17
BRANCH   2  23
ATOM     23  O   UNL     1      -3.007   4.107  -1.135  0.00  0.00    -0.362 OA
ATOM     24  H   UNL     1      -2.533   5.087  -1.291  0.00  0.00    +0.213 HD
ENDBRANCH   2  23
BRANCH   1  25
ATOM     25  O   UNL     1      -4.294   1.909  -1.142  0.00  0.00    -0.364 OA
ATOM     26  H   UNL     1      -3.833   1.981  -2.138  0.00  0.00    +0.213 HD
ENDBRANCH   1  25
TORSDOF 4
