REMARK  Name = ZINC49298022
REMARK  7 active torsions:
REMARK  status: ('A' for Active; 'I' for Inactive)
REMARK    1  A    between atoms: C_1  and  C_2
REMARK    2  A    between atoms: C_2  and  C_4
REMARK    3  A    between atoms: C_2  and  S_15
REMARK    4  A    between atoms: N_6  and  C_7
REMARK    5  A    between atoms: C_7  and  C_8
REMARK    6  A    between atoms: S_15  and  C_16
REMARK    7  A    between atoms: N_20  and  C_21
REMARK                            x       y       z     vdW  Elec       q    Type
REMARK                         _______ _______ _______ _____ _____    ______ ____
ROOT
ATOM      1  C   UNL     1       0.731  -0.503   1.223  0.00  0.00    +0.226 C 
ATOM      2  O   UNL     1       0.105  -0.891   2.187  0.00  0.00    -0.275 OA
ATOM      3  N   UNL     1       2.079  -0.519   1.244  0.00  0.00    -0.314 N 
ATOM      4  H   UNL     1       2.579  -0.208   0.473  0.00  0.00    +0.149 HD
ENDROOT
BRANCH   1   6
ATOM      5  C   UNL     1      -0.019   1.526   0.010  0.00  0.00    +0.029 C 
ATOM      6  C   UNL     1       0.002  -0.004   0.002  0.00  0.00    +0.137 C 
BRANCH   6   7
ATOM      7  S   UNL     1      -1.700  -0.632   0.015  0.00  0.00    -0.074 S 
BRANCH   7   8
ATOM      8  C   UNL     1      -2.365  -0.093  -1.525  0.00  0.00    +0.192 A 
ATOM      9  N   UNL     1      -1.736   0.597  -2.448  0.00  0.00    -0.123 NA
ATOM     10  N   UNL     1      -2.522   0.816  -3.441  0.00  0.00    -0.137 NA
ATOM     11  C   UNL     1      -3.689   0.283  -3.213  0.00  0.00    +0.225 A 
ATOM     12  N   UNL     1      -3.629  -0.320  -1.988  0.00  0.00    -0.312 N 
ATOM     13  C   UNL     1      -4.700  -1.055  -1.310  0.00  0.00    +0.152 C 
ENDBRANCH   7   8
ENDBRANCH   6   7
ENDBRANCH   1   6
BRANCH   3  14
ATOM     14  C   UNL     1       2.787  -1.004   2.431  0.00  0.00    +0.108 C 
BRANCH  14  15
ATOM     15  C   UNL     1       4.296  -0.916   2.195  0.00  0.00    +0.010 C 
ATOM     16  C   UNL     1       5.042  -1.315   3.475  0.00  0.00    +0.009 C 
ATOM     17  C   UNL     1       6.534  -1.048   3.269  0.00  0.00    +0.027 C 
ATOM     18  C   UNL     1       6.992  -1.645   1.970  0.00  0.00    -0.031 C 
ATOM     19  C   UNL     1       6.194  -2.004   1.016  0.00  0.00    -0.031 C 
ATOM     20  C   UNL     1       4.699  -1.878   1.075  0.00  0.00    +0.032 C 
ENDBRANCH  14  15
ENDBRANCH   3  14
TORSDOF 5
