REMARK  Name = ZINC04084651
REMARK  4 active torsions:
REMARK  status: ('A' for Active; 'I' for Inactive)
REMARK    1  A    between atoms: C_12  and  C_18
REMARK    2  A    between atoms: C_12  and  O_22
REMARK    3  A    between atoms: N_13  and  C_15
REMARK    4  A    between atoms: C_15  and  N_17
REMARK                            x       y       z     vdW  Elec       q    Type
REMARK                         _______ _______ _______ _____ _____    ______ ____
ROOT
ATOM      1  C   UNL     1      -2.647  -1.486   2.036  0.00  0.00    +0.007 C 
ATOM      2  C   UNL     1      -1.636  -2.109   1.071  0.00  0.00    -0.010 C 
ATOM      3  C   UNL     1      -1.855  -1.540  -0.332  0.00  0.00    +0.009 C 
ATOM      4  C   UNL     1      -1.657  -0.021  -0.304  0.00  0.00    +0.012 C 
ATOM      5  C   UNL     1      -2.668   0.596   0.661  0.00  0.00    +0.009 C 
ATOM      6  C   UNL     1      -2.450   0.031   2.066  0.00  0.00    -0.010 C 
ATOM      7  C   UNL     1      -1.031   0.350   2.539  0.00  0.00    +0.009 C 
ATOM      8  C   UNL     1      -0.017  -0.271   1.572  0.00  0.00    +0.012 C 
ATOM      9  C   UNL     1      -0.204  -1.791   1.541  0.00  0.00    +0.009 C 
ATOM     10  C   UNL     1      -0.247   0.292   0.176  0.00  0.00    +0.047 C 
ATOM     11  C   UNL     1       0.003   1.817   0.161  0.00  0.00    +0.090 C 
ATOM     12  C   UNL     1       1.535   1.864  -0.061  0.00  0.00    +0.246 C 
ATOM     13  N   UNL     1       1.894   0.543  -0.603  0.00  0.00    -0.209 N 
ATOM     14  N   UNL     1       0.762  -0.216  -0.773  0.00  0.00    -0.229 NA
ATOM     15  H   UNL     1       0.427  -0.157  -1.723  0.00  0.00    +0.145 HD
ENDROOT
BRANCH  12  16
ATOM     16  C   UNL     1       1.891   2.962  -1.065  0.00  0.00    +0.437 C 
ATOM     17  F   UNL     1       1.321   4.172  -0.654  0.00  0.00    -0.166 F 
ATOM     18  F   UNL     1       3.282   3.101  -1.131  0.00  0.00    -0.166 F 
ATOM     19  F   UNL     1       1.396   2.619  -2.328  0.00  0.00    -0.166 F 
ENDBRANCH  12  16
BRANCH  13  20
ATOM     20  C   UNL     1       3.147   0.138  -0.888  0.00  0.00    +0.147 C 
ATOM     21  S   UNL     1       4.463   1.213  -0.679  0.00  0.00    -0.018 S 
BRANCH  20  22
ATOM     22  N   UNL     1       3.365  -1.114  -1.339  0.00  0.00    -0.339 N 
ATOM     23  H   UNL     1       2.620  -1.723  -1.457  0.00  0.00    +0.144 HD
ATOM     24  H   UNL     1       4.267  -1.405  -1.544  0.00  0.00    +0.144 HD
ENDBRANCH  20  22
ENDBRANCH  13  20
BRANCH  12  25
ATOM     25  O   UNL     1       2.208   2.089   1.179  0.00  0.00    -0.363 OA
ATOM     26  H   UNL     1       3.171   2.129   1.103  0.00  0.00    +0.212 HD
ENDBRANCH  12  25
TORSDOF 4
