REMARK  Name = ZINC01435785
REMARK  10 active torsions:
REMARK  status: ('A' for Active; 'I' for Inactive)
REMARK    1  A    between atoms: C_1  and  C_2
REMARK    2  A    between atoms: C_2  and  C_32
REMARK    3  A    between atoms: C_6  and  C_20
REMARK    4  A    between atoms: C_8  and  C_18
REMARK    5  A    between atoms: C_9  and  N_17
REMARK    6  A    between atoms: N_10  and  C_11
REMARK    7  A    between atoms: C_23  and  C_25
REMARK    8  A    between atoms: C_25  and  C_26
REMARK    9  A    between atoms: C_25  and  C_27
REMARK   10  A    between atoms: C_25  and  C_28
REMARK                            x       y       z     vdW  Elec       q    Type
REMARK                         _______ _______ _______ _____ _____    ______ ____
ROOT
ATOM      1  C   UNL     1       2.578   2.706  -2.391  0.00  0.00    +0.011 C 
ATOM      2  C   UNL     1       3.689   2.018  -3.188  0.00  0.00    -0.023 C 
ATOM      3  C   UNL     1       5.001   2.086  -2.404  0.00  0.00    +0.058 C 
ATOM      4  C   UNL     1       4.846   1.359  -1.091  0.00  0.00    +0.025 C 
ATOM      5  C   UNL     1       4.009   0.306  -0.973  0.00  0.00    +0.026 C 
ATOM      6  C   UNL     1       3.860  -0.422   0.338  0.00  0.00    +0.104 C 
ATOM      7  C   UNL     1       5.003  -0.119   1.261  0.00  0.00    +0.077 C 
ATOM      8  C   UNL     1       5.803   0.959   1.056  0.00  0.00    +0.107 C 
ATOM      9  N   UNL     1       5.579   1.792  -0.017  0.00  0.00    -0.260 N 
ATOM     10  C   UNL     1       3.251  -0.142  -2.069  0.00  0.00    +0.162 C 
ATOM     11  O   UNL     1       2.518  -1.102  -1.934  0.00  0.00    -0.292 OA
ATOM     12  C   UNL     1       3.329   0.545  -3.405  0.00  0.00    +0.086 C 
ATOM     13  C   UNL     1       3.860   2.715  -4.539  0.00  0.00    +0.011 C 
ENDROOT
BRANCH   9  14
ATOM     14  C   UNL     1       6.103   3.090  -0.010  0.00  0.00    +0.040 A 
ATOM     15  C   UNL     1       7.375   3.329  -0.515  0.00  0.00    +0.024 A 
ATOM     16  C   UNL     1       7.887   4.612  -0.512  0.00  0.00    +0.002 A 
ATOM     17  C   UNL     1       7.139   5.655   0.003  0.00  0.00    +0.000 A 
ATOM     18  C   UNL     1       5.875   5.419   0.511  0.00  0.00    +0.002 A 
ATOM     19  C   UNL     1       5.355   4.140   0.506  0.00  0.00    +0.024 A 
ENDBRANCH   9  14
BRANCH   6  20
ATOM     20  C   UNL     1       2.571   0.001   0.994  0.00  0.00    +0.003 A 
ATOM     21  C   UNL     1       1.503  -0.757   1.345  0.00  0.00    +0.012 A 
ATOM     22  C   UNL     1       0.416  -0.147   1.943  0.00  0.00    +0.012 A 
ATOM     23  C   UNL     1       0.450   1.191   2.160  0.00  0.00    -0.005 A 
ATOM     24  S   UNL     1       2.054   1.630   1.511  0.00  0.00    -0.097 S 
BRANCH  23  25
ATOM     25  C   UNL     1      -0.597   2.078   2.782  0.00  0.00    -0.006 C 
ATOM     26  C   UNL     1      -0.878   1.611   4.212  0.00  0.00    +0.016 C 
ATOM     27  C   UNL     1      -0.092   3.522   2.808  0.00  0.00    +0.016 C 
ATOM     28  C   UNL     1      -1.884   2.003   1.959  0.00  0.00    +0.016 C 
ENDBRANCH  23  25
ENDBRANCH   6  20
BRANCH   8  29
ATOM     29  N   UNL     1       6.839   1.219   1.922  0.00  0.00    -0.345 N 
ATOM     30  H   UNL     1       7.359   2.033   1.826  0.00  0.00    +0.144 HD
ATOM     31  H   UNL     1       7.050   0.589   2.629  0.00  0.00    +0.144 HD
ENDBRANCH   8  29
BRANCH   7  32
ATOM     32  C   UNL     1       5.255  -0.982   2.376  0.00  0.00    +0.099 C 
ATOM     33  N   UNL     1       5.455  -1.665   3.261  0.00  0.00    -0.191 NA
ENDBRANCH   7  32
TORSDOF 5
