REMARK  Name = ZINC02312290
REMARK  10 active torsions:
REMARK  status: ('A' for Active; 'I' for Inactive)
REMARK    1  A    between atoms: C_1  and  C_2
REMARK    2  A    between atoms: C_2  and  O_3
REMARK    3  A    between atoms: O_3  and  C_4
REMARK    4  A    between atoms: C_9  and  C_10
REMARK    5  A    between atoms: C_12  and  C_34
REMARK    6  A    between atoms: C_13  and  S_22
REMARK    7  A    between atoms: S_22  and  C_23
REMARK    8  A    between atoms: C_23  and  C_24
REMARK    9  A    between atoms: N_26  and  C_27
REMARK   10  A    between atoms: C_30  and  C_33
REMARK                            x       y       z     vdW  Elec       q    Type
REMARK                         _______ _______ _______ _____ _____    ______ ____
ROOT
ATOM      1  C   UNL     1      -3.975  -1.518   0.032  0.00  0.00    +0.101 C 
ATOM      2  C   UNL     1      -4.761  -1.744  -1.247  0.00  0.00    +0.073 C 
ATOM      3  C   UNL     1      -6.076  -2.155  -1.119  0.00  0.00    +0.112 C 
ATOM      4  N   UNL     1      -6.649  -2.351   0.070  0.00  0.00    -0.244 NA
ATOM      5  C   UNL     1      -6.069  -2.188   1.233  0.00  0.00    +0.050 C 
ATOM      6  C   UNL     1      -4.731  -1.774   1.322  0.00  0.00    +0.029 C 
ATOM      7  C   UNL     1      -4.117  -1.602   2.504  0.00  0.00    +0.162 C 
ATOM      8  C   UNL     1      -4.838  -1.849   3.803  0.00  0.00    +0.080 C 
ATOM      9  C   UNL     1      -6.331  -1.570   3.613  0.00  0.00    +0.014 C 
ATOM     10  C   UNL     1      -6.857  -2.453   2.494  0.00  0.00    +0.056 C 
ATOM     11  O   UNL     1      -2.831  -1.200   2.529  0.00  0.00    -0.292 OA
ENDROOT
BRANCH   1  17
ATOM     12  C   UNL     1      -1.492  -1.868  -0.001  0.00  0.00    +0.125 A 
ATOM     13  C   UNL     1      -0.381  -2.700  -0.018  0.00  0.00    +0.046 A 
ATOM     14  C   UNL     1      -0.546  -4.071  -0.033  0.00  0.00    +0.004 A 
ATOM     15  C   UNL     1      -1.817  -4.615  -0.030  0.00  0.00    +0.001 A 
ATOM     16  C   UNL     1      -2.926  -3.789  -0.013  0.00  0.00    +0.008 A 
ATOM     17  C   UNL     1      -2.766  -2.417   0.007  0.00  0.00    +0.007 A 
BRANCH  12  18
ATOM     18  O   UNL     1      -1.333  -0.519   0.014  0.00  0.00    -0.492 OA
BRANCH  18  20
ATOM     19  C   UNL     1      -0.013   1.506   0.024  0.00  0.00    +0.048 C 
ATOM     20  C   UNL     1       0.008  -0.024   0.005  0.00  0.00    +0.225 C 
ENDBRANCH  18  20
ENDBRANCH  12  18
ENDBRANCH   1  17
BRANCH   2  21
ATOM     21  C   UNL     1      -4.166  -1.539  -2.534  0.00  0.00    +0.098 C 
ATOM     22  N   UNL     1      -3.694  -1.377  -3.554  0.00  0.00    -0.191 NA
ENDBRANCH   2  21
BRANCH   3  23
ATOM     23  S   UNL     1      -7.028  -2.429  -2.576  0.00  0.00    -0.096 S 
BRANCH  23  24
ATOM     24  C   UNL     1      -8.651  -2.943  -1.951  0.00  0.00    +0.172 C 
BRANCH  24  25
ATOM     25  C   UNL     1      -9.574  -3.213  -3.111  0.00  0.00    +0.227 C 
ATOM     26  O   UNL     1      -9.176  -3.072  -4.248  0.00  0.00    -0.275 OA
ATOM     27  N   UNL     1     -10.842  -3.611  -2.885  0.00  0.00    -0.285 N 
ATOM     28  H   UNL     1     -11.140  -3.789  -1.980  0.00  0.00    +0.155 HD
BRANCH  27  29
ATOM     29  C   UNL     1     -11.727  -3.768  -3.957  0.00  0.00    +0.033 A 
ATOM     30  C   UNL     1     -13.071  -3.453  -3.802  0.00  0.00    +0.023 A 
ATOM     31  C   UNL     1     -13.942  -3.609  -4.862  0.00  0.00    +0.005 A 
ATOM     32  C   UNL     1     -13.478  -4.078  -6.077  0.00  0.00    -0.050 A 
ATOM     33  C   UNL     1     -12.141  -4.393  -6.235  0.00  0.00    +0.005 A 
ATOM     34  C   UNL     1     -11.263  -4.233  -5.181  0.00  0.00    +0.023 A 
ATOM     35  C   UNL     1     -14.432  -4.247  -7.232  0.00  0.00    +0.044 C 
ENDBRANCH  27  29
ENDBRANCH  24  25
ENDBRANCH  23  24
ENDBRANCH   3  23
TORSDOF 8
