REMARK  Name = ZINC63095483
REMARK  6 active torsions:
REMARK  status: ('A' for Active; 'I' for Inactive)
REMARK    1  A    between atoms: C_1  and  C_2
REMARK    2  A    between atoms: C_2  and  C_4
REMARK    3  A    between atoms: C_2  and  N_7
REMARK    4  A    between atoms: C_4  and  C_5
REMARK    5  A    between atoms: N_7  and  C_8
REMARK    6  A    between atoms: C_9  and  C_11
REMARK                            x       y       z     vdW  Elec       q    Type
REMARK                         _______ _______ _______ _____ _____    ______ ____
ROOT
ATOM      1  N   UNL     1       0.716  -0.632   1.286  0.00  0.00    -0.296 N 
ATOM      2  C   UNL     1       2.135  -0.365   1.533  0.00  0.00    +0.132 C 
ATOM      3  C   UNL     1      -0.040  -1.200   2.247  0.00  0.00    +0.263 C 
ATOM      4  O   UNL     1      -1.188  -1.526   2.005  0.00  0.00    -0.268 OA
ENDROOT
BRANCH   3   5
ATOM      5  C   UNL     1       0.520  -1.426   3.583  0.00  0.00    +0.103 A 
ATOM      6  C   UNL     1      -0.074  -2.133   4.607  0.00  0.00    +0.047 A 
ATOM      7  C   UNL     1       0.805  -2.098   5.695  0.00  0.00    +0.036 A 
ATOM      8  C   UNL     1       1.896  -1.385   5.325  0.00  0.00    +0.098 A 
ATOM      9  N   UNL     1       1.738  -0.976   4.042  0.00  0.00    -0.356 N 
ATOM     10  H   UNL     1       2.375  -0.452   3.532  0.00  0.00    +0.165 HD
ATOM     11 BR   UNL     1       0.520  -2.901   7.383  0.00  0.00    -0.049 Br
ENDBRANCH   3   5
BRANCH   1  13
ATOM     12  C   UNL     1       0.257   1.223  -0.240  0.00  0.00    +0.029 C 
ATOM     13  C   UNL     1       0.118  -0.283  -0.005  0.00  0.00    +0.087 C 
BRANCH  13  14
ATOM     14  C   UNL     1       0.837  -1.042  -1.122  0.00  0.00    +0.140 C 
BRANCH  14  15
ATOM     15  C   UNL     1       0.604  -2.486  -0.963  0.00  0.00    +0.064 C 
ATOM     16  N   UNL     1       0.423  -3.601  -0.841  0.00  0.00    -0.197 NA
ENDBRANCH  14  15
ENDBRANCH  13  14
ENDBRANCH   1  13
TORSDOF 4
