REMARK  Name = ZINC11242229
REMARK  10 active torsions:
REMARK  status: ('A' for Active; 'I' for Inactive)
REMARK    1  A    between atoms: C_1  and  C_2
REMARK    2  A    between atoms: C_2  and  C_3
REMARK    3  A    between atoms: C_2  and  C_4
REMARK    4  A    between atoms: C_4  and  N_5
REMARK    5  A    between atoms: C_9  and  C_11
REMARK    6  A    between atoms: C_11  and  O_12
REMARK    7  A    between atoms: O_12  and  C_13
REMARK    8  A    between atoms: C_13  and  C_15
REMARK    9  A    between atoms: N_18  and  S_21
REMARK   10  A    between atoms: S_21  and  C_24
REMARK                            x       y       z     vdW  Elec       q    Type
REMARK                         _______ _______ _______ _____ _____    ______ ____
ROOT
ATOM      1  C   UNL     1      -0.166   1.194   2.384  0.00  0.00    +0.311 C 
ATOM      2  O   UNL     1       0.829   0.510   2.418  0.00  0.00    -0.251 OA
ENDROOT
BRANCH   1   3
ATOM      3  C   UNL     1      -0.817   1.643   3.667  0.00  0.00    +0.100 C 
ATOM      4  C   UNL     1      -0.838   3.172   3.720  0.00  0.00    +0.032 C 
ATOM      5  C   UNL     1      -1.531   3.624   5.010  0.00  0.00    +0.110 C 
ATOM      6  N   UNL     1      -0.863   2.990   6.154  0.00  0.00    -0.177 NA
ATOM      7  C   UNL     1      -0.708   1.528   6.160  0.00  0.00    +0.110 C 
ATOM      8  C   UNL     1      -0.024   1.099   4.858  0.00  0.00    +0.032 C 
BRANCH   6   9
ATOM      9  S   UNL     1      -0.295   3.903   7.413  0.00  0.00    +0.061 S 
ATOM     10  O   UNL     1      -1.046   5.109   7.410  0.00  0.00    -0.153 OA
ATOM     11  O   UNL     1      -0.236   3.045   8.543  0.00  0.00    -0.153 OA
BRANCH   9  12
ATOM     12  C   UNL     1       1.367   4.344   7.028  0.00  0.00    +0.105 A 
ATOM     13  C   UNL     1       2.409   3.528   7.427  0.00  0.00    +0.028 A 
ATOM     14  C   UNL     1       3.712   3.872   7.122  0.00  0.00    +0.002 A 
ATOM     15  C   UNL     1       3.975   5.037   6.426  0.00  0.00    +0.000 A 
ATOM     16  C   UNL     1       2.934   5.856   6.032  0.00  0.00    +0.002 A 
ATOM     17  C   UNL     1       1.630   5.510   6.333  0.00  0.00    +0.028 A 
ENDBRANCH   9  12
ENDBRANCH   6   9
ENDBRANCH   1   3
BRANCH   1  18
ATOM     18  O   UNL     1      -0.692   1.554   1.203  0.00  0.00    -0.455 OA
BRANCH  18  19
ATOM     19  C   UNL     1      -0.013   1.086   0.008  0.00  0.00    +0.328 C 
BRANCH  19  24
ATOM     20  N   UNL     1      -0.487   1.406  -4.765  0.00  0.00    -0.299 N 
ATOM     21  C   UNL     1      -0.940   1.719  -3.535  0.00  0.00    +0.306 C 
ATOM     22  O   UNL     1      -1.937   2.403  -3.410  0.00  0.00    -0.252 OA
ATOM     23  N   UNL     1      -0.288   1.272  -2.443  0.00  0.00    -0.237 N 
ATOM     24  C   UNL     1      -0.742   1.585  -1.213  0.00  0.00    +0.258 C 
ATOM     25  O   UNL     1      -1.736   2.268  -1.089  0.00  0.00    -0.272 OA
ATOM     26  H   UNL     1       0.308   0.860  -4.865  0.00  0.00    +0.150 HD
ATOM     27  H   UNL     1       0.507   0.726  -2.543  0.00  0.00    +0.159 HD
BRANCH  20  28
ATOM     28  C   UNL     1      -1.196   1.891  -5.952  0.00  0.00    +0.108 C 
BRANCH  28  30
ATOM     29  C   UNL     1      -0.568  -0.128  -7.283  0.00  0.00    +0.009 C 
ATOM     30  C   UNL     1      -0.480   1.398  -7.211  0.00  0.00    -0.000 C 
ATOM     31  C   UNL     1      -1.145   2.006  -8.447  0.00  0.00    +0.009 C 
ENDBRANCH  28  30
ENDBRANCH  20  28
ENDBRANCH  19  24
ENDBRANCH  18  19
ENDBRANCH   1  18
TORSDOF 8
