REMARK  Name = ZINC63372808
REMARK  2 active torsions:
REMARK  status: ('A' for Active; 'I' for Inactive)
REMARK    1  A    between atoms: C_8  and  C_16
REMARK    2  A    between atoms: N_20  and  C_23
REMARK                            x       y       z     vdW  Elec       q    Type
REMARK                         _______ _______ _______ _____ _____    ______ ____
ROOT
ATOM      1  C   UNL     1       3.239  -2.613   2.586  0.00  0.00    +0.101 A 
ATOM      2  C   UNL     1       2.200  -1.732   2.616  0.00  0.00    +0.263 A 
ATOM      3  N   UNL     1       2.187  -0.735   3.559  0.00  0.00    -0.274 N 
ATOM      4  C   UNL     1       3.191  -0.625   4.448  0.00  0.00    +0.337 A 
ATOM      5  N   UNL     1       4.226  -1.484   4.434  0.00  0.00    -0.229 N 
ATOM      6  C   UNL     1       4.274  -2.482   3.529  0.00  0.00    +0.270 A 
ATOM      7  O   UNL     1       5.212  -3.261   3.524  0.00  0.00    -0.267 OA
ATOM      8  O   UNL     1       3.163   0.266   5.276  0.00  0.00    -0.246 OA
ATOM      9  O   UNL     1       1.191  -1.839   1.726  0.00  0.00    -0.267 OA
ATOM     10  H   UNL     1       1.450  -0.105   3.584  0.00  0.00    +0.173 HD
ENDROOT
BRANCH   1  17
ATOM     11  C   UNL     1       1.397   0.987  -1.114  0.00  0.00    +0.001 A 
ATOM     12  C   UNL     1       2.769   1.267  -1.159  0.00  0.00    +0.002 A 
ATOM     13  C   UNL     1       3.709   0.353  -0.839  0.00  0.00    +0.026 A 
ATOM     14  C   UNL     1       3.333  -0.957  -0.436  0.00  0.00    +0.043 A 
ATOM     15  N   UNL     1       4.048  -1.994  -0.059  0.00  0.00    -0.376 N 
ATOM     16  C   UNL     1       3.148  -3.122   0.157  0.00  0.00    +0.128 C 
ATOM     17  C   UNL     1       3.276  -3.717   1.561  0.00  0.00    +0.121 C 
ATOM     18  N   UNL     1       2.146  -4.635   1.780  0.00  0.00    -0.307 NA
ATOM     19  C   UNL     1       0.850  -3.953   1.838  0.00  0.00    +0.086 C 
ATOM     20  C   UNL     1       0.523  -3.323   0.471  0.00  0.00    +0.048 C 
ATOM     21  C   UNL     1       1.746  -2.544   0.041  0.00  0.00    -0.035 C 
ATOM     22  C   UNL     1       1.885  -1.278  -0.370  0.00  0.00    -0.001 A 
ATOM     23  C   UNL     1       0.930  -0.225  -0.740  0.00  0.00    +0.010 A 
ATOM     24  H   UNL     1       2.138  -5.369   1.087  0.00  0.00    +0.123 HD
ATOM     25  H   UNL     1       5.011  -2.007   0.056  0.00  0.00    +0.160 HD
ENDBRANCH   1  17
BRANCH   5  26
ATOM     26  C   UNL     1       5.259  -1.345   5.372  0.00  0.00    +0.055 A 
ATOM     27  C   UNL     1       6.361  -0.553   5.080  0.00  0.00    +0.029 A 
ATOM     28  C   UNL     1       7.377  -0.417   6.005  0.00  0.00    +0.040 A 
ATOM     29  C   UNL     1       7.297  -1.069   7.223  0.00  0.00    +0.124 A 
ATOM     30  C   UNL     1       6.199  -1.860   7.517  0.00  0.00    +0.040 A 
ATOM     31  C   UNL     1       5.178  -1.994   6.596  0.00  0.00    +0.029 A 
ATOM     32  F   UNL     1       8.293  -0.935   8.127  0.00  0.00    -0.205 F 
ENDBRANCH   5  26
TORSDOF 2
