REMARK  Name = ZINC66366239
REMARK  14 active torsions:
REMARK  status: ('A' for Active; 'I' for Inactive)
REMARK    1  A    between atoms: C_1  and  C_2
REMARK    2  A    between atoms: C_2  and  C_3
REMARK    3  A    between atoms: C_3  and  C_5
REMARK    4  A    between atoms: C_3  and  N_8
REMARK    5  A    between atoms: C_5  and  C_6
REMARK    6  A    between atoms: C_5  and  C_7
REMARK    7  A    between atoms: N_11  and  N_12
REMARK    8  A    between atoms: C_13  and  C_15
REMARK    9  A    between atoms: C_15  and  C_17
REMARK   10  A    between atoms: C_15  and  O_18
REMARK   11  A    between atoms: O_18  and  C_19
REMARK   12  A    between atoms: C_22  and  O_25
REMARK   13  A    between atoms: O_25  and  C_26
REMARK   14  A    between atoms: C_26  and  C_27
REMARK                            x       y       z     vdW  Elec       q    Type
REMARK                         _______ _______ _______ _____ _____    ______ ____
ROOT
ATOM      1  N   UNL     1      -1.483   0.882  -4.586  0.00  0.00    -0.230 N 
ATOM      2  C   UNL     1      -2.217   1.197  -5.671  0.00  0.00    +0.270 C 
ATOM      3  O   UNL     1      -1.667   1.493  -6.711  0.00  0.00    -0.270 OA
ATOM      4  H   UNL     1      -1.923   0.645  -3.755  0.00  0.00    +0.173 HD
ENDROOT
BRANCH   1   8
ATOM      5  N   UNL     1       0.039   0.252  -2.418  0.00  0.00    -0.295 N 
ATOM      6  C   UNL     1       0.651   0.581  -3.574  0.00  0.00    +0.316 C 
ATOM      7  O   UNL     1       1.865   0.593  -3.637  0.00  0.00    -0.251 OA
ATOM      8  N   UNL     1      -0.084   0.896  -4.659  0.00  0.00    -0.218 N 
ATOM      9  H   UNL     1      -0.929   0.242  -2.368  0.00  0.00    +0.151 HD
ATOM     10  H   UNL     1       0.356   1.133  -5.490  0.00  0.00    +0.174 HD
BRANCH   5  11
ATOM     11  C   UNL     1       0.837  -0.091  -1.239  0.00  0.00    +0.077 C 
BRANCH  11  12
ATOM     12  C   UNL     1       1.214  -1.573  -1.291  0.00  0.00    +0.003 C 
ATOM     13  C   UNL     1       2.048  -1.931  -0.059  0.00  0.00    +0.009 C 
ATOM     14  C   UNL     1      -0.059  -2.422  -1.310  0.00  0.00    +0.009 C 
ENDBRANCH  11  12
BRANCH  11  16
ATOM     15  C   UNL     1      -0.248   1.685   0.143  0.00  0.00    +0.006 C 
ATOM     16  C   UNL     1       0.022   0.184   0.026  0.00  0.00    +0.019 C 
ENDBRANCH  11  16
ENDBRANCH   5  11
ENDBRANCH   1   8
BRANCH   2  17
ATOM     17  C   UNL     1      -3.722   1.182  -5.593  0.00  0.00    +0.257 C 
ATOM     18  C   UNL     1      -4.193   2.265  -4.620  0.00  0.00    +0.062 C 
BRANCH  17  19
ATOM     19  O   UNL     1      -4.269   1.435  -6.889  0.00  0.00    -0.480 OA
BRANCH  19  20
ATOM     20  C   UNL     1      -5.521   0.965  -7.133  0.00  0.00    +0.122 A 
ATOM     21  C   UNL     1      -6.067   1.072  -8.403  0.00  0.00    +0.049 A 
ATOM     22  C   UNL     1      -7.339   0.595  -8.651  0.00  0.00    +0.049 A 
ATOM     23  C   UNL     1      -8.071   0.008  -7.629  0.00  0.00    +0.121 A 
ATOM     24  C   UNL     1      -7.525  -0.099  -6.359  0.00  0.00    +0.049 A 
ATOM     25  C   UNL     1      -6.251   0.374  -6.112  0.00  0.00    +0.049 A 
BRANCH  23  26
ATOM     26  O   UNL     1      -9.324  -0.461  -7.873  0.00  0.00    -0.492 OA
BRANCH  26  27
ATOM     27  C   UNL     1     -10.020  -1.052  -6.774  0.00  0.00    +0.225 C 
ATOM     28  C   UNL     1     -11.402  -1.518  -7.237  0.00  0.00    +0.048 C 
ENDBRANCH  26  27
ENDBRANCH  23  26
ENDBRANCH  19  20
ENDBRANCH  17  19
ENDBRANCH   2  17
TORSDOF 9
