REMARK  Name = ZINC39147106
REMARK  10 active torsions:
REMARK  status: ('A' for Active; 'I' for Inactive)
REMARK    1  A    between atoms: C_1  and  C_2
REMARK    2  A    between atoms: C_8  and  C_11
REMARK    3  A    between atoms: C_11  and  C_12
REMARK    4  A    between atoms: C_12  and  N_13
REMARK    5  A    between atoms: C_15  and  C_20
REMARK    6  A    between atoms: N_22  and  C_23
REMARK    7  A    between atoms: C_27  and  C_30
REMARK    8  A    between atoms: C_30  and  C_31
REMARK    9  A    between atoms: C_31  and  C_32
REMARK   10  A    between atoms: C_31  and  C_33
REMARK                            x       y       z     vdW  Elec       q    Type
REMARK                         _______ _______ _______ _____ _____    ______ ____
ROOT
ATOM      1  N   UNL     1       2.660   0.232  -6.507  0.00  0.00    -0.300 N 
ATOM      2  C   UNL     1       3.017   0.661  -7.865  0.00  0.00    +0.121 C 
ATOM      3  C   UNL     1       4.535   0.947  -7.821  0.00  0.00    +0.101 C 
ATOM      4  C   UNL     1       4.992   0.044  -6.652  0.00  0.00    +0.110 C 
ATOM      5  C   UNL     1       3.750  -0.119  -5.803  0.00  0.00    +0.216 C 
ATOM      6  O   UNL     1       3.739  -0.513  -4.656  0.00  0.00    -0.276 OA
ENDROOT
BRANCH   3   7
ATOM      7  C   UNL     1       5.199   0.538  -9.110  0.00  0.00    +0.220 C 
ATOM      8  O   UNL     1       4.538   0.056 -10.006  0.00  0.00    -0.275 OA
ATOM      9  N   UNL     1       6.526   0.709  -9.268  0.00  0.00    -0.290 N 
ATOM     10  H   UNL     1       7.054   1.094  -8.552  0.00  0.00    +0.151 HD
BRANCH   9  11
ATOM     11  C   UNL     1       7.171   0.311 -10.522  0.00  0.00    +0.216 C 
ATOM     12  N   UNL     1       6.990   1.351 -11.584  0.00  0.00    -0.227 NA
ATOM     13  N   UNL     1       8.019   1.203 -12.607  0.00  0.00    -0.241 NA
ATOM     14  C   UNL     1       9.381   1.109 -12.012  0.00  0.00    +0.130 C 
ATOM     15  S   UNL     1       9.011   0.346 -10.374  0.00  0.00    -0.102 S 
ATOM     16  H   UNL     1       7.005   2.278 -11.188  0.00  0.00    +0.143 HD
ATOM     17  H   UNL     1       7.969   1.953 -13.280  0.00  0.00    +0.142 HD
BRANCH  14  18
ATOM     18  C   UNL     1      10.284   0.201 -12.849  0.00  0.00    +0.034 C 
BRANCH  18  19
ATOM     19  C   UNL     1      11.705   0.231 -12.281  0.00  0.00    -0.015 C 
ATOM     20  C   UNL     1      12.573  -0.787 -13.024  0.00  0.00    +0.007 C 
ATOM     21  C   UNL     1      12.295   1.631 -12.458  0.00  0.00    +0.007 C 
ENDBRANCH  18  19
ENDBRANCH  14  18
ENDBRANCH   9  11
ENDBRANCH   3   7
BRANCH   1  22
ATOM     22  C   UNL     1       1.292   0.198  -5.984  0.00  0.00    +0.112 C 
BRANCH  22  23
ATOM     23  C   UNL     1       0.958   1.546  -5.342  0.00  0.00    +0.056 C 
BRANCH  23  31
ATOM     24  C   UNL     1      -0.167  -0.555  -0.133  0.00  0.00    +0.044 C 
ATOM     25  C   UNL     1      -0.896   0.055  -1.303  0.00  0.00    -0.050 A 
ATOM     26  C   UNL     1      -2.272   0.223  -1.244  0.00  0.00    +0.005 A 
ATOM     27  C   UNL     1      -2.957   0.778  -2.303  0.00  0.00    +0.026 A 
ATOM     28  C   UNL     1      -2.265   1.175  -3.442  0.00  0.00    +0.047 A 
ATOM     29  N   UNL     1      -2.650   1.746  -4.635  0.00  0.00    -0.360 N 
ATOM     30  C   UNL     1      -1.556   1.938  -5.433  0.00  0.00    +0.087 A 
ATOM     31  C   UNL     1      -0.449   1.511  -4.804  0.00  0.00    -0.021 A 
ATOM     32  C   UNL     1      -0.870   1.003  -3.496  0.00  0.00    +0.003 A 
ATOM     33  C   UNL     1      -0.195   0.443  -2.410  0.00  0.00    +0.013 A 
ATOM     34  H   UNL     1      -3.562   1.977  -4.873  0.00  0.00    +0.165 HD
ENDBRANCH  23  31
ENDBRANCH  22  23
ENDBRANCH   1  22
TORSDOF 7
