REMARK  Name = ZINC65147775
REMARK  8 active torsions:
REMARK  status: ('A' for Active; 'I' for Inactive)
REMARK    1  A    between atoms: C_1  and  C_2
REMARK    2  A    between atoms: C_2  and  C_26
REMARK    3  A    between atoms: C_8  and  O_11
REMARK    4  A    between atoms: O_11  and  C_12
REMARK    5  A    between atoms: C_12  and  C_13
REMARK    6  A    between atoms: N_15  and  N_16
REMARK    7  A    between atoms: N_19  and  C_20
REMARK    8  A    between atoms: C_20  and  C_21
REMARK                            x       y       z     vdW  Elec       q    Type
REMARK                         _______ _______ _______ _____ _____    ______ ____
ROOT
ATOM      1  C   UNL     1       3.855  -0.802   5.228  0.00  0.00    +0.267 C 
ATOM      2  O   UNL     1       2.701  -0.652   5.569  0.00  0.00    -0.271 OA
ATOM      3  N   UNL     1       4.825  -0.904   6.158  0.00  0.00    -0.230 N 
ATOM      4  H   UNL     1       5.748  -1.024   5.885  0.00  0.00    +0.173 HD
ENDROOT
BRANCH   3   5
ATOM      5  N   UNL     1       4.500  -0.837   7.519  0.00  0.00    -0.218 N 
ATOM      6  C   UNL     1       5.470  -0.939   8.450  0.00  0.00    +0.316 C 
ATOM      7  O   UNL     1       5.187  -0.881   9.631  0.00  0.00    -0.251 OA
ATOM      8  N   UNL     1       6.752  -1.106   8.071  0.00  0.00    -0.296 N 
ATOM      9  H   UNL     1       3.577  -0.717   7.792  0.00  0.00    +0.174 HD
ATOM     10  H   UNL     1       6.977  -1.153   7.128  0.00  0.00    +0.150 HD
BRANCH   8  11
ATOM     11  C   UNL     1       7.806  -1.217   9.082  0.00  0.00    +0.137 C 
BRANCH  11  12
ATOM     12  C   UNL     1       9.159  -1.399   8.391  0.00  0.00    +0.135 C 
ATOM     13  C   UNL     1      10.260  -1.632   9.448  0.00  0.00    +0.035 C 
ATOM     14  C   UNL     1      11.451  -0.822   8.867  0.00  0.00    +0.031 C 
ATOM     15  C   UNL     1      10.705   0.360   8.199  0.00  0.00    +0.160 C 
ATOM     16  O   UNL     1       9.498  -0.210   7.667  0.00  0.00    -0.375 OA
ENDBRANCH  11  12
ENDBRANCH   8  11
ENDBRANCH   3   5
BRANCH   1  17
ATOM     17  C   UNL     1       4.205  -0.874   3.764  0.00  0.00    +0.326 C 
BRANCH  17  18
ATOM     18  O   UNL     1       3.016  -0.742   2.983  0.00  0.00    -0.479 OA
BRANCH  18  26
ATOM     19  C   UNL     1      -0.019   1.526   0.010  0.00  0.00    +0.056 C 
ATOM     20  C   UNL     1       0.002  -0.004   0.002  0.00  0.00    +0.109 C 
ATOM     21  C   UNL     1       0.832  -0.534  -1.191  0.00  0.00    +0.086 C 
ATOM     22  C   UNL     1       2.204  -0.704  -0.568  0.00  0.00    +0.002 A 
ATOM     23  C   UNL     1       3.456  -0.875  -1.120  0.00  0.00    +0.007 A 
ATOM     24  C   UNL     1       4.564  -1.000  -0.301  0.00  0.00    +0.004 A 
ATOM     25  C   UNL     1       4.412  -0.953   1.073  0.00  0.00    +0.049 A 
ATOM     26  C   UNL     1       3.157  -0.786   1.631  0.00  0.00    +0.163 A 
ATOM     27  C   UNL     1       2.034  -0.662   0.808  0.00  0.00    +0.166 A 
ATOM     28  O   UNL     1       0.721  -0.510   1.139  0.00  0.00    -0.482 OA
ATOM     29  C   UNL     1      -1.422  -0.563  -0.032  0.00  0.00    +0.056 C 
ENDBRANCH  18  26
ENDBRANCH  17  18
ENDBRANCH   1  17
TORSDOF 6
