REMARK  Name = ZINC56577318
REMARK  3 active torsions:
REMARK  status: ('A' for Active; 'I' for Inactive)
REMARK    1  A    between atoms: C_6  and  N_7
REMARK    2  A    between atoms: C_13  and  C_16
REMARK    3  A    between atoms: N_18  and  C_19
REMARK                            x       y       z     vdW  Elec       q    Type
REMARK                         _______ _______ _______ _____ _____    ______ ____
ROOT
ATOM      1  N   UNL     1      -1.207  -0.720  -0.035  0.00  0.00    -0.269 N 
ATOM      2  C   UNL     1      -2.375  -0.068   0.126  0.00  0.00    +0.306 C 
ATOM      3  O   UNL     1      -2.391   1.147   0.173  0.00  0.00    -0.252 OA
ATOM      4  N   UNL     1      -3.525  -0.762   0.235  0.00  0.00    -0.285 N 
ATOM      5  C   UNL     1      -3.508  -2.227   0.344  0.00  0.00    +0.110 C 
ATOM      6  C   UNL     1      -4.419  -2.813  -0.739  0.00  0.00    +0.032 C 
ATOM      7  C   UNL     1      -5.812  -2.190  -0.620  0.00  0.00    +0.078 C 
ATOM      8  C   UNL     1      -5.716  -0.678  -0.835  0.00  0.00    +0.032 C 
ATOM      9  C   UNL     1      -4.820  -0.068   0.253  0.00  0.00    +0.110 C 
ATOM     10  H   UNL     1      -1.204  -1.675  -0.209  0.00  0.00    +0.156 HD
ENDROOT
BRANCH   1  16
ATOM     11  C   UNL     1       0.031   1.349  -0.174  0.00  0.00    +0.027 A 
ATOM     12  C   UNL     1       1.225   2.042  -0.092  0.00  0.00    +0.051 A 
ATOM     13  C   UNL     1       2.397   1.371   0.214  0.00  0.00    +0.167 A 
ATOM     14  C   UNL     1       2.373  -0.004   0.439  0.00  0.00    +0.169 A 
ATOM     15  C   UNL     1       1.177  -0.696   0.356  0.00  0.00    +0.073 A 
ATOM     16  C   UNL     1       0.004  -0.020   0.049  0.00  0.00    +0.038 A 
ATOM     17  O   UNL     1       3.643  -0.423   0.719  0.00  0.00    -0.447 OA
ATOM     18  C   UNL     1       4.502   0.639   0.280  0.00  0.00    +0.254 C 
ATOM     19  O   UNL     1       3.683   1.815   0.355  0.00  0.00    -0.448 OA
ATOM     20  C   UNL     1       4.955   0.397  -1.156  0.00  0.00    +0.093 C 
ATOM     21  C   UNL     1       5.798  -0.878  -1.219  0.00  0.00    +0.008 C 
ATOM     22  C   UNL     1       7.013  -0.732  -0.300  0.00  0.00    +0.000 C 
ATOM     23  C   UNL     1       6.543  -0.511   1.139  0.00  0.00    +0.008 C 
ATOM     24  C   UNL     1       5.703   0.768   1.210  0.00  0.00    +0.093 C 
ENDBRANCH   1  16
BRANCH   7  25
ATOM     25  C   UNL     1      -6.721  -2.790  -1.662  0.00  0.00    +0.216 C 
ATOM     26  O   UNL     1      -6.296  -3.632  -2.425  0.00  0.00    -0.276 OA
ATOM     27  N   UNL     1      -8.005  -2.390  -1.746  0.00  0.00    -0.312 N 
ATOM     28  H   UNL     1      -8.344  -1.716  -1.136  0.00  0.00    +0.149 HD
BRANCH  27  29
ATOM     29  C   UNL     1      -8.888  -2.972  -2.760  0.00  0.00    +0.073 C 
ATOM     30  C   UNL     1      -9.804  -2.020  -3.530  0.00  0.00    +0.024 C 
ATOM     31  C   UNL     1     -10.392  -2.961  -2.477  0.00  0.00    +0.024 C 
ENDBRANCH  27  29
ENDBRANCH   7  25
TORSDOF 3
