REMARK  Name = ZINC12906368
REMARK  6 active torsions:
REMARK  status: ('A' for Active; 'I' for Inactive)
REMARK    1  A    between atoms: C_1  and  C_2
REMARK    2  A    between atoms: C_2  and  O_3
REMARK    3  A    between atoms: O_3  and  C_4
REMARK    4  A    between atoms: C_7  and  C_10
REMARK    5  A    between atoms: C_10  and  N_11
REMARK    6  A    between atoms: C_17  and  C_20
REMARK                            x       y       z     vdW  Elec       q    Type
REMARK                         _______ _______ _______ _____ _____    ______ ____
ROOT
ATOM      1  N   UNL     1       3.960  -1.205   0.626  0.00  0.00    -0.220 N 
ATOM      2  C   UNL     1       2.939  -0.505   0.088  0.00  0.00    +0.247 C 
ATOM      3  O   UNL     1       2.701  -0.343  -1.089  0.00  0.00    -0.273 OA
ATOM      4  C   UNL     1       2.156   0.034   1.263  0.00  0.00    +0.113 C 
ATOM      5  C   UNL     1       0.732  -0.510   1.249  0.00  0.00    +0.035 C 
ATOM      6  C   UNL     1       0.002  -0.004   0.002  0.00  0.00    +0.006 C 
ATOM      7  C   UNL     1      -0.019   1.526   0.010  0.00  0.00    -0.014 C 
ATOM      8  C   UNL     1       1.417   2.056  -0.000  0.00  0.00    +0.006 C 
ATOM      9  C   UNL     1       2.152   1.559   1.246  0.00  0.00    +0.035 C 
ATOM     10  C   UNL     1      -0.759   2.033  -1.229  0.00  0.00    +0.007 C 
ATOM     11  N   UNL     1       2.885  -0.465   2.437  0.00  0.00    -0.285 N 
ATOM     12  C   UNL     1       3.924  -1.179   1.964  0.00  0.00    +0.310 C 
ATOM     13  O   UNL     1       4.739  -1.738   2.673  0.00  0.00    -0.252 OA
ATOM     14  H   UNL     1       2.662  -0.310   3.368  0.00  0.00    +0.151 HD
ENDROOT
BRANCH   1  15
ATOM     15  C   UNL     1       4.980  -1.907  -0.157  0.00  0.00    +0.153 C 
BRANCH  15  19
ATOM     16  C   UNL     1       3.691  -5.910  -0.913  0.00  0.00    +0.121 A 
ATOM     17  C   UNL     1       3.371  -4.897  -1.805  0.00  0.00    +0.046 A 
ATOM     18  C   UNL     1       3.789  -3.604  -1.558  0.00  0.00    +0.009 A 
ATOM     19  C   UNL     1       4.526  -3.319  -0.424  0.00  0.00    -0.029 A 
ATOM     20  C   UNL     1       4.851  -4.328   0.464  0.00  0.00    +0.009 A 
ATOM     21  C   UNL     1       4.431  -5.622   0.225  0.00  0.00    +0.046 A 
BRANCH  16  22
ATOM     22  O   UNL     1       3.282  -7.184  -1.153  0.00  0.00    -0.492 OA
BRANCH  22  24
ATOM     23  C   UNL     1       3.103  -9.536  -0.630  0.00  0.00    +0.048 C 
ATOM     24  C   UNL     1       3.648  -8.176  -0.192  0.00  0.00    +0.225 C 
ENDBRANCH  22  24
ENDBRANCH  16  22
ENDBRANCH  15  19
ENDBRANCH   1  15
TORSDOF 4
