REMARK  Name = ZINC67087223
REMARK  9 active torsions:
REMARK  status: ('A' for Active; 'I' for Inactive)
REMARK    1  A    between atoms: C_1  and  C_2
REMARK    2  A    between atoms: C_4  and  C_7
REMARK    3  A    between atoms: N_15  and  C_16
REMARK    4  A    between atoms: C_16  and  C_17
REMARK    5  A    between atoms: C_17  and  S_18
REMARK    6  A    between atoms: S_18  and  C_19
REMARK    7  A    between atoms: C_19  and  C_20
REMARK    8  A    between atoms: C_19  and  C_21
REMARK    9  A    between atoms: C_19  and  C_22
REMARK                            x       y       z     vdW  Elec       q    Type
REMARK                         _______ _______ _______ _____ _____    ______ ____
ROOT
ATOM      1  C   UNL     1      -1.500  -3.372  -0.010  0.00  0.00    +0.130 C 
ATOM      2  C   UNL     1      -1.136  -4.271  -1.210  0.00  0.00    +0.030 C 
ATOM      3  C   UNL     1      -2.517  -4.801  -1.677  0.00  0.00    +0.021 C 
ATOM      4  C   UNL     1      -3.427  -3.575  -1.413  0.00  0.00    +0.110 C 
ATOM      5  N   UNL     1      -2.909  -2.983  -0.162  0.00  0.00    -0.277 N 
ATOM      6  C   UNL     1      -3.610  -2.216   0.697  0.00  0.00    +0.303 C 
ATOM      7  O   UNL     1      -3.076  -1.782   1.699  0.00  0.00    -0.253 OA
ATOM      8  N   UNL     1      -4.902  -1.930   0.444  0.00  0.00    -0.298 N 
ATOM      9  H   UNL     1      -5.328  -2.276  -0.356  0.00  0.00    +0.150 HD
ENDROOT
BRANCH   1  13
ATOM     10  C   UNL     1      -0.018   1.503   0.010  0.00  0.00    +0.089 C 
ATOM     11  C   UNL     1       0.002  -0.004   0.002  0.00  0.00    +0.135 A 
ATOM     12  C   UNL     1      -1.077  -0.810   0.003  0.00  0.00    +0.072 A 
ATOM     13  C   UNL     1      -0.627  -2.143  -0.007  0.00  0.00    +0.104 A 
ATOM     14  N   UNL     1       0.676  -2.130  -0.013  0.00  0.00    -0.081 NA
ATOM     15  O   UNL     1       1.098  -0.778  -0.013  0.00  0.00    -0.360 OA
ENDBRANCH   1  13
BRANCH   8  16
ATOM     16  C   UNL     1      -5.664  -1.095   1.377  0.00  0.00    +0.116 C 
BRANCH  16  17
ATOM     17  C   UNL     1      -7.093  -0.925   0.859  0.00  0.00    +0.088 C 
BRANCH  17  18
ATOM     18  S   UNL     1      -8.036   0.107   2.014  0.00  0.00    -0.153 S 
BRANCH  18  19
ATOM     19  C   UNL     1      -9.685   0.211   1.265  0.00  0.00    +0.008 C 
ATOM     20  C   UNL     1     -10.275  -1.195   1.135  0.00  0.00    +0.022 C 
ATOM     21  C   UNL     1     -10.595   1.065   2.150  0.00  0.00    +0.022 C 
ATOM     22  C   UNL     1      -9.577   0.848  -0.121  0.00  0.00    +0.022 C 
ENDBRANCH  18  19
ENDBRANCH  17  18
ENDBRANCH  16  17
ENDBRANCH   8  16
TORSDOF 5
