REMARK  Name = ZINC64093665
REMARK  6 active torsions:
REMARK  status: ('A' for Active; 'I' for Inactive)
REMARK    1  A    between atoms: C_1  and  C_2
REMARK    2  A    between atoms: C_2  and  C_3
REMARK    3  A    between atoms: C_2  and  N_4
REMARK    4  A    between atoms: C_6  and  C_9
REMARK    5  A    between atoms: N_23  and  C_24
REMARK    6  A    between atoms: C_24  and  C_25
REMARK                            x       y       z     vdW  Elec       q    Type
REMARK                         _______ _______ _______ _____ _____    ______ ____
ROOT
ATOM      1  C   UNL     1      -4.505  -1.530   1.576  0.00  0.00    -0.007 C 
ATOM      2  C   UNL     1      -5.474  -0.347   1.647  0.00  0.00    +0.097 C 
ATOM      3  C   UNL     1      -6.036  -0.173   0.241  0.00  0.00    -0.041 C 
ATOM      4  C   UNL     1      -5.825   1.092  -0.093  0.00  0.00    -0.001 A 
ATOM      5  C   UNL     1      -6.217   1.874  -1.277  0.00  0.00    +0.010 A 
ATOM      6  C   UNL     1      -5.812   3.171  -1.300  0.00  0.00    +0.001 A 
ATOM      7  C   UNL     1      -5.064   3.762  -0.277  0.00  0.00    +0.002 A 
ATOM      8  C   UNL     1      -4.665   3.120   0.850  0.00  0.00    +0.026 A 
ATOM      9  C   UNL     1      -5.036   1.752   0.992  0.00  0.00    +0.043 A 
ATOM     10  N   UNL     1      -4.808   0.910   1.982  0.00  0.00    -0.379 N 
ATOM     11  C   UNL     1      -6.597  -1.341  -0.534  0.00  0.00    +0.015 C 
ATOM     12  C   UNL     1      -5.568  -2.478  -0.397  0.00  0.00    -0.073 C 
ATOM     13  N   UNL     1      -5.222  -2.684   1.012  0.00  0.00    +0.390 N 
ATOM     14  H   UNL     1      -4.292   1.083   2.785  0.00  0.00    +0.160 HD
ATOM     15  H   UNL     1      -6.070  -2.834   1.539  0.00  0.00    -0.080 HD
ENDROOT
BRANCH   1  18
ATOM     16  N   UNL     1      -1.304  -0.867  -0.039  0.00  0.00    -0.269 N 
ATOM     17  C   UNL     1      -2.029  -1.279   1.022  0.00  0.00    +0.110 A 
ATOM     18  C   UNL     1      -3.337  -1.177   0.691  0.00  0.00    -0.021 A 
ATOM     19  C   UNL     1      -3.414  -0.686  -0.616  0.00  0.00    +0.136 A 
ATOM     20  N   UNL     1      -2.196  -0.495  -1.053  0.00  0.00    -0.179 NA
BRANCH  16  22
ATOM     21  C   UNL     1       0.653   0.502   0.488  0.00  0.00    +0.032 C 
ATOM     22  C   UNL     1       0.158  -0.814  -0.115  0.00  0.00    +0.101 C 
ATOM     23  C   UNL     1       0.753  -1.988   0.666  0.00  0.00    +0.032 C 
ENDBRANCH  16  22
ENDBRANCH   1  18
BRANCH  13  24
ATOM     24  C   UNL     1      -4.373  -3.877   1.128  0.00  0.00    -0.023 C 
BRANCH  24  25
ATOM     25  C   UNL     1      -5.143  -5.088   0.667  0.00  0.00    +0.010 A 
ATOM     26  C   UNL     1      -5.106  -5.624  -0.569  0.00  0.00    +0.021 A 
ATOM     27  C   UNL     1      -5.969  -6.740  -0.573  0.00  0.00    +0.020 A 
ATOM     28  C   UNL     1      -6.501  -6.845   0.661  0.00  0.00    +0.094 A 
ATOM     29  N   UNL     1      -5.994  -5.837   1.432  0.00  0.00    -0.291 N 
ATOM     30  C   UNL     1      -6.296  -5.608   2.773  0.00  0.00    +0.235 A 
ATOM     31  N   UNL     1      -5.735  -4.584   3.396  0.00  0.00    -0.220 NA
ATOM     32  C   UNL     1      -6.000  -4.337   4.668  0.00  0.00    +0.116 A 
ATOM     33  C   UNL     1      -6.877  -5.168   5.348  0.00  0.00    +0.039 A 
ATOM     34  C   UNL     1      -7.447  -6.231   4.665  0.00  0.00    +0.116 A 
ATOM     35  N   UNL     1      -7.141  -6.417   3.392  0.00  0.00    -0.220 NA
ENDBRANCH  24  25
ENDBRANCH  13  24
TORSDOF 4
