REMARK  Name = ZINC51151326
REMARK  3 active torsions:
REMARK  status: ('A' for Active; 'I' for Inactive)
REMARK    1  A    between atoms: C_1  and  C_2
REMARK    2  A    between atoms: C_5  and  C_8
REMARK    3  A    between atoms: N_17  and  N_18
REMARK                            x       y       z     vdW  Elec       q    Type
REMARK                         _______ _______ _______ _____ _____    ______ ____
ROOT
ATOM      1  C   UNL     1       0.058  -4.255  -0.021  0.00  0.00    +0.163 A 
ATOM      2  N   UNL     1       0.067  -4.913   1.133  0.00  0.00    -0.211 NA
ATOM      3  C   UNL     1       0.084  -6.233   1.188  0.00  0.00    +0.144 A 
ATOM      4  C   UNL     1       0.092  -6.981  -0.023  0.00  0.00    +0.049 A 
ATOM      5  C   UNL     1       0.110  -8.419  -0.224  0.00  0.00    +0.021 A 
ATOM      6  C   UNL     1       0.115  -8.906  -1.474  0.00  0.00    +0.048 A 
ATOM      7  S   UNL     1       0.096  -7.442  -2.491  0.00  0.00    -0.077 S 
ATOM      8  C   UNL     1       0.082  -6.216  -1.211  0.00  0.00    +0.114 A 
ATOM      9  N   UNL     1       0.061  -4.899  -1.181  0.00  0.00    -0.220 NA
ATOM     10  N   UNL     1       0.093  -6.882   2.410  0.00  0.00    -0.267 N 
ATOM     11  H   UNL     1       0.105  -7.851   2.445  0.00  0.00    +0.167 HD
ENDROOT
BRANCH   1  16
ATOM     12  C   UNL     1      -0.018   1.503   0.010  0.00  0.00    +0.044 C 
ATOM     13  C   UNL     1       0.002  -0.004   0.002  0.00  0.00    -0.050 A 
ATOM     14  C   UNL     1       0.006  -0.686  -1.201  0.00  0.00    +0.004 A 
ATOM     15  C   UNL     1       0.024  -2.066  -1.215  0.00  0.00    +0.012 A 
ATOM     16  C   UNL     1       0.039  -2.772  -0.013  0.00  0.00    +0.019 A 
ATOM     17  C   UNL     1       0.036  -2.079   1.196  0.00  0.00    +0.012 A 
ATOM     18  C   UNL     1       0.023  -0.699   1.198  0.00  0.00    +0.004 A 
ENDBRANCH   1  16
BRANCH  10  19
ATOM     19  N   UNL     1       0.085  -6.157   3.568  0.00  0.00    -0.255 NA
ATOM     20  H   UNL     1       0.093  -6.764   4.375  0.00  0.00    +0.140 HD
ATOM     21  H   UNL     1       0.858  -5.510   3.595  0.00  0.00    +0.140 HD
ENDBRANCH  10  19
TORSDOF 2
