REMARK  Name = ZINC04985454
REMARK  6 active torsions:
REMARK  status: ('A' for Active; 'I' for Inactive)
REMARK    1  A    between atoms: C_1  and  C_2
REMARK    2  A    between atoms: C_2  and  C_3
REMARK    3  A    between atoms: N_9  and  C_12
REMARK    4  A    between atoms: C_12  and  C_13
REMARK    5  A    between atoms: N_20  and  C_21
REMARK    6  A    between atoms: C_21  and  C_22
REMARK                            x       y       z     vdW  Elec       q    Type
REMARK                         _______ _______ _______ _____ _____    ______ ____
ROOT
ATOM      1  C   UNL     1       0.707  -0.490  -1.238  0.00  0.00    +0.133 A 
ATOM      2  N   UNL     1      -0.003  -0.701  -2.332  0.00  0.00    -0.215 NA
ATOM      3  C   UNL     1       0.568  -1.129  -3.452  0.00  0.00    +0.153 A 
ATOM      4  C   UNL     1       1.959  -1.357  -3.453  0.00  0.00    +0.171 A 
ATOM      5  C   UNL     1       2.667  -1.117  -2.263  0.00  0.00    +0.184 A 
ATOM      6  N   UNL     1       2.008  -0.684  -1.192  0.00  0.00    -0.211 NA
ATOM      7  N   UNL     1       3.974  -1.412  -2.534  0.00  0.00    -0.222 N 
ATOM      8  N   UNL     1       4.023  -1.821  -3.876  0.00  0.00    -0.063 NA
ATOM      9  N   UNL     1       2.839  -1.777  -4.378  0.00  0.00    -0.124 NA
ATOM     10  N   UNL     1      -0.185  -1.346  -4.590  0.00  0.00    -0.316 N 
ATOM     11  H   UNL     1       0.244  -1.659  -5.402  0.00  0.00    +0.148 HD
ENDROOT
BRANCH   1  13
ATOM     12  C   UNL     1      -0.019   1.526   0.010  0.00  0.00    +0.012 C 
ATOM     13  C   UNL     1       0.002  -0.004   0.002  0.00  0.00    +0.073 C 
ENDBRANCH   1  13
BRANCH   7  14
ATOM     14  C   UNL     1       5.104  -1.319  -1.606  0.00  0.00    +0.185 C 
BRANCH  14  15
ATOM     15  C   UNL     1       5.271  -2.632  -0.885  0.00  0.00    +0.009 A 
ATOM     16  C   UNL     1       4.688  -2.821   0.353  0.00  0.00    +0.008 A 
ATOM     17  C   UNL     1       4.841  -4.025   1.014  0.00  0.00    +0.000 A 
ATOM     18  C   UNL     1       5.578  -5.043   0.438  0.00  0.00    +0.003 A 
ATOM     19  C   UNL     1       6.162  -4.857  -0.801  0.00  0.00    +0.039 A 
ATOM     20  C   UNL     1       6.005  -3.653  -1.466  0.00  0.00    +0.128 A 
ATOM     21  F   UNL     1       6.571  -3.472  -2.680  0.00  0.00    -0.205 F 
ENDBRANCH  14  15
ENDBRANCH   7  14
BRANCH  10  22
ATOM     22  C   UNL     1      -1.629  -1.104  -4.570  0.00  0.00    +0.192 C 
BRANCH  22  23
ATOM     23  C   UNL     1      -2.196  -1.407  -5.895  0.00  0.00    -0.087 C 
ATOM     24  C   UNL     1      -2.648  -1.649  -6.951  0.00  0.00    +0.005 C 
ENDBRANCH  22  23
ENDBRANCH  10  22
TORSDOF 5
