REMARK  Name = ZINC36039586
REMARK  13 active torsions:
REMARK  status: ('A' for Active; 'I' for Inactive)
REMARK    1  A    between atoms: C_1  and  C_2
REMARK    2  A    between atoms: C_2  and  C_3
REMARK    3  A    between atoms: C_2  and  C_4
REMARK    4  A    between atoms: C_4  and  N_5
REMARK    5  A    between atoms: N_5  and  C_6
REMARK    6  A    between atoms: C_6  and  C_7
REMARK    7  A    between atoms: C_7  and  N_9
REMARK    8  A    between atoms: C_12  and  C_25
REMARK    9  A    between atoms: N_14  and  C_15
REMARK   10  A    between atoms: C_17  and  O_23
REMARK   11  A    between atoms: C_19  and  O_21
REMARK   12  A    between atoms: O_21  and  C_22
REMARK   13  A    between atoms: O_23  and  C_24
REMARK                            x       y       z     vdW  Elec       q    Type
REMARK                         _______ _______ _______ _____ _____    ______ ____
ROOT
ATOM      1  N   UNL     1       5.081  -0.468  -3.364  0.00  0.00    -0.148 NA
ATOM      2  C   UNL     1       6.361  -0.098  -3.321  0.00  0.00    +0.205 A 
ATOM      3  N   UNL     1       6.956   0.602  -2.321  0.00  0.00    -0.326 N 
ATOM      4  C   UNL     1       8.292   0.780  -2.661  0.00  0.00    +0.066 A 
ATOM      5  C   UNL     1       8.496   0.192  -3.853  0.00  0.00    +0.120 A 
ATOM      6  N   UNL     1       7.301  -0.360  -4.268  0.00  0.00    -0.287 N 
ATOM      7  H   UNL     1       6.526   0.922  -1.513  0.00  0.00    +0.169 HD
ENDROOT
BRANCH   4   8
ATOM      8  C   UNL     1       9.309   1.490  -1.855  0.00  0.00    -0.000 A 
ATOM      9  C   UNL     1      10.620   1.600  -2.320  0.00  0.00    +0.011 A 
ATOM     10  C   UNL     1      11.564   2.264  -1.564  0.00  0.00    +0.020 A 
ATOM     11  C   UNL     1      11.213   2.819  -0.345  0.00  0.00    +0.041 A 
ATOM     12  C   UNL     1       9.914   2.712   0.122  0.00  0.00    +0.020 A 
ATOM     13  C   UNL     1       8.960   2.056  -0.628  0.00  0.00    +0.011 A 
ATOM     14 CL   UNL     1      12.406   3.652   0.601  0.00  0.00    -0.084 Cl
ENDBRANCH   4   8
BRANCH   6  15
ATOM     15  C   UNL     1       7.093  -1.067  -5.459  0.00  0.00    +0.056 A 
ATOM     16  C   UNL     1       5.832  -1.565  -5.760  0.00  0.00    +0.072 A 
ATOM     17  C   UNL     1       5.626  -2.264  -6.939  0.00  0.00    +0.126 A 
ATOM     18  C   UNL     1       6.679  -2.466  -7.819  0.00  0.00    +0.091 A 
ATOM     19  C   UNL     1       7.939  -1.968  -7.520  0.00  0.00    +0.126 A 
ATOM     20  C   UNL     1       8.145  -1.265  -6.343  0.00  0.00    +0.072 A 
BRANCH  19  21
ATOM     21  O   UNL     1       8.970  -2.166  -8.382  0.00  0.00    -0.495 OA
ATOM     22  C   UNL     1       8.685  -2.895  -9.578  0.00  0.00    +0.277 C 
ENDBRANCH  19  21
BRANCH  17  23
ATOM     23  O   UNL     1       4.393  -2.752  -7.233  0.00  0.00    -0.495 OA
ATOM     24  C   UNL     1       4.252  -3.462  -8.465  0.00  0.00    +0.277 C 
ENDBRANCH  17  23
ENDBRANCH   6  15
BRANCH   1  25
ATOM     25  C   UNL     1       4.263  -0.146  -2.369  0.00  0.00    +0.222 C 
ATOM     26  O   UNL     1       4.682   0.487  -1.418  0.00  0.00    -0.276 OA
BRANCH  25  27
ATOM     27  C   UNL     1       2.816  -0.564  -2.418  0.00  0.00    +0.017 C 
BRANCH  27  28
ATOM     28  N   UNL     1       2.129  -0.090  -1.209  0.00  0.00    +0.385 N 
ATOM     29  H   UNL     1       2.187   0.916  -1.162  0.00  0.00    -0.085 HD
ATOM     30  H   UNL     1       2.567  -0.491  -0.394  0.00  0.00    -0.085 HD
BRANCH  28  31
ATOM     31  C   UNL     1       0.718  -0.497  -1.257  0.00  0.00    -0.079 C 
BRANCH  31  33
ATOM     32  C   UNL     1      -0.019   1.526   0.010  0.00  0.00    +0.005 C 
ATOM     33  C   UNL     1       0.002  -0.004   0.002  0.00  0.00    -0.034 C 
ATOM     34  C   UNL     1      -1.433  -0.534   0.013  0.00  0.00    +0.005 C 
ENDBRANCH  31  33
ENDBRANCH  28  31
ENDBRANCH  27  28
ENDBRANCH  25  27
ENDBRANCH   1  25
TORSDOF 9
