REMARK  Name = ZINC58391511
REMARK  4 active torsions:
REMARK  status: ('A' for Active; 'I' for Inactive)
REMARK    1  A    between atoms: C_1  and  C_2
REMARK    2  A    between atoms: C_2  and  C_3
REMARK    3  A    between atoms: C_3  and  N_4
REMARK    4  A    between atoms: C_19  and  C_24
REMARK                            x       y       z     vdW  Elec       q    Type
REMARK                         _______ _______ _______ _____ _____    ______ ____
ROOT
ATOM      1  N   UNL     1       0.738  -1.962  -1.265  0.00  0.00    -0.265 N 
ATOM      2  C   UNL     1       1.767  -2.615  -0.686  0.00  0.00    +0.251 C 
ATOM      3  O   UNL     1       2.595  -2.004  -0.040  0.00  0.00    -0.270 OA
ATOM      4  C   UNL     1       1.877  -4.076  -0.845  0.00  0.00    +0.058 A 
ATOM      5  C   UNL     1       2.810  -4.818  -0.122  0.00  0.00    +0.016 A 
ATOM      6  C   UNL     1       2.870  -6.185  -0.290  0.00  0.00    +0.021 A 
ATOM      7  C   UNL     1       2.009  -6.825  -1.170  0.00  0.00    +0.043 A 
ATOM      8  C   UNL     1       1.082  -6.100  -1.897  0.00  0.00    +0.043 A 
ATOM      9  C   UNL     1       1.014  -4.726  -1.744  0.00  0.00    +0.043 A 
ATOM     10  N   UNL     1       0.117  -3.953  -2.475  0.00  0.00    -0.312 N 
ATOM     11  C   UNL     1      -0.359  -2.693  -1.894  0.00  0.00    +0.208 C 
ATOM     12  C   UNL     1      -1.468  -2.937  -0.918  0.00  0.00    +0.025 A 
ATOM     13  C   UNL     1      -1.505  -3.648   0.262  0.00  0.00    +0.010 A 
ATOM     14  C   UNL     1      -2.717  -3.677   0.943  0.00  0.00    +0.001 A 
ATOM     15  C   UNL     1      -3.830  -3.023   0.457  0.00  0.00    +0.005 A 
ATOM     16  C   UNL     1      -3.801  -2.307  -0.730  0.00  0.00    -0.029 A 
ATOM     17  C   UNL     1      -2.590  -2.270  -1.424  0.00  0.00    +0.044 A 
ATOM     18  N   UNL     1      -2.281  -1.644  -2.617  0.00  0.00    -0.281 N 
ATOM     19  C   UNL     1      -0.994  -1.839  -2.973  0.00  0.00    +0.264 C 
ATOM     20  O   UNL     1      -0.449  -1.413  -3.969  0.00  0.00    -0.271 OA
ATOM     21  C   UNL     1      -5.025  -1.598  -1.249  0.00  0.00    +0.045 C 
ATOM     22 CL   UNL     1       2.096  -8.548  -1.360  0.00  0.00    -0.083 Cl
ATOM     23  H   UNL     1      -0.189  -4.244  -3.348  0.00  0.00    +0.149 HD
ATOM     24  H   UNL     1      -2.914  -1.125  -3.138  0.00  0.00    +0.155 HD
ENDROOT
BRANCH   1  25
ATOM     25  C   UNL     1       0.718  -0.497  -1.257  0.00  0.00    +0.111 C 
BRANCH  25  27
ATOM     26  C   UNL     1      -0.019   1.526   0.010  0.00  0.00    +0.005 C 
ATOM     27  C   UNL     1       0.002  -0.004   0.002  0.00  0.00    +0.016 C 
ENDBRANCH  25  27
ENDBRANCH   1  25
TORSDOF 2
