REMARK  Name = ZINC22797752
REMARK  6 active torsions:
REMARK  status: ('A' for Active; 'I' for Inactive)
REMARK    1  A    between atoms: C_6  and  C_28
REMARK    2  A    between atoms: C_7  and  N_9
REMARK    3  A    between atoms: C_10  and  C_12
REMARK    4  A    between atoms: C_12  and  C_13
REMARK    5  A    between atoms: C_13  and  N_14
REMARK    6  A    between atoms: N_17  and  C_20
REMARK                            x       y       z     vdW  Elec       q    Type
REMARK                         _______ _______ _______ _____ _____    ______ ____
ROOT
ATOM      1  C   UNL     1      -3.124   8.563  -2.852  0.00  0.00    +0.111 C 
ENDROOT
BRANCH   1   3
ATOM      2  N   UNL     1      -2.862  10.748  -3.982  0.00  0.00    -0.279 N 
ATOM      3  C   UNL     1      -3.666   9.716  -3.656  0.00  0.00    +0.219 C 
ATOM      4  O   UNL     1      -4.827   9.717  -4.009  0.00  0.00    -0.275 OA
ATOM      5  H   UNL     1      -1.810  10.747  -3.662  0.00  0.00    +0.155 HD
BRANCH   2  12
ATOM      6  C   UNL     1      -3.781  15.746  -7.570  0.00  0.00    +0.005 C 
ATOM      7  C   UNL     1      -5.224  15.827  -7.063  0.00  0.00    +0.005 C 
ATOM      8  C   UNL     1      -5.768  14.402  -6.886  0.00  0.00    +0.043 C 
ATOM      9  C   UNL     1      -4.751  13.599  -6.135  0.00  0.00    -0.004 A 
ATOM     10  C   UNL     1      -3.456  13.921  -5.920  0.00  0.00    -0.018 A 
ATOM     11  C   UNL     1      -2.698  12.952  -5.147  0.00  0.00    +0.084 A 
ATOM     12  C   UNL     1      -3.361  11.810  -4.723  0.00  0.00    +0.090 A 
ATOM     13  S   UNL     1      -4.967  12.035  -5.335  0.00  0.00    -0.077 S 
ATOM     14  C   UNL     1      -2.869  15.219  -6.461  0.00  0.00    +0.037 C 
BRANCH  11  15
ATOM     15  C   UNL     1      -1.317  13.166  -4.838  0.00  0.00    +0.102 C 
ATOM     16  N   UNL     1      -0.221  13.335  -4.593  0.00  0.00    -0.191 NA
ENDBRANCH  11  15
ENDBRANCH   2  12
ENDBRANCH   1   3
BRANCH   1  17
ATOM     17  C   UNL     1      -4.234   7.536  -2.620  0.00  0.00    +0.093 C 
BRANCH  17  18
ATOM     18  N   UNL     1      -3.705   6.412  -1.837  0.00  0.00    -0.305 NA
ATOM     19  C   UNL     1      -4.666   5.301  -1.795  0.00  0.00    +0.066 C 
ATOM     20  C   UNL     1      -4.113   4.184  -0.907  0.00  0.00    -0.063 C 
ATOM     21  N   UNL     1      -2.818   3.736  -1.436  0.00  0.00    +0.384 N 
ATOM     22  C   UNL     1      -1.857   4.847  -1.478  0.00  0.00    -0.063 C 
ATOM     23  C   UNL     1      -2.410   5.964  -2.367  0.00  0.00    +0.066 C 
ATOM     24  H   UNL     1      -2.975   3.384  -2.466  0.00  0.00    -0.081 HD
BRANCH  21  25
ATOM     25  C   UNL     1      -2.289   2.612  -0.653  0.00  0.00    -0.046 C 
ATOM     26  C   UNL     1      -0.963   2.139  -1.272  0.00  0.00    +0.009 C 
ATOM     27  C   UNL     1      -0.589   0.770  -0.631  0.00  0.00    +0.164 C 
ATOM     28  S   UNL     1      -2.244  -0.038  -0.575  0.00  0.00    -0.033 S 
ATOM     29  O   UNL     1      -2.413  -0.659   0.692  0.00  0.00    -0.174 OA
ATOM     30  O   UNL     1      -2.425  -0.803  -1.759  0.00  0.00    -0.174 OA
ATOM     31  C   UNL     1      -3.316   1.454  -0.658  0.00  0.00    +0.151 C 
ENDBRANCH  21  25
ENDBRANCH  17  18
ENDBRANCH   1  17
TORSDOF 6
