REMARK  Name = ZINC22977542
REMARK  10 active torsions:
REMARK  status: ('A' for Active; 'I' for Inactive)
REMARK    1  A    between atoms: C_1  and  C_2
REMARK    2  A    between atoms: C_4  and  N_28
REMARK    3  A    between atoms: C_5  and  C_12
REMARK    4  A    between atoms: C_9  and  C_11
REMARK    5  A    between atoms: C_12  and  O_14
REMARK    6  A    between atoms: O_14  and  C_15
REMARK    7  A    between atoms: C_15  and  C_16
REMARK    8  A    between atoms: N_18  and  C_19
REMARK    9  A    between atoms: C_22  and  C_25
REMARK   10  A    between atoms: C_25  and  C_26
REMARK                            x       y       z     vdW  Elec       q    Type
REMARK                         _______ _______ _______ _____ _____    ______ ____
ROOT
ATOM      1  C   UNL     1      -2.800   6.253   8.149  0.00  0.00    +0.348 C 
ATOM      2  O   UNL     1      -3.689   5.691   8.761  0.00  0.00    -0.244 OA
ENDROOT
BRANCH   1   7
ATOM      3  C   UNL     1      -3.006   9.923  12.304  0.00  0.00    +0.066 C 
ATOM      4  C   UNL     1      -1.988  10.215  11.232  0.00  0.00    +0.052 A 
ATOM      5  C   UNL     1      -1.847   9.346  10.125  0.00  0.00    +0.050 A 
ATOM      6  C   UNL     1      -2.572   8.127   9.809  0.00  0.00    +0.057 A 
ATOM      7  C   UNL     1      -2.240   7.450   8.655  0.00  0.00    +0.119 A 
ATOM      8  S   UNL     1      -0.942   8.447   7.949  0.00  0.00    -0.060 S 
ATOM      9  C   UNL     1      -0.860   9.719   9.181  0.00  0.00    +0.114 A 
ATOM     10  N   UNL     1      -0.133  10.806   9.344  0.00  0.00    -0.225 NA
ATOM     11  C   UNL     1      -0.315  11.574  10.401  0.00  0.00    +0.128 A 
ATOM     12  N   UNL     1      -1.221  11.281  11.318  0.00  0.00    -0.237 NA
ATOM     13  C   UNL     1       0.528  12.812  10.566  0.00  0.00    +0.088 C 
BRANCH   6  14
ATOM     14  N   UNL     1      -3.570   7.655  10.649  0.00  0.00    -0.356 N 
ATOM     15  H   UNL     1      -4.109   6.731  10.396  0.00  0.00    +0.142 HD
ATOM     16  H   UNL     1      -3.821   8.205  11.568  0.00  0.00    +0.142 HD
ENDBRANCH   6  14
ENDBRANCH   1   7
BRANCH   1  17
ATOM     17  O   UNL     1      -2.347   5.734   6.988  0.00  0.00    -0.451 OA
BRANCH  17  18
ATOM     18  C   UNL     1      -2.958   4.524   6.536  0.00  0.00    +0.328 C 
BRANCH  18  19
ATOM     19  C   UNL     1      -2.328   4.099   5.235  0.00  0.00    +0.255 C 
ATOM     20  O   UNL     1      -1.444   4.767   4.742  0.00  0.00    -0.272 OA
ATOM     21  N   UNL     1      -2.748   2.976   4.618  0.00  0.00    -0.283 N 
ATOM     22  H   UNL     1      -3.606   2.417   5.018  0.00  0.00    +0.155 HD
BRANCH  21  23
ATOM     23  C   UNL     1      -2.092   2.523   3.468  0.00  0.00    +0.034 A 
ATOM     24  C   UNL     1      -0.724   2.717   3.325  0.00  0.00    +0.023 A 
ATOM     25  C   UNL     1      -0.080   2.267   2.189  0.00  0.00    +0.006 A 
ATOM     26  C   UNL     1      -0.794   1.625   1.195  0.00  0.00    -0.034 A 
ATOM     27  C   UNL     1      -2.157   1.434   1.332  0.00  0.00    +0.006 A 
ATOM     28  C   UNL     1      -2.807   1.877   2.468  0.00  0.00    +0.023 A 
BRANCH  26  29
ATOM     29  C   UNL     1      -0.088   1.135  -0.043  0.00  0.00    +0.153 C 
BRANCH  29  30
ATOM     30  C   UNL     1       0.380  -0.243   0.172  0.00  0.00    +0.067 C 
ATOM     31  N   UNL     1       0.742  -1.308   0.337  0.00  0.00    -0.196 NA
ENDBRANCH  29  30
ENDBRANCH  26  29
ENDBRANCH  21  23
ENDBRANCH  18  19
ENDBRANCH  17  18
ENDBRANCH   1  17
TORSDOF 8
