REMARK  Name = ZINC39674068
REMARK  6 active torsions:
REMARK  status: ('A' for Active; 'I' for Inactive)
REMARK    1  A    between atoms: C_1  and  C_2
REMARK    2  A    between atoms: C_4  and  C_12
REMARK    3  A    between atoms: C_12  and  C_13
REMARK    4  A    between atoms: C_13  and  N_14
REMARK    5  A    between atoms: C_15  and  C_17
REMARK    6  A    between atoms: C_28  and  C_30
REMARK                            x       y       z     vdW  Elec       q    Type
REMARK                         _______ _______ _______ _____ _____    ______ ____
ROOT
ATOM      1  C   UNL     1      -5.411   3.612   3.667  0.00  0.00    +0.100 C 
ATOM      2  C   UNL     1      -6.835   3.450   3.090  0.00  0.00    +0.121 C 
ATOM      3  N   UNL     1      -7.710   4.173   4.043  0.00  0.00    -0.297 N 
ATOM      4  C   UNL     1      -6.932   5.379   4.416  0.00  0.00    +0.115 C 
ATOM      5  C   UNL     1      -5.478   4.879   4.536  0.00  0.00    -0.004 C 
ATOM      6  C   UNL     1      -4.512   5.934   4.007  0.00  0.00    -0.010 C 
ATOM      7  C   UNL     1      -4.554   7.162   4.921  0.00  0.00    -0.082 C 
ATOM      8  N   UNL     1      -4.183   6.771   6.286  0.00  0.00    +0.379 N 
ATOM      9  C   UNL     1      -5.170   5.825   6.822  0.00  0.00    -0.082 C 
ATOM     10  C   UNL     1      -5.154   4.541   5.988  0.00  0.00    -0.010 C 
ATOM     11  C   UNL     1      -8.935   3.815   4.474  0.00  0.00    +0.260 C 
ATOM     12  O   UNL     1      -9.531   4.519   5.263  0.00  0.00    -0.271 OA
ATOM     13  H   UNL     1      -3.273   6.335   6.274  0.00  0.00    -0.086 HD
ATOM     14  H   UNL     1      -4.152   7.591   6.873  0.00  0.00    -0.086 HD
ENDROOT
BRANCH  11  15
ATOM     15  C   UNL     1      -9.566   2.540   3.977  0.00  0.00    +0.296 C 
ATOM     16  C   UNL     1      -9.845   2.653   2.472  0.00  0.00    +0.283 C 
ATOM     17  O   UNL     1     -10.455   1.434   2.036  0.00  0.00    -0.484 OA
ATOM     18  C   UNL     1     -11.467   0.947   2.806  0.00  0.00    +0.162 A 
ATOM     19  C   UNL     1     -12.331   0.000   2.276  0.00  0.00    +0.049 A 
ATOM     20  C   UNL     1     -13.361  -0.505   3.046  0.00  0.00    +0.004 A 
ATOM     21  C   UNL     1     -13.534  -0.069   4.346  0.00  0.00    +0.004 A 
ATOM     22  C   UNL     1     -12.678   0.876   4.880  0.00  0.00    +0.049 A 
ATOM     23  C   UNL     1     -11.642   1.388   4.112  0.00  0.00    +0.163 A 
ATOM     24  O   UNL     1     -10.812   2.324   4.649  0.00  0.00    -0.473 OA
ENDBRANCH  11  15
BRANCH   1  26
ATOM     25  N   UNL     1      -3.136   3.388   2.723  0.00  0.00    -0.315 N 
ATOM     26  C   UNL     1      -4.411   3.791   2.554  0.00  0.00    +0.218 C 
ATOM     27  O   UNL     1      -4.754   4.298   1.507  0.00  0.00    -0.275 OA
ATOM     28  H   UNL     1      -2.862   2.983   3.560  0.00  0.00    +0.149 HD
BRANCH  25  29
ATOM     29  C   UNL     1      -2.164   3.563   1.641  0.00  0.00    +0.109 C 
BRANCH  29  30
ATOM     30  C   UNL     1      -0.802   3.027   2.087  0.00  0.00    +0.056 C 
BRANCH  30  34
ATOM     31  C   UNL     1       1.008   5.508   1.638  0.00  0.00    +0.063 C 
ATOM     32  C   UNL     1       0.985   4.275   0.772  0.00  0.00    +0.017 A 
ATOM     33  H   UNL     1       2.403   4.717  -0.687  0.00  0.00    +0.166 HD
ATOM     34  C   UNL     1       0.198   3.206   0.974  0.00  0.00    -0.018 A 
ATOM     35  C   UNL     1       0.497   2.247  -0.092  0.00  0.00    +0.003 A 
ATOM     36  C   UNL     1       0.017   0.977  -0.418  0.00  0.00    +0.010 A 
ATOM     37  C   UNL     1       0.514   0.323  -1.510  0.00  0.00    +0.001 A 
ATOM     38  C   UNL     1       1.492   0.912  -2.299  0.00  0.00    +0.002 A 
ATOM     39  C   UNL     1       1.980   2.164  -1.996  0.00  0.00    +0.026 A 
ATOM     40  C   UNL     1       1.489   2.848  -0.889  0.00  0.00    +0.047 A 
ATOM     41  N   UNL     1       1.759   4.081  -0.339  0.00  0.00    -0.358 N 
ENDBRANCH  30  34
ENDBRANCH  29  30
ENDBRANCH  25  29
ENDBRANCH   1  26
TORSDOF 5
