REMARK  Name = ZINC05201447
REMARK  5 active torsions:
REMARK  status: ('A' for Active; 'I' for Inactive)
REMARK    1  A    between atoms: C_6  and  N_7
REMARK    2  A    between atoms: C_9  and  N_14
REMARK    3  A    between atoms: C_22  and  C_24
REMARK    4  A    between atoms: C_24  and  C_25
REMARK    5  A    between atoms: C_25  and  O_26
REMARK                            x       y       z     vdW  Elec       q    Type
REMARK                         _______ _______ _______ _____ _____    ______ ____
ROOT
ATOM      1  N   UNL     1      -0.338   5.450  -0.022  0.00  0.00    -0.269 N 
ATOM      2  C   UNL     1      -1.542   6.284  -0.110  0.00  0.00    +0.136 C 
ATOM      3  C   UNL     1      -1.038   7.699  -0.470  0.00  0.00    +0.101 C 
ATOM      4  C   UNL     1       0.405   7.671   0.085  0.00  0.00    +0.120 C 
ATOM      5  C   UNL     1       0.770   6.202   0.100  0.00  0.00    +0.222 C 
ATOM      6  O   UNL     1       1.897   5.768   0.204  0.00  0.00    -0.275 OA
ENDROOT
BRANCH   1  12
ATOM      7  C   UNL     1       0.858   3.352  -0.082  0.00  0.00    +0.027 A 
ATOM      8  C   UNL     1       0.854   1.971  -0.120  0.00  0.00    +0.051 A 
ATOM      9  C   UNL     1      -0.347   1.277  -0.121  0.00  0.00    +0.162 A 
ATOM     10  C   UNL     1      -1.550   1.973  -0.091  0.00  0.00    +0.164 A 
ATOM     11  C   UNL     1      -1.546   3.359  -0.059  0.00  0.00    +0.073 A 
ATOM     12  C   UNL     1      -0.342   4.050  -0.054  0.00  0.00    +0.040 A 
ATOM     13  O   UNL     1      -2.739   1.310  -0.092  0.00  0.00    -0.485 OA
ATOM     14  C   UNL     1      -2.711  -0.061  -0.502  0.00  0.00    +0.270 C 
ATOM     15  C   UNL     1      -1.542  -0.752   0.214  0.00  0.00    +0.270 C 
ATOM     16  O   UNL     1      -0.331  -0.084  -0.158  0.00  0.00    -0.485 OA
ENDBRANCH   1  12
BRANCH   3  17
ATOM     17  N   UNL     1      -1.837   8.727   0.200  0.00  0.00    -0.294 N 
ATOM     18  C   UNL     1      -1.922   9.965  -0.326  0.00  0.00    +0.303 C 
ATOM     19  O   UNL     1      -1.414  10.203  -1.405  0.00  0.00    -0.253 OA
ATOM     20  N   UNL     1      -2.570  10.939   0.343  0.00  0.00    -0.283 N 
ATOM     21  C   UNL     1      -3.080  10.703   1.700  0.00  0.00    +0.109 C 
ATOM     22  C   UNL     1      -4.569  11.061   1.736  0.00  0.00    +0.019 C 
ATOM     23  C   UNL     1      -4.758  12.494   1.235  0.00  0.00    +0.003 C 
ATOM     24  C   UNL     1      -4.271  12.598  -0.212  0.00  0.00    +0.023 C 
ATOM     25  C   UNL     1      -2.773  12.260  -0.268  0.00  0.00    +0.080 C 
ATOM     26  H   UNL     1      -2.306   8.517   1.023  0.00  0.00    +0.151 HD
BRANCH  25  27
ATOM     27  C   UNL     1      -2.306  12.228  -1.725  0.00  0.00    +0.050 C 
BRANCH  27  28
ATOM     28  C   UNL     1      -2.556  13.593  -2.370  0.00  0.00    +0.157 C 
BRANCH  28  29
ATOM     29  O   UNL     1      -2.225  13.530  -3.759  0.00  0.00    -0.395 OA
ATOM     30  H   UNL     1      -2.359  14.363  -4.233  0.00  0.00    +0.209 HD
ENDBRANCH  28  29
ENDBRANCH  27  28
ENDBRANCH  25  27
ENDBRANCH   3  17
TORSDOF 5
