REMARK  Name = ZINC27342525
REMARK  7 active torsions:
REMARK  status: ('A' for Active; 'I' for Inactive)
REMARK    1  A    between atoms: C_1  and  C_2
REMARK    2  A    between atoms: C_5  and  C_26
REMARK    3  A    between atoms: N_8  and  C_10
REMARK    4  A    between atoms: C_10  and  C_11
REMARK    5  A    between atoms: C_11  and  C_13
REMARK    6  A    between atoms: C_14  and  N_25
REMARK    7  A    between atoms: N_15  and  C_22
REMARK                            x       y       z     vdW  Elec       q    Type
REMARK                         _______ _______ _______ _____ _____    ______ ____
ROOT
ATOM      1  C   UNL     1       4.032  -2.675   3.081  0.00  0.00    +0.118 A 
ATOM      2  C   UNL     1       5.251  -1.976   3.123  0.00  0.00    +0.116 A 
ATOM      3  N   UNL     1       6.016  -2.051   4.252  0.00  0.00    -0.278 N 
ATOM      4  C   UNL     1       5.626  -2.776   5.312  0.00  0.00    +0.331 A 
ATOM      5  O   UNL     1       6.344  -2.811   6.293  0.00  0.00    -0.246 OA
ATOM      6  N   UNL     1       4.473  -3.464   5.330  0.00  0.00    -0.274 N 
ATOM      7  H   UNL     1       4.232  -3.974   6.118  0.00  0.00    +0.173 HD
ATOM      8  C   UNL     1       3.643  -3.449   4.266  0.00  0.00    +0.266 A 
ATOM      9  O   UNL     1       2.596  -4.070   4.287  0.00  0.00    -0.267 OA
ENDROOT
BRANCH   3  10
ATOM     10  C   UNL     1       7.288  -1.327   4.306  0.00  0.00    +0.094 C 
ATOM     11  C   UNL     1       7.572  -0.490   5.555  0.00  0.00    +0.027 C 
ATOM     12  C   UNL     1       7.235   0.200   4.231  0.00  0.00    +0.027 C 
ENDBRANCH   3  10
BRANCH   2  13
ATOM     13  N   UNL     1       5.662  -1.237   2.057  0.00  0.00    -0.344 N 
ATOM     14  H   UNL     1       5.008  -0.855   1.452  0.00  0.00    +0.144 HD
ATOM     15  H   UNL     1       6.608  -1.093   1.903  0.00  0.00    +0.144 HD
ENDBRANCH   2  13
BRANCH   1  16
ATOM     16  C   UNL     1       3.205  -2.628   1.938  0.00  0.00    +0.155 C 
ATOM     17  O   UNL     1       3.482  -1.886   1.018  0.00  0.00    -0.294 OA
BRANCH  16  18
ATOM     18  C   UNL     1       1.978  -3.499   1.860  0.00  0.00    +0.002 C 
BRANCH  18  24
ATOM     19  C   UNL     1      -0.353  -0.173  -0.873  0.00  0.00    +0.005 C 
ATOM     20  C   UNL     1       0.160  -1.613  -0.828  0.00  0.00    -0.031 C 
ATOM     21  C   UNL     1      -1.010  -2.579  -1.036  0.00  0.00    +0.003 C 
ATOM     22  C   UNL     1      -0.499  -4.018  -0.911  0.00  0.00    -0.031 C 
ATOM     23  C   UNL     1       0.167  -4.200   0.454  0.00  0.00    -0.075 C 
ATOM     24  N   UNL     1       1.293  -3.267   0.581  0.00  0.00    +0.385 N 
ATOM     25  C   UNL     1       0.803  -1.884   0.534  0.00  0.00    -0.075 C 
ATOM     26  C   UNL     1      -1.674  -4.990  -1.041  0.00  0.00    +0.005 C 
ATOM     27  H   UNL     1       1.941  -3.418  -0.177  0.00  0.00    -0.081 HD
ENDBRANCH  18  24
ENDBRANCH  16  18
ENDBRANCH   1  16
TORSDOF 5
