REMARK  Name = ZINC16990177
REMARK  9 active torsions:
REMARK  status: ('A' for Active; 'I' for Inactive)
REMARK    1  A    between atoms: C_1  and  C_2
REMARK    2  A    between atoms: C_6  and  C_8
REMARK    3  A    between atoms: C_8  and  S_9
REMARK    4  A    between atoms: S_9  and  C_10
REMARK    5  A    between atoms: N_17  and  C1*_20
REMARK    6  A    between atoms: C2*_22  and  O2*_32
REMARK    7  A    between atoms: C3*_24  and  O3*_31
REMARK    8  A    between atoms: C4*_26  and  C5*_29
REMARK    9  A    between atoms: C5*_29  and  O5*_30
REMARK                            x       y       z     vdW  Elec       q    Type
REMARK                         _______ _______ _______ _____ _____    ______ ____
ROOT
ATOM      1  C   UNL     1      -0.016   1.325   0.009  0.00  0.00    +0.130 A 
ATOM      2  C   UNL     1       1.210   2.014   0.001  0.00  0.00    +0.140 A 
ATOM      3  C   UNL     1       2.396   1.262  -0.015  0.00  0.00    +0.169 A 
ATOM      4  N   UNL     1       2.322  -0.065  -0.021  0.00  0.00    -0.195 NA
ATOM      5  C   UNL     1       1.147  -0.674  -0.013  0.00  0.00    +0.216 A 
ATOM      6  N   UNL     1       0.002  -0.004   0.002  0.00  0.00    -0.206 NA
ATOM      7  N   UNL     1       1.112  -2.059  -0.020  0.00  0.00    -0.327 N 
ATOM      8  N   UNL     1       3.422   2.173  -0.019  0.00  0.00    -0.285 N 
ATOM      9  C   UNL     1       2.863   3.418  -0.006  0.00  0.00    +0.203 A 
ATOM     10  N   UNL     1       1.566   3.322   0.006  0.00  0.00    -0.231 NA
ATOM     11  H   UNL     1       0.260  -2.522  -0.014  0.00  0.00    +0.145 HD
ATOM     12  H   UNL     1       1.939  -2.565  -0.030  0.00  0.00    +0.145 HD
ENDROOT
BRANCH   8  13
ATOM     13  C1* UNL     1       4.854   1.866  -0.035  0.00  0.00    +0.253 C 
ATOM     14  C2* UNL     1       5.354   1.624   1.403  0.00  0.00    +0.195 C 
ATOM     15  C3* UNL     1       6.394   2.747   1.637  0.00  0.00    +0.178 C 
ATOM     16  C4* UNL     1       5.988   3.793   0.568  0.00  0.00    +0.177 C 
ATOM     17  O4* UNL     1       5.588   2.985  -0.560  0.00  0.00    -0.346 OA
BRANCH  15  18
ATOM     18  O3* UNL     1       6.271   3.289   2.954  0.00  0.00    -0.386 OA
ATOM     19  H3* UNL     1       6.901   3.997   3.148  0.00  0.00    +0.210 HD
ENDBRANCH  15  18
BRANCH  14  20
ATOM     20  O2* UNL     1       5.970   0.339   1.509  0.00  0.00    -0.385 OA
ATOM     21  H2* UNL     1       6.303   0.134   2.393  0.00  0.00    +0.210 HD
ENDBRANCH  14  20
BRANCH  16  22
ATOM     22  C5* UNL     1       7.180   4.681   0.203  0.00  0.00    +0.190 C 
BRANCH  22  23
ATOM     23  O5* UNL     1       6.753   5.707  -0.695  0.00  0.00    -0.392 OA
ATOM     24  H5* UNL     1       7.458   6.309  -0.969  0.00  0.00    +0.210 HD
ENDBRANCH  22  23
ENDBRANCH  16  22
ENDBRANCH   8  13
BRANCH   1  25
ATOM     25  S   UNL     1      -1.543   2.204   0.021  0.00  0.00    -0.097 S 
BRANCH  25  26
ATOM     26  C   UNL     1      -2.705   0.816   0.019  0.00  0.00    +0.131 C 
BRANCH  26  32
ATOM     27  C   UNL     1      -6.626   2.288  -2.486  0.00  0.00    +0.065 C 
ATOM     28  C   UNL     1      -5.968   2.038  -1.154  0.00  0.00    +0.039 A 
ATOM     29  C   UNL     1      -6.665   2.294   0.012  0.00  0.00    +0.023 A 
ATOM     30  C   UNL     1      -6.050   2.060   1.232  0.00  0.00    +0.004 A 
ATOM     31  C   UNL     1      -4.753   1.570   1.234  0.00  0.00    +0.024 A 
ATOM     32  C   UNL     1      -4.117   1.343   0.029  0.00  0.00    +0.052 A 
ATOM     33  N   UNL     1      -4.733   1.578  -1.113  0.00  0.00    -0.256 NA
ENDBRANCH  26  32
ENDBRANCH  25  26
ENDBRANCH   1  25
TORSDOF 8
