REMARK  Name = ZINC61692381
REMARK  3 active torsions:
REMARK  status: ('A' for Active; 'I' for Inactive)
REMARK    1  A    between atoms: C_3  and  C_9
REMARK    2  A    between atoms: C_6  and  N_7
REMARK    3  A    between atoms: N_13  and  C_14
REMARK                            x       y       z     vdW  Elec       q    Type
REMARK                         _______ _______ _______ _____ _____    ______ ____
ROOT
ATOM      1  C   UNL     1       3.656   2.169  -0.054  0.00  0.00    +0.190 A 
ATOM      2  N   UNL     1       3.789   3.478  -0.121  0.00  0.00    -0.108 NA
ATOM      3  N   UNL     1       5.028   3.808  -0.064  0.00  0.00    -0.022 NA
ATOM      4  N   UNL     1       5.772   2.761   0.043  0.00  0.00    -0.039 NA
ATOM      5  N   UNL     1       4.912   1.648   0.059  0.00  0.00    -0.191 N 
ENDROOT
BRANCH   5   6
ATOM      6  C   UNL     1       5.269   0.297   0.166  0.00  0.00    +0.089 A 
ATOM      7  C   UNL     1       4.736  -0.634  -0.715  0.00  0.00    +0.044 A 
ATOM      8  C   UNL     1       5.090  -1.966  -0.608  0.00  0.00    +0.020 A 
ATOM      9  C   UNL     1       5.975  -2.371   0.376  0.00  0.00    +0.017 A 
ATOM     10  C   UNL     1       6.507  -1.446   1.255  0.00  0.00    +0.023 A 
ATOM     11  C   UNL     1       6.161  -0.112   1.149  0.00  0.00    +0.067 A 
ATOM     12 CL   UNL     1       6.834   1.050   2.249  0.00  0.00    -0.081 Cl
ATOM     13 BR   UNL     1       4.365  -3.236  -1.807  0.00  0.00    -0.050 Br
ENDBRANCH   5   6
BRANCH   1  16
ATOM     14  C   UNL     1       0.965  -0.299   0.818  0.00  0.00    +0.023 A 
ATOM     15  C   UNL     1       2.148   0.406   0.852  0.00  0.00    +0.016 A 
ATOM     16  C   UNL     1       2.388   1.410  -0.088  0.00  0.00    +0.056 A 
ATOM     17  C   UNL     1       1.426   1.695  -1.063  0.00  0.00    +0.136 A 
ATOM     18  C   UNL     1       0.244   0.984  -1.091  0.00  0.00    +0.061 A 
ATOM     19  C   UNL     1       0.010  -0.014  -0.152  0.00  0.00    +0.027 A 
ATOM     20  F   UNL     1       1.654   2.665  -1.975  0.00  0.00    -0.205 F 
BRANCH  19  21
ATOM     21  N   UNL     1      -1.186  -0.731  -0.182  0.00  0.00    -0.358 N 
ATOM     22  H   UNL     1      -1.350  -1.428   0.472  0.00  0.00    +0.142 HD
ATOM     23  H   UNL     1      -1.853  -0.533  -0.858  0.00  0.00    +0.142 HD
ENDBRANCH  19  21
ENDBRANCH   1  16
TORSDOF 3
