REMARK  Name = ZINC38613357
REMARK  11 active torsions:
REMARK  status: ('A' for Active; 'I' for Inactive)
REMARK    1  A    between atoms: C_1  and  C_2
REMARK    2  A    between atoms: C_2  and  O_3
REMARK    3  A    between atoms: O_3  and  C_4
REMARK    4  A    between atoms: C_4  and  C_6
REMARK    5  A    between atoms: C_8  and  N_18
REMARK    6  A    between atoms: C_11  and  O_16
REMARK    7  A    between atoms: O_16  and  C_17
REMARK    8  A    between atoms: C_19  and  C_21
REMARK    9  A    between atoms: C_21  and  C_22
REMARK   10  A    between atoms: C_21  and  C_28
REMARK   11  A    between atoms: C_21  and  O_34
REMARK                            x       y       z     vdW  Elec       q    Type
REMARK                         _______ _______ _______ _____ _____    ______ ____
ROOT
ATOM      1  N   UNL     1      -3.688  -1.288   1.997  0.00  0.00    -0.283 N 
ATOM      2  C   UNL     1      -4.119  -1.389   3.270  0.00  0.00    +0.258 C 
ATOM      3  O   UNL     1      -4.191  -2.477   3.800  0.00  0.00    -0.272 OA
ATOM      4  H   UNL     1      -3.553  -0.413   1.599  0.00  0.00    +0.155 HD
ENDROOT
BRANCH   1   6
ATOM      5  C   UNL     1      -3.765  -3.840   1.655  0.00  0.00    +0.234 C 
ATOM      6  C   UNL     1      -3.440  -2.414   1.269  0.00  0.00    +0.053 C 
ATOM      7  C   UNL     1      -2.839  -2.489   0.025  0.00  0.00    +0.021 A 
ATOM      8  C   UNL     1      -2.319  -1.499  -0.845  0.00  0.00    +0.057 A 
ATOM      9  C   UNL     1      -1.774  -1.868  -2.034  0.00  0.00    +0.121 A 
ATOM     10  C   UNL     1      -1.713  -3.212  -2.426  0.00  0.00    +0.047 A 
ATOM     11  C   UNL     1      -2.191  -4.208  -1.643  0.00  0.00    +0.029 A 
ATOM     12  C   UNL     1      -2.774  -3.902  -0.386  0.00  0.00    +0.045 A 
ATOM     13  N   UNL     1      -3.302  -4.676   0.543  0.00  0.00    -0.367 N 
ATOM     14  H   UNL     1      -3.372  -5.643   0.498  0.00  0.00    +0.161 HD
BRANCH   5  15
ATOM     15  C   UNL     1      -5.252  -4.001   1.840  0.00  0.00    +0.336 C 
ATOM     16  O   UNL     1      -5.941  -4.360   0.915  0.00  0.00    -0.248 OA
BRANCH  15  17
ATOM     17  O   UNL     1      -5.811  -3.745   3.034  0.00  0.00    -0.463 OA
BRANCH  17  19
ATOM     18  C   UNL     1      -7.677  -3.582   4.561  0.00  0.00    +0.048 C 
ATOM     19  C   UNL     1      -7.226  -3.918   3.138  0.00  0.00    +0.229 C 
ENDBRANCH  17  19
ENDBRANCH  15  17
ENDBRANCH   5  15
BRANCH   9  20
ATOM     20  O   UNL     1      -1.278  -0.911  -2.863  0.00  0.00    -0.495 OA
ATOM     21  C   UNL     1      -0.716  -1.352  -4.101  0.00  0.00    +0.277 C 
ENDBRANCH   9  20
ENDBRANCH   1   6
BRANCH   2  22
ATOM     22  C   UNL     1      -4.513  -0.151   4.033  0.00  0.00    +0.192 C 
BRANCH  22  23
ATOM     23  C   UNL     1      -5.490  -0.519   5.119  0.00  0.00    -0.003 A 
ATOM     24  C   UNL     1      -6.722   0.105   5.181  0.00  0.00    +0.007 A 
ATOM     25  C   UNL     1      -7.619  -0.234   6.177  0.00  0.00    +0.000 A 
ATOM     26  C   UNL     1      -7.284  -1.196   7.111  0.00  0.00    +0.000 A 
ATOM     27  C   UNL     1      -6.053  -1.821   7.049  0.00  0.00    +0.000 A 
ATOM     28  C   UNL     1      -5.157  -1.485   6.050  0.00  0.00    +0.007 A 
ENDBRANCH  22  23
BRANCH  22  29
ATOM     29  C   UNL     1      -3.286   0.469   4.651  0.00  0.00    -0.003 A 
ATOM     30  C   UNL     1      -2.181  -0.314   4.928  0.00  0.00    +0.007 A 
ATOM     31  C   UNL     1      -1.056   0.255   5.495  0.00  0.00    +0.000 A 
ATOM     32  C   UNL     1      -1.035   1.607   5.784  0.00  0.00    +0.000 A 
ATOM     33  C   UNL     1      -2.140   2.390   5.506  0.00  0.00    +0.000 A 
ATOM     34  C   UNL     1      -3.264   1.822   4.935  0.00  0.00    +0.007 A 
ENDBRANCH  22  29
BRANCH  22  35
ATOM     35  O   UNL     1      -5.122   0.785   3.141  0.00  0.00    -0.371 OA
ATOM     36  H   UNL     1      -5.919   0.453   2.707  0.00  0.00    +0.212 HD
ENDBRANCH  22  35
ENDBRANCH   2  22
TORSDOF 9
