REMARK  Name = ZINC56101103
REMARK  6 active torsions:
REMARK  status: ('A' for Active; 'I' for Inactive)
REMARK    1  A    between atoms: C_1  and  C_2
REMARK    2  A    between atoms: C_4  and  C_8
REMARK    3  A    between atoms: C_5  and  C_7
REMARK    4  A    between atoms: N_10  and  C_11
REMARK    5  A    between atoms: C_11  and  C_12
REMARK    6  A    between atoms: N_14  and  C_15
REMARK                            x       y       z     vdW  Elec       q    Type
REMARK                         _______ _______ _______ _____ _____    ______ ____
ROOT
ATOM      1  C   UNL     1      -4.967  -4.253   0.002  0.00  0.00    +0.234 C 
ATOM      2  O   UNL     1      -5.319  -3.092   0.019  0.00  0.00    -0.274 OA
ATOM      3  N   UNL     1      -5.887  -5.237  -0.001  0.00  0.00    -0.284 N 
ATOM      4  H   UNL     1      -5.608  -6.162  -0.082  0.00  0.00    +0.155 HD
ENDROOT
BRANCH   3   5
ATOM      5  C   UNL     1      -7.248  -4.924   0.113  0.00  0.00    +0.036 A 
ATOM      6  C   UNL     1      -8.099  -5.770   0.814  0.00  0.00    +0.027 A 
ATOM      7  C   UNL     1      -9.440  -5.466   0.930  0.00  0.00    +0.050 A 
ATOM      8  C   UNL     1      -9.944  -4.314   0.346  0.00  0.00    +0.157 A 
ATOM      9  C   UNL     1      -9.091  -3.464  -0.358  0.00  0.00    +0.089 A 
ATOM     10  C   UNL     1      -7.744  -3.767  -0.469  0.00  0.00    +0.052 A 
ATOM     11  N   UNL     1      -9.876  -2.408  -0.822  0.00  0.00    -0.288 N 
ATOM     12  H   UNL     1      -9.568  -1.653  -1.348  0.00  0.00    +0.172 HD
ATOM     13  C   UNL     1     -11.139  -2.629  -0.408  0.00  0.00    +0.419 A 
ATOM     14  O   UNL     1     -12.089  -1.904  -0.634  0.00  0.00    -0.223 OA
ATOM     15  O   UNL     1     -11.186  -3.772   0.294  0.00  0.00    -0.408 OA
ENDBRANCH   3   5
BRANCH   1  16
ATOM     16  C   UNL     1      -3.499  -4.594  -0.015  0.00  0.00    +0.200 C 
BRANCH  16  19
ATOM     17  C   UNL     1      -1.364  -3.419  -0.021  0.00  0.00    +0.248 C 
ATOM     18  O   UNL     1      -0.804  -4.498  -0.038  0.00  0.00    -0.270 OA
ATOM     19  N   UNL     1      -2.711  -3.359  -0.008  0.00  0.00    -0.303 N 
ATOM     20  H   UNL     1      -3.158  -2.498   0.007  0.00  0.00    +0.150 HD
BRANCH  17  24
ATOM     21  C   UNL     1      -0.018   1.502   0.025  0.00  0.00    +0.086 C 
ATOM     22  C   UNL     1       0.003  -0.005   0.008  0.00  0.00    +0.103 A 
ATOM     23  C   UNL     1      -1.080  -0.797   0.008  0.00  0.00    +0.057 A 
ATOM     24  C   UNL     1      -0.571  -2.177  -0.013  0.00  0.00    +0.077 A 
ATOM     25  C   UNL     1       0.789  -2.066  -0.025  0.00  0.00    +0.114 A 
ATOM     26  O   UNL     1       1.107  -0.768  -0.017  0.00  0.00    -0.464 OA
ATOM     27  C   UNL     1       1.766  -3.213  -0.048  0.00  0.00    +0.087 C 
ENDBRANCH  17  24
ENDBRANCH  16  19
ENDBRANCH   1  16
TORSDOF 4
