REMARK  Name = ZINC02779563
REMARK  6 active torsions:
REMARK  status: ('A' for Active; 'I' for Inactive)
REMARK    1  A    between atoms: C_1  and  C_2
REMARK    2  A    between atoms: C_2  and  N_3
REMARK    3  A    between atoms: C_4  and  C_9
REMARK    4  A    between atoms: N_11  and  C_12
REMARK    5  A    between atoms: N_15  and  C_20
REMARK    6  A    between atoms: C_16  and  C_17
REMARK                            x       y       z     vdW  Elec       q    Type
REMARK                         _______ _______ _______ _____ _____    ______ ____
ROOT
ATOM      1  C   UNL     1      -3.219   2.972   3.916  0.00  0.00    +0.267 C 
ATOM      2  O   UNL     1      -2.243   3.065   4.636  0.00  0.00    -0.268 OA
ATOM      3  N   UNL     1      -3.079   2.560   2.640  0.00  0.00    -0.277 N 
ATOM      4  H   UNL     1      -3.844   2.560   2.044  0.00  0.00    +0.155 HD
ENDROOT
BRANCH   1   6
ATOM      5  N   UNL     1      -5.438   2.458   5.036  0.00  0.00    -0.258 N 
ATOM      6  C   UNL     1      -4.552   3.309   4.437  0.00  0.00    +0.137 A 
ATOM      7  C   UNL     1      -5.164   4.552   4.414  0.00  0.00    +0.068 A 
ATOM      8  C   UNL     1      -6.408   4.362   5.022  0.00  0.00    +0.150 A 
ATOM      9  N   UNL     1      -6.499   3.103   5.367  0.00  0.00    -0.178 NA
ATOM     10 BR   UNL     1      -4.465   6.162   3.711  0.00  0.00    -0.046 Br
BRANCH   5  12
ATOM     11  C   UNL     1      -4.444   0.842   6.579  0.00  0.00    +0.029 C 
ATOM     12  C   UNL     1      -5.212   1.030   5.269  0.00  0.00    +0.141 C 
ENDBRANCH   5  12
ENDBRANCH   1   6
BRANCH   3  13
ATOM     13  C   UNL     1      -1.833   2.134   2.177  0.00  0.00    +0.084 A 
ATOM     14  C   UNL     1      -0.630   2.071   2.899  0.00  0.00    +0.158 A 
ATOM     15  N   UNL     1       0.297   1.619   2.097  0.00  0.00    -0.177 NA
ATOM     16  N   UNL     1      -0.177   1.380   0.928  0.00  0.00    -0.261 N 
ATOM     17  C   UNL     1      -1.514   1.687   0.899  0.00  0.00    +0.144 A 
ATOM     18  C   UNL     1       0.595   0.864  -0.206  0.00  0.00    +0.173 C 
BRANCH  17  19
ATOM     19  C   UNL     1      -2.422   1.564  -0.245  0.00  0.00    +0.261 C 
ATOM     20  O   UNL     1      -2.571   2.501  -1.007  0.00  0.00    -0.269 OA
ATOM     21  N   UNL     1      -3.091   0.413  -0.454  0.00  0.00    -0.324 N 
ATOM     22  H   UNL     1      -3.029  -0.308   0.192  0.00  0.00    +0.145 HD
ATOM     23  H   UNL     1      -3.636   0.306  -1.249  0.00  0.00    +0.145 HD
ENDBRANCH  17  19
ENDBRANCH   3  13
TORSDOF 4
