REMARK  Name = ZINC39206523
REMARK  7 active torsions:
REMARK  status: ('A' for Active; 'I' for Inactive)
REMARK    1  A    between atoms: C_1  and  O_2
REMARK    2  A    between atoms: O_2  and  C_3
REMARK    3  A    between atoms: C_3  and  C_4
REMARK    4  A    between atoms: C_6  and  C_18
REMARK    5  A    between atoms: C_8  and  C_16
REMARK    6  A    between atoms: C_9  and  N_15
REMARK    7  A    between atoms: C_21  and  C_24
REMARK                            x       y       z     vdW  Elec       q    Type
REMARK                         _______ _______ _______ _____ _____    ______ ____
ROOT
ATOM      1  C   UNL     1       0.633  -2.085   1.012  0.00  0.00    +0.094 C 
ATOM      2  C   UNL     1       1.684  -2.853   0.857  0.00  0.00    +0.032 C 
ATOM      3  C   UNL     1       3.167  -2.598   0.875  0.00  0.00    +0.098 C 
ATOM      4  C   UNL     1       3.768  -3.747   1.663  0.00  0.00    +0.097 C 
ATOM      5  C   UNL     1       3.033  -4.816   2.031  0.00  0.00    +0.195 C 
ATOM      6  O   UNL     1       1.722  -5.010   1.796  0.00  0.00    -0.448 OA
ATOM      7  C   UNL     1       1.127  -4.271   0.726  0.00  0.00    +0.343 C 
ATOM      8  N   UNL     1      -0.309  -4.053   0.934  0.00  0.00    -0.138 NA
ATOM      9  N   UNL     1      -0.496  -2.837   1.065  0.00  0.00    -0.153 NA
ENDROOT
BRANCH   3  10
ATOM     10  C   UNL     1       3.461  -1.285   1.555  0.00  0.00    -0.035 A 
ATOM     11  C   UNL     1       3.088  -1.093   2.873  0.00  0.00    +0.005 A 
ATOM     12  C   UNL     1       3.355   0.107   3.500  0.00  0.00    +0.009 A 
ATOM     13  C   UNL     1       4.002   1.125   2.804  0.00  0.00    -0.018 A 
ATOM     14  C   UNL     1       4.376   0.926   1.477  0.00  0.00    +0.009 A 
ATOM     15  C   UNL     1       4.109  -0.280   0.861  0.00  0.00    +0.005 A 
BRANCH  13  16
ATOM     16  C   UNL     1       4.291   2.418   3.473  0.00  0.00    -0.018 A 
ATOM     17  C   UNL     1       3.922   2.615   4.802  0.00  0.00    +0.008 A 
ATOM     18  C   UNL     1       4.194   3.819   5.420  0.00  0.00    +0.001 A 
ATOM     19  C   UNL     1       4.832   4.829   4.722  0.00  0.00    +0.000 A 
ATOM     20  C   UNL     1       5.200   4.638   3.403  0.00  0.00    +0.001 A 
ATOM     21  C   UNL     1       4.939   3.436   2.777  0.00  0.00    +0.008 A 
ENDBRANCH  13  16
ENDBRANCH   3  10
BRANCH   5  22
ATOM     22  N   UNL     1       3.688  -5.809   2.714  0.00  0.00    -0.329 N 
ATOM     23  H   UNL     1       4.634  -5.720   2.909  0.00  0.00    +0.145 HD
ATOM     24  H   UNL     1       3.206  -6.600   3.002  0.00  0.00    +0.145 HD
ENDBRANCH   5  22
BRANCH   4  25
ATOM     25  C   UNL     1       5.153  -3.694   2.025  0.00  0.00    +0.101 C 
ATOM     26  N   UNL     1       6.251  -3.653   2.312  0.00  0.00    -0.191 NA
ENDBRANCH   4  25
BRANCH   1  27
ATOM     27  C   UNL     1       0.673  -0.582   1.123  0.00  0.00    +0.216 C 
BRANCH  27  29
ATOM     28  C   UNL     1      -0.017   1.425   0.010  0.00  0.00    +0.194 C 
ATOM     29  O   UNL     1       0.002  -0.004   0.002  0.00  0.00    -0.377 OA
ENDBRANCH  27  29
ENDBRANCH   1  27
TORSDOF 6
