REMARK  Name = ZINC44924364
REMARK  4 active torsions:
REMARK  status: ('A' for Active; 'I' for Inactive)
REMARK    1  A    between atoms: C_1  and  C_2
REMARK    2  A    between atoms: C_2  and  N_9
REMARK    3  A    between atoms: N_9  and  C_10
REMARK    4  A    between atoms: C_19  and  N_20
REMARK                            x       y       z     vdW  Elec       q    Type
REMARK                         _______ _______ _______ _____ _____    ______ ____
ROOT
ATOM      1  C   UNL     1      -2.328  -0.106  -0.752  0.00  0.00    +0.059 A 
ATOM      2  C   UNL     1      -3.699  -0.160  -0.413  0.00  0.00    +0.022 A 
ATOM      3  C   UNL     1      -4.116  -0.478   0.888  0.00  0.00    +0.027 A 
ATOM      4  C   UNL     1      -5.447  -0.519   1.178  0.00  0.00    +0.019 A 
ATOM      5  C   UNL     1      -6.400  -0.250   0.196  0.00  0.00    +0.017 A 
ATOM      6  C   UNL     1      -6.029   0.061  -1.075  0.00  0.00    +0.027 A 
ATOM      7  C   UNL     1      -4.665   0.114  -1.412  0.00  0.00    +0.048 A 
ATOM      8  N   UNL     1      -4.275   0.418  -2.655  0.00  0.00    -0.359 N 
ATOM      9  C   UNL     1      -3.006   0.473  -2.986  0.00  0.00    +0.107 A 
ATOM     10  C   UNL     1      -1.994   0.222  -2.061  0.00  0.00    +0.063 A 
ATOM     11 BR   UNL     1      -6.009  -0.948   2.932  0.00  0.00    -0.050 Br
ATOM     12  H   UNL     1      -4.947   0.604  -3.328  0.00  0.00    +0.165 HD
ENDROOT
BRANCH  10  13
ATOM     13  N   UNL     1      -0.649   0.295  -2.449  0.00  0.00    -0.355 N 
ATOM     14  H   UNL     1       0.053   0.156  -1.794  0.00  0.00    +0.142 HD
ATOM     15  H   UNL     1      -0.420   0.484  -3.373  0.00  0.00    +0.142 HD
ENDBRANCH  10  13
BRANCH   1  16
ATOM     16  N   UNL     1      -1.344  -0.368   0.196  0.00  0.00    -0.335 N 
ATOM     17  H   UNL     1      -1.005   0.349   0.754  0.00  0.00    +0.147 HD
BRANCH  16  19
ATOM     18  C   UNL     1       0.662  -1.639   0.725  0.00  0.00    +0.033 C 
ATOM     19  C   UNL     1      -0.819  -1.727   0.351  0.00  0.00    +0.050 C 
ATOM     20  C   UNL     1      -0.942  -2.451  -0.989  0.00  0.00    +0.049 C 
ATOM     21  C   UNL     1      -1.093  -3.982  -0.762  0.00  0.00    +0.168 C 
ATOM     22  S   UNL     1      -2.204  -3.966   0.713  0.00  0.00    -0.029 S 
ATOM     23  O   UNL     1      -3.544  -3.763   0.287  0.00  0.00    -0.174 OA
ATOM     24  O   UNL     1      -1.891  -5.074   1.545  0.00  0.00    -0.174 OA
ATOM     25  C   UNL     1      -1.578  -2.422   1.498  0.00  0.00    +0.191 C 
ENDBRANCH  16  19
ENDBRANCH   1  16
TORSDOF 3
