REMARK  Name = ZINC61374299
REMARK  5 active torsions:
REMARK  status: ('A' for Active; 'I' for Inactive)
REMARK    1  A    between atoms: C_1  and  C_2
REMARK    2  A    between atoms: C_5  and  N_21
REMARK    3  A    between atoms: C_6  and  C_8
REMARK    4  A    between atoms: N_10  and  C_11
REMARK    5  A    between atoms: N_21  and  N_22
REMARK                            x       y       z     vdW  Elec       q    Type
REMARK                         _______ _______ _______ _____ _____    ______ ____
ROOT
ATOM      1  C   UNL     1       0.037  -3.060   2.316  0.00  0.00    +0.246 C 
ATOM      2  O   UNL     1       0.141  -4.266   2.198  0.00  0.00    -0.270 OA
ATOM      3  N   UNL     1      -0.069  -2.510   3.542  0.00  0.00    -0.304 N 
ATOM      4  H   UNL     1      -0.152  -1.548   3.636  0.00  0.00    +0.150 HD
ENDROOT
BRANCH   3   5
ATOM      5  C   UNL     1      -0.061  -3.364   4.731  0.00  0.00    +0.104 C 
ATOM      6  C   UNL     1      -0.782  -2.653   5.878  0.00  0.00    +0.027 C 
ATOM      7  C   UNL     1       0.018  -1.424   6.318  0.00  0.00    +0.007 C 
ATOM      8  C   UNL     1       1.296  -1.896   7.027  0.00  0.00    +0.043 C 
ATOM      9  C   UNL     1       1.935  -2.954   6.188  0.00  0.00    -0.005 A 
ATOM     10  C   UNL     1       1.380  -3.643   5.151  0.00  0.00    -0.017 A 
ATOM     11  C   UNL     1       2.189  -4.588   4.519  0.00  0.00    +0.013 A 
ATOM     12  C   UNL     1       3.458  -4.785   4.944  0.00  0.00    +0.046 A 
ATOM     13  S   UNL     1       3.578  -3.611   6.297  0.00  0.00    -0.101 S 
ENDBRANCH   3   5
BRANCH   1  19
ATOM     14  C   UNL     1       0.012   1.488   0.275  0.00  0.00    +0.044 C 
ATOM     15  C   UNL     1       0.017  -0.011   0.129  0.00  0.00    -0.050 A 
ATOM     16  C   UNL     1       0.012  -0.581  -1.135  0.00  0.00    +0.005 A 
ATOM     17  C   UNL     1       0.016  -1.952  -1.284  0.00  0.00    +0.025 A 
ATOM     18  C   UNL     1       0.024  -2.774  -0.163  0.00  0.00    +0.053 A 
ATOM     19  C   UNL     1       0.029  -2.200   1.118  0.00  0.00    +0.059 A 
ATOM     20  C   UNL     1       0.031  -0.809   1.251  0.00  0.00    +0.018 A 
BRANCH  18  21
ATOM     21  N   UNL     1       0.027  -4.155  -0.309  0.00  0.00    -0.282 N 
ATOM     22  H   UNL     1       0.111  -4.725   0.471  0.00  0.00    +0.166 HD
BRANCH  21  23
ATOM     23  N   UNL     1      -0.090  -4.710  -1.552  0.00  0.00    -0.256 NA
ATOM     24  H   UNL     1       0.629  -4.366  -2.170  0.00  0.00    +0.140 HD
ATOM     25  H   UNL     1      -0.072  -5.717  -1.501  0.00  0.00    +0.140 HD
ENDBRANCH  21  23
ENDBRANCH  18  21
ENDBRANCH   1  19
TORSDOF 4
