REMARK  Name = ZINC38586326
REMARK  2 active torsions:
REMARK  status: ('A' for Active; 'I' for Inactive)
REMARK    1  A    between atoms: C_1  and  C_2
REMARK    2  A    between atoms: C_4  and  C_24
REMARK                            x       y       z     vdW  Elec       q    Type
REMARK                         _______ _______ _______ _____ _____    ______ ____
ROOT
ATOM      1  C   UNL     1       0.004   1.473   0.008  0.00  0.00    +0.062 C 
ATOM      2  C   UNL     1       0.007  -0.034   0.011  0.00  0.00    +0.022 C 
ATOM      3  C   UNL     1      -1.068  -0.770   0.012  0.00  0.00    -0.004 C 
ATOM      4  C   UNL     1      -2.521  -0.388   0.166  0.00  0.00    +0.061 C 
ATOM      5  C   UNL     1      -3.017  -1.087   1.440  0.00  0.00    +0.108 C 
ATOM      6  C   UNL     1      -2.434  -2.455   1.586  0.00  0.00    +0.216 C 
ATOM      7  O   UNL     1      -3.028  -3.216   2.320  0.00  0.00    -0.276 OA
ATOM      8  N   UNL     1      -1.335  -2.934   1.003  0.00  0.00    -0.292 N 
ATOM      9  C   UNL     1      -0.636  -2.225  -0.061  0.00  0.00    +0.210 C 
ATOM     10  N   UNL     1       0.814  -2.172   0.134  0.00  0.00    -0.213 N 
ATOM     11  N   UNL     1       1.155  -0.813   0.006  0.00  0.00    -0.265 N 
ATOM     12  C   UNL     1       1.646  -3.205   0.379  0.00  0.00    +0.150 C 
ATOM     13  N   UNL     1       1.194  -4.444   0.465  0.00  0.00    -0.221 NA
ATOM     14  C   UNL     1       1.956  -5.490   0.767  0.00  0.00    +0.225 C 
ATOM     15  N   UNL     1       3.157  -5.361   1.318  0.00  0.00    -0.218 NA
ATOM     16  C   UNL     1       3.589  -4.115   1.489  0.00  0.00    +0.164 C 
ATOM     17  N   UNL     1       4.348  -3.529   2.365  0.00  0.00    -0.219 NA
ATOM     18  C   UNL     1       4.200  -2.198   2.325  0.00  0.00    +0.218 C 
ATOM     19  N   UNL     1       3.469  -1.793   1.324  0.00  0.00    -0.253 NA
ATOM     20  C   UNL     1       3.125  -2.993   0.558  0.00  0.00    +0.239 C 
ATOM     21  H   UNL     1      -0.986  -3.790   1.299  0.00  0.00    +0.151 HD
ATOM     22  H   UNL     1       2.059  -0.470  -0.072  0.00  0.00    +0.170 HD
ENDROOT
BRANCH   4  23
ATOM     23  C   UNL     1      -3.309  -0.861  -1.028  0.00  0.00    -0.003 A 
ATOM     24  C   UNL     1      -3.136  -0.251  -2.257  0.00  0.00    +0.046 A 
ATOM     25  C   UNL     1      -3.861  -0.686  -3.353  0.00  0.00    +0.020 A 
ATOM     26  C   UNL     1      -4.757  -1.730  -3.219  0.00  0.00    +0.003 A 
ATOM     27  C   UNL     1      -4.931  -2.340  -1.991  0.00  0.00    +0.020 A 
ATOM     28  C   UNL     1      -4.202  -1.909  -0.896  0.00  0.00    +0.046 A 
ATOM     29 CL   UNL     1      -4.414  -2.680   0.645  0.00  0.00    -0.083 Cl
ATOM     30 CL   UNL     1      -2.011   1.060  -2.426  0.00  0.00    -0.083 Cl
ENDBRANCH   4  23
TORSDOF 1
