REMARK  Name = ZINC15080083
REMARK  4 active torsions:
REMARK  status: ('A' for Active; 'I' for Inactive)
REMARK    1  A    between atoms: C_10  and  C_13
REMARK    2  A    between atoms: C_13  and  O_14
REMARK    3  A    between atoms: C_18  and  N_64
REMARK    4  A    between atoms: C_20  and  N_64
REMARK                            x       y       z     vdW  Elec       q    Type
REMARK                         _______ _______ _______ _____ _____    ______ ____
ROOT
ATOM      1  C   UNL     1      -2.612   1.805  -7.768  0.00  0.00    +0.118 A 
ATOM      2  C   UNL     1      -3.968   1.616  -7.526  0.00  0.00    -0.022 A 
ATOM      3  C   UNL     1      -4.345   0.858  -6.438  0.00  0.00    +0.048 A 
ATOM      4  N   UNL     1      -3.402   0.330  -5.665  0.00  0.00    -0.219 NA
ATOM      5  C   UNL     1      -2.120   0.526  -5.923  0.00  0.00    +0.218 A 
ATOM      6  N   UNL     1      -1.726   1.258  -6.955  0.00  0.00    -0.223 NA
ATOM      7  N   UNL     1      -1.168  -0.042  -5.094  0.00  0.00    -0.300 N 
ATOM      8  C   UNL     1       0.189   0.291  -5.545  0.00  0.00    +0.108 C 
ATOM      9  C   UNL     1       1.211  -0.469  -4.696  0.00  0.00    +0.025 C 
ATOM     10  C   UNL     1       1.033  -0.082  -3.225  0.00  0.00    +0.017 C 
ATOM     11  C   UNL     1      -0.402  -0.393  -2.793  0.00  0.00    +0.025 C 
ATOM     12  C   UNL     1      -1.378   0.363  -3.698  0.00  0.00    +0.108 C 
ATOM     13  C   UNL     1      -5.786   0.610  -6.083  0.00  0.00    +0.056 C 
ATOM     14  C   UNL     1      -6.689   0.906  -7.279  0.00  0.00    +0.005 C 
ATOM     15  C   UNL     1      -6.345   2.300  -7.817  0.00  0.00    -0.011 C 
ATOM     16  C   UNL     1      -4.962   2.242  -8.465  0.00  0.00    -0.037 C 
ENDROOT
BRANCH  16  17
ATOM     17  N   UNL     1      -4.521   3.611  -8.792  0.00  0.00    +0.387 N 
ATOM     18  H   UNL     1      -3.573   3.758  -8.426  0.00  0.00    -0.084 HD
ATOM     19  H   UNL     1      -5.163   4.286  -8.359  0.00  0.00    -0.084 HD
BRANCH  17  20
ATOM     20  C   UNL     1      -4.516   3.812 -10.253  0.00  0.00    -0.067 C 
ATOM     21  C   UNL     1      -5.905   3.507 -10.819  0.00  0.00    -0.009 C 
ATOM     22  C   UNL     1      -5.896   3.724 -12.334  0.00  0.00    -0.012 C 
ATOM     23  C   UNL     1      -5.530   5.178 -12.639  0.00  0.00    +0.007 C 
ATOM     24  C   UNL     1      -4.142   5.484 -12.072  0.00  0.00    -0.012 C 
ATOM     25  C   UNL     1      -4.150   5.266 -10.558  0.00  0.00    -0.009 C 
ATOM     26  C   UNL     1      -3.112   4.553 -12.715  0.00  0.00    +0.007 C 
ATOM     27  C   UNL     1      -3.479   3.099 -12.411  0.00  0.00    -0.012 C 
ATOM     28  C   UNL     1      -4.867   2.793 -12.977  0.00  0.00    +0.007 C 
ATOM     29  C   UNL     1      -3.487   2.881 -10.896  0.00  0.00    -0.009 C 
ENDBRANCH  17  20
ENDBRANCH  16  17
BRANCH  10  30
ATOM     30  C   UNL     1       2.011  -0.884  -2.364  0.00  0.00    +0.159 C 
BRANCH  30  31
ATOM     31  O   UNL     1       1.925  -0.442  -1.008  0.00  0.00    -0.395 OA
ATOM     32  H   UNL     1       2.519  -0.908  -0.404  0.00  0.00    +0.209 HD
ENDBRANCH  30  31
ENDBRANCH  10  30
TORSDOF 4
