REMARK  Name = ZINC65378554
REMARK  10 active torsions:
REMARK  status: ('A' for Active; 'I' for Inactive)
REMARK    1  A    between atoms: C_1  and  C_2
REMARK    2  A    between atoms: C_2  and  C_3
REMARK    3  A    between atoms: C_3  and  C_4
REMARK    4  A    between atoms: C_4  and  C_5
REMARK    5  A    between atoms: C_4  and  N_6
REMARK    6  A    between atoms: C_7  and  C_9
REMARK    7  A    between atoms: N_17  and  C_18
REMARK    8  A    between atoms: C_18  and  C_19
REMARK    9  A    between atoms: C_18  and  C_20
REMARK   10  A    between atoms: C_20  and  N_21
REMARK                            x       y       z     vdW  Elec       q    Type
REMARK                         _______ _______ _______ _____ _____    ______ ____
ROOT
ATOM      1  C   UNL     1       2.158  -4.237   1.527  0.00  0.00    +0.092 C 
ATOM      2  C   UNL     1       1.713  -5.652   1.905  0.00  0.00    +0.016 C 
ATOM      3  C   UNL     1       2.540  -6.148   3.093  0.00  0.00    +0.020 C 
ATOM      4  C   UNL     1       4.019  -6.196   2.697  0.00  0.00    +0.109 C 
ATOM      5  N   UNL     1       4.417  -4.873   2.196  0.00  0.00    -0.285 N 
ATOM      6  C   UNL     1       3.633  -4.263   1.113  0.00  0.00    +0.122 C 
ATOM      7  C   UNL     1       5.481  -4.232   2.719  0.00  0.00    +0.302 C 
ATOM      8  O   UNL     1       6.064  -4.703   3.677  0.00  0.00    -0.253 OA
ATOM      9  N   UNL     1       5.899  -3.070   2.180  0.00  0.00    -0.295 N 
ATOM     10  H   UNL     1       5.392  -2.658   1.463  0.00  0.00    +0.151 HD
ENDROOT
BRANCH   1  12
ATOM     11  N   UNL     1       1.540  -2.507  -0.129  0.00  0.00    -0.312 N 
ATOM     12  C   UNL     1       1.322  -3.737   0.377  0.00  0.00    +0.218 C 
ATOM     13  O   UNL     1       0.454  -4.441  -0.092  0.00  0.00    -0.275 OA
ATOM     14  H   UNL     1       2.234  -1.944   0.246  0.00  0.00    +0.149 HD
BRANCH  11  15
ATOM     15  C   UNL     1       0.727  -2.021  -1.247  0.00  0.00    +0.070 C 
ATOM     16  C   UNL     1       1.329  -2.510  -2.566  0.00  0.00    +0.028 C 
BRANCH  15  17
ATOM     17  C   UNL     1       0.704  -0.491  -1.234  0.00  0.00    +0.022 C 
BRANCH  17  19
ATOM     18  C   UNL     1      -0.033   1.527   0.042  0.00  0.00    +0.004 C 
ATOM     19  C   UNL     1      -0.010  -0.003   0.029  0.00  0.00    -0.002 C 
ENDBRANCH  17  19
ENDBRANCH  15  17
ENDBRANCH  11  15
ENDBRANCH   1  12
BRANCH   9  20
ATOM     20  C   UNL     1       7.119  -2.429   2.677  0.00  0.00    +0.091 C 
ATOM     21  C   UNL     1       6.782  -1.572   3.900  0.00  0.00    +0.029 C 
BRANCH  20  22
ATOM     22  C   UNL     1       7.712  -1.542   1.581  0.00  0.00    +0.144 C 
BRANCH  22  23
ATOM     23  N   UNL     1       8.144  -2.378   0.458  0.00  0.00    -0.337 N 
ATOM     24  C   UNL     1       9.379  -2.947   0.296  0.00  0.00    +0.104 A 
ATOM     25  C   UNL     1       9.345  -3.628  -0.865  0.00  0.00    +0.101 A 
ATOM     26  N   UNL     1       8.123  -3.479  -1.398  0.00  0.00    -0.352 N 
ATOM     27  C   UNL     1       7.397  -2.735  -0.609  0.00  0.00    +0.173 A 
ATOM     28  H   UNL     1       7.825  -3.866  -2.236  0.00  0.00    +0.166 HD
ENDBRANCH  22  23
ENDBRANCH  20  22
ENDBRANCH   9  20
TORSDOF 7
