REMARK  Name = ZINC12998219
REMARK  9 active torsions:
REMARK  status: ('A' for Active; 'I' for Inactive)
REMARK    1  A    between atoms: C_1  and  C_2
REMARK    2  A    between atoms: C_5  and  O_8
REMARK    3  A    between atoms: O_8  and  C_9
REMARK    4  A    between atoms: C_9  and  C_11
REMARK    5  A    between atoms: C_9  and  C_12
REMARK    6  A    between atoms: N_14  and  C_15
REMARK    7  A    between atoms: C_15  and  C_17
REMARK    8  A    between atoms: C_15  and  C_18
REMARK    9  A    between atoms: C_21  and  N_24
REMARK                            x       y       z     vdW  Elec       q    Type
REMARK                         _______ _______ _______ _____ _____    ______ ____
ROOT
ATOM      1  C   UNL     1      -2.491   3.616  -1.506  0.00  0.00    +0.254 C 
ATOM      2  O   UNL     1      -3.609   3.287  -1.171  0.00  0.00    -0.272 OA
ATOM      3  N   UNL     1      -1.422   2.933  -1.049  0.00  0.00    -0.306 N 
ATOM      4  H   UNL     1      -0.528   3.196  -1.317  0.00  0.00    +0.149 HD
ENDROOT
BRANCH   1   5
ATOM      5  C   UNL     1      -2.296   4.788  -2.434  0.00  0.00    +0.255 C 
ATOM      6  C   UNL     1      -1.554   5.904  -1.696  0.00  0.00    +0.062 C 
BRANCH   5   7
ATOM      7  O   UNL     1      -3.570   5.269  -2.868  0.00  0.00    -0.480 OA
BRANCH   7  12
ATOM      8  C   UNL     1      -3.725   8.023  -7.779  0.00  0.00    +0.044 C 
ATOM      9  C   UNL     1      -3.684   7.286  -6.465  0.00  0.00    -0.050 A 
ATOM     10  C   UNL     1      -2.470   6.894  -5.931  0.00  0.00    +0.007 A 
ATOM     11  C   UNL     1      -2.429   6.218  -4.727  0.00  0.00    +0.046 A 
ATOM     12  C   UNL     1      -3.607   5.933  -4.053  0.00  0.00    +0.122 A 
ATOM     13  C   UNL     1      -4.824   6.323  -4.593  0.00  0.00    +0.046 A 
ATOM     14  C   UNL     1      -4.860   7.003  -5.794  0.00  0.00    +0.007 A 
ENDBRANCH   7  12
ENDBRANCH   5   7
ENDBRANCH   1   5
BRANCH   3  15
ATOM     15  C   UNL     1      -1.612   1.794  -0.148  0.00  0.00    +0.100 C 
ATOM     16  C   UNL     1      -1.722   2.297   1.293  0.00  0.00    +0.033 C 
BRANCH  15  17
ATOM     17  C   UNL     1      -0.435   0.860  -0.265  0.00  0.00    -0.027 A 
ATOM     18  C   UNL     1       0.843   1.373  -0.387  0.00  0.00    +0.007 A 
ATOM     19  C   UNL     1       1.923   0.519  -0.501  0.00  0.00    +0.028 A 
ATOM     20  C   UNL     1       1.724  -0.855  -0.491  0.00  0.00    +0.067 A 
ATOM     21  C   UNL     1       0.439  -1.367  -0.368  0.00  0.00    +0.028 A 
ATOM     22  C   UNL     1      -0.637  -0.508  -0.256  0.00  0.00    +0.007 A 
BRANCH  20  23
ATOM     23  N   UNL     1       2.818  -1.724  -0.605  0.00  0.00    -0.220 N 
ATOM     24  C   UNL     1       4.114  -1.379  -0.736  0.00  0.00    +0.225 A 
ATOM     25  N   UNL     1       4.820  -2.478  -0.808  0.00  0.00    -0.222 NA
ATOM     26  C   UNL     1       4.016  -3.538  -0.737  0.00  0.00    +0.245 A 
ATOM     27  N   UNL     1       2.781  -3.128  -0.612  0.00  0.00    -0.154 NA
ENDBRANCH  20  23
ENDBRANCH  15  17
ENDBRANCH   3  15
TORSDOF 6
