REMARK  Name = ZINC66608707
REMARK  6 active torsions:
REMARK  status: ('A' for Active; 'I' for Inactive)
REMARK    1  A    between atoms: C_4  and  N_21
REMARK    2  A    between atoms: C_5  and  N_7
REMARK    3  A    between atoms: N_7  and  N_8
REMARK    4  A    between atoms: C_9  and  C_11
REMARK    5  A    between atoms: C_16  and  S_17
REMARK    6  A    between atoms: S_17  and  C_18
REMARK                            x       y       z     vdW  Elec       q    Type
REMARK                         _______ _______ _______ _____ _____    ______ ____
ROOT
ATOM      1  N   UNL     1      -0.138  -2.675   0.636  0.00  0.00    -0.232 N 
ATOM      2  C   UNL     1      -0.184  -4.002   0.867  0.00  0.00    +0.263 C 
ATOM      3  O   UNL     1       0.847  -4.644   0.934  0.00  0.00    -0.269 OA
ATOM      4  H   UNL     1      -0.960  -2.163   0.582  0.00  0.00    +0.173 HD
ENDROOT
BRANCH   2   5
ATOM      5  C   UNL     1      -1.484  -4.675   1.039  0.00  0.00    +0.070 A 
ATOM      6  C   UNL     1      -2.679  -3.950   0.959  0.00  0.00    +0.017 A 
ATOM      7  C   UNL     1      -3.872  -4.628   1.127  0.00  0.00    +0.020 A 
ATOM      8  C   UNL     1      -3.854  -5.991   1.367  0.00  0.00    +0.112 A 
ATOM      9  N   UNL     1      -2.719  -6.657   1.439  0.00  0.00    -0.248 NA
ATOM     10  C   UNL     1      -1.547  -6.059   1.280  0.00  0.00    +0.114 A 
BRANCH  10  11
ATOM     11  S   UNL     1      -0.061  -7.000   1.380  0.00  0.00    -0.035 S 
BRANCH  11  12
ATOM     12  C   UNL     1      -0.633  -8.692   1.697  0.00  0.00    +0.405 C 
ATOM     13  F   UNL     1      -1.358  -8.723   2.893  0.00  0.00    -0.197 F 
ATOM     14  F   UNL     1      -1.453  -9.111   0.644  0.00  0.00    -0.197 F 
ENDBRANCH  11  12
ENDBRANCH  10  11
ENDBRANCH   2   5
BRANCH   1  15
ATOM     15  N   UNL     1       1.098  -2.035   0.472  0.00  0.00    -0.262 N 
ATOM     16  H   UNL     1       1.920  -2.547   0.526  0.00  0.00    +0.170 HD
BRANCH  15  21
ATOM     17  C   UNL     1       0.030   1.454   0.031  0.00  0.00    +0.002 A 
ATOM     18  C   UNL     1       1.240   2.065  -0.243  0.00  0.00    +0.002 A 
ATOM     19  C   UNL     1       2.403   1.317  -0.280  0.00  0.00    +0.034 A 
ATOM     20  C   UNL     1       2.359  -0.043  -0.043  0.00  0.00    +0.148 A 
ATOM     21  C   UNL     1       1.145  -0.659   0.233  0.00  0.00    +0.075 A 
ATOM     22  C   UNL     1      -0.021   0.095   0.269  0.00  0.00    +0.027 A 
BRANCH  20  23
ATOM     23  N   UNL     1       3.604  -0.842  -0.083  0.00  0.00    +0.058 N 
ATOM     24  O   UNL     1       4.636  -0.375   0.339  0.00  0.00    -0.126 OA
ATOM     25  O   UNL     1       3.589  -1.963  -0.537  0.00  0.00    -0.126 OA
ENDBRANCH  20  23
ENDBRANCH  15  21
ENDBRANCH   1  15
TORSDOF 6
