REMARK  Name = ZINC33700037
REMARK  11 active torsions:
REMARK  status: ('A' for Active; 'I' for Inactive)
REMARK    1  A    between atoms: C_1  and  O_2
REMARK    2  A    between atoms: O_2  and  C_3
REMARK    3  A    between atoms: C_3  and  C_5
REMARK    4  A    between atoms: C_5  and  C_7
REMARK    5  A    between atoms: C_5  and  N_14
REMARK    6  A    between atoms: C_7  and  C_8
REMARK    7  A    between atoms: C_8  and  C_9
REMARK    8  A    between atoms: C_9  and  N_10
REMARK    9  A    between atoms: C_15  and  C_17
REMARK   10  A    between atoms: C_20  and  C_22
REMARK   11  A    between atoms: C_27  and  N_28
REMARK                            x       y       z     vdW  Elec       q    Type
REMARK                         _______ _______ _______ _____ _____    ______ ____
ROOT
ATOM      1  N   UNL     1       2.350  -1.509   2.458  0.00  0.00    -0.297 N 
ATOM      2  C   UNL     1       3.660  -1.817   2.543  0.00  0.00    +0.266 C 
ATOM      3  O   UNL     1       4.410  -1.539   1.627  0.00  0.00    -0.268 OA
ATOM      4  H   UNL     1       1.752  -1.731   3.188  0.00  0.00    +0.150 HD
ENDROOT
BRANCH   2   5
ATOM      5  C   UNL     1       4.182  -2.490   3.746  0.00  0.00    +0.164 A 
ATOM      6  C   UNL     1       5.475  -2.854   3.971  0.00  0.00    +0.230 A 
ATOM      7  O   UNL     1       5.518  -3.434   5.181  0.00  0.00    -0.443 OA
ATOM      8  C   UNL     1       4.275  -3.429   5.694  0.00  0.00    +0.230 A 
ATOM      9  N   UNL     1       3.464  -2.858   4.839  0.00  0.00    -0.204 NA
BRANCH   8  10
ATOM     10  C   UNL     1       3.888  -3.975   7.011  0.00  0.00    +0.057 A 
ATOM     11  C   UNL     1       3.078  -3.230   7.869  0.00  0.00    +0.015 A 
ATOM     12  C   UNL     1       2.720  -3.745   9.097  0.00  0.00    +0.001 A 
ATOM     13  C   UNL     1       3.159  -5.000   9.484  0.00  0.00    +0.002 A 
ATOM     14  C   UNL     1       3.961  -5.748   8.645  0.00  0.00    +0.023 A 
ATOM     15  C   UNL     1       4.327  -5.247   7.403  0.00  0.00    +0.037 A 
BRANCH  15  16
ATOM     16  N   UNL     1       5.131  -6.003   6.553  0.00  0.00    -0.357 N 
ATOM     17  H   UNL     1       5.313  -5.691   5.653  0.00  0.00    +0.142 HD
ATOM     18  H   UNL     1       5.509  -6.841   6.862  0.00  0.00    +0.142 HD
ENDBRANCH  15  16
ENDBRANCH   8  10
ENDBRANCH   2   5
BRANCH   1  19
ATOM     19  C   UNL     1       1.831  -0.840   1.262  0.00  0.00    +0.182 C 
BRANCH  19  20
ATOM     20  C   UNL     1       2.024   0.648   1.396  0.00  0.00    +0.327 C 
ATOM     21  O   UNL     1       2.542   1.104   2.388  0.00  0.00    -0.249 OA
BRANCH  20  23
ATOM     22  C   UNL     1       1.835   2.868   0.606  0.00  0.00    +0.280 C 
ATOM     23  O   UNL     1       1.621   1.468   0.412  0.00  0.00    -0.467 OA
ENDBRANCH  20  23
ENDBRANCH  19  20
BRANCH  19  24
ATOM     24  C   UNL     1       0.341  -1.150   1.111  0.00  0.00    +0.035 C 
BRANCH  24  25
ATOM     25  C   UNL     1       0.154  -2.646   0.850  0.00  0.00    +0.023 C 
BRANCH  25  26
ATOM     26  C   UNL     1      -1.336  -2.956   0.699  0.00  0.00    +0.115 C 
BRANCH  26  27
ATOM     27  N   UNL     1      -1.515  -4.388   0.450  0.00  0.00    -0.358 N 
ATOM     28  C   UNL     1      -2.771  -4.902   0.281  0.00  0.00    +0.166 C 
ATOM     29  N   UNL     1      -2.933  -6.204   0.054  0.00  0.00    -0.372 N 
ATOM     30  N   UNL     1      -3.832  -4.099   0.343  0.00  0.00    -0.372 N 
ATOM     31  H   UNL     1      -0.742  -4.973   0.405  0.00  0.00    +0.162 HD
ATOM     32  H   UNL     1      -2.160  -6.789   0.009  0.00  0.00    +0.159 HD
ATOM     33  H   UNL     1      -3.714  -3.151   0.508  0.00  0.00    +0.159 HD
ATOM     34  H   UNL     1      -4.723  -4.463   0.223  0.00  0.00    +0.159 HD
ATOM     35  H   UNL     1      -3.824  -6.569  -0.066  0.00  0.00    +0.159 HD
ENDBRANCH  26  27
ENDBRANCH  25  26
ENDBRANCH  24  25
ENDBRANCH  19  24
ENDBRANCH   1  19
TORSDOF 10
