REMARK  Name = ZINC21686248
REMARK  9 active torsions:
REMARK  status: ('A' for Active; 'I' for Inactive)
REMARK    1  A    between atoms: C_1  and  C_2
REMARK    2  A    between atoms: C_2  and  N_3
REMARK    3  A    between atoms: C_4  and  C_29
REMARK    4  A    between atoms: C_6  and  C_8
REMARK    5  A    between atoms: N_10  and  C_11
REMARK    6  A    between atoms: C_13  and  C_28
REMARK    7  A    between atoms: C_19  and  O_25
REMARK    8  A    between atoms: O_25  and  C_26
REMARK    9  A    between atoms: C_26  and  C_27
REMARK                            x       y       z     vdW  Elec       q    Type
REMARK                         _______ _______ _______ _____ _____    ______ ____
ROOT
ATOM      1  C   UNL     1      -4.767  -0.304   4.547  0.00  0.00    +0.131 A 
ATOM      2  C   UNL     1      -5.178   0.408   5.632  0.00  0.00    +0.068 A 
ATOM      3  C   UNL     1      -6.202  -0.312   6.255  0.00  0.00    +0.062 A 
ATOM      4  N   UNL     1      -6.400  -1.418   5.585  0.00  0.00    -0.168 NA
ATOM      5  N   UNL     1      -5.511  -1.445   4.502  0.00  0.00    -0.194 N 
ATOM      6  C   UNL     1      -5.407  -2.455   3.552  0.00  0.00    +0.197 A 
ATOM      7  N   UNL     1      -6.092  -3.569   3.457  0.00  0.00    -0.217 NA
ATOM      8  C   UNL     1      -5.883  -4.469   2.472  0.00  0.00    +0.122 A 
ATOM      9  C   UNL     1      -6.550  -5.703   2.256  0.00  0.00    +0.147 A 
ATOM     10  C   UNL     1      -6.210  -6.506   1.194  0.00  0.00    +0.048 A 
ATOM     11  C   UNL     1      -5.212  -6.142   0.301  0.00  0.00    +0.005 A 
ATOM     12  C   UNL     1      -4.544  -4.946   0.482  0.00  0.00    +0.017 A 
ATOM     13  C   UNL     1      -4.875  -4.135   1.542  0.00  0.00    +0.045 A 
ATOM     14  S   UNL     1      -4.312  -2.561   2.144  0.00  0.00    -0.048 S 
ATOM     15  C   UNL     1      -6.948   0.112   7.494  0.00  0.00    +0.067 C 
ENDROOT
BRANCH   1  18
ATOM     16  C   UNL     1      -3.106   1.226   3.817  0.00  0.00    +0.269 C 
ATOM     17  O   UNL     1      -3.385   1.956   4.749  0.00  0.00    -0.268 OA
ATOM     18  N   UNL     1      -3.765   0.062   3.651  0.00  0.00    -0.265 N 
ATOM     19  H   UNL     1      -3.512  -0.598   2.809  0.00  0.00    +0.157 HD
BRANCH  16  23
ATOM     20  N   UNL     1      -0.698   1.558   1.213  0.00  0.00    -0.268 N 
ATOM     21  C   UNL     1      -0.429   2.718   1.851  0.00  0.00    +0.037 A 
ATOM     22  C   UNL     1      -1.268   2.798   2.910  0.00  0.00    +0.057 A 
ATOM     23  C   UNL     1      -2.044   1.615   2.868  0.00  0.00    +0.148 A 
ATOM     24  N   UNL     1      -1.639   0.926   1.819  0.00  0.00    -0.166 NA
ATOM     25  C   UNL     1       0.610   3.735   1.455  0.00  0.00    +0.065 C 
BRANCH  20  27
ATOM     26  C   UNL     1      -0.753   1.593  -1.232  0.00  0.00    +0.029 C 
ATOM     27  C   UNL     1      -0.013   1.086   0.008  0.00  0.00    +0.140 C 
ENDBRANCH  20  27
ENDBRANCH  16  23
ENDBRANCH   1  18
BRANCH   9  28
ATOM     28  O   UNL     1      -7.533  -6.095   3.109  0.00  0.00    -0.490 OA
BRANCH  28  29
ATOM     29  C   UNL     1      -8.165  -7.347   2.838  0.00  0.00    +0.226 C 
ATOM     30  C   UNL     1      -9.237  -7.617   3.897  0.00  0.00    +0.048 C 
ENDBRANCH  28  29
ENDBRANCH   9  28
TORSDOF 5
