REMARK  Name = ZINC59844370
REMARK  10 active torsions:
REMARK  status: ('A' for Active; 'I' for Inactive)
REMARK    1  A    between atoms: C_1  and  O_2
REMARK    2  A    between atoms: O_2  and  C_3
REMARK    3  A    between atoms: C_3  and  C_5
REMARK    4  A    between atoms: C_9  and  N_10
REMARK    5  A    between atoms: C_11  and  C_13
REMARK    6  A    between atoms: C_13  and  S_14
REMARK    7  A    between atoms: S_14  and  C_15
REMARK    8  A    between atoms: N_20  and  N_21
REMARK    9  A    between atoms: C_22  and  C_23
REMARK   10  A    between atoms: C_28  and  N_29
REMARK                            x       y       z     vdW  Elec       q    Type
REMARK                         _______ _______ _______ _____ _____    ______ ____
ROOT
ATOM      1  C   UNL     1      -1.571  -3.220  -7.678  0.00  0.00    +0.211 A 
ATOM      2  N   UNL     1      -1.576  -3.847  -8.859  0.00  0.00    -0.186 NA
ATOM      3  C   UNL     1      -1.530  -2.961  -9.831  0.00  0.00    +0.232 A 
ATOM      4  N   UNL     1      -1.495  -1.732  -9.274  0.00  0.00    -0.245 N 
ATOM      5  N   UNL     1      -1.528  -1.925  -7.883  0.00  0.00    -0.144 NA
ATOM      6  N   UNL     1      -1.520  -3.240 -11.186  0.00  0.00    -0.205 N 
ATOM      7  H   UNL     1      -1.484  -2.515 -11.830  0.00  0.00    +0.177 HD
ATOM      8  H   UNL     1      -1.458  -0.883  -9.742  0.00  0.00    +0.192 HD
ENDROOT
BRANCH   6   9
ATOM      9  N   UNL     1      -1.561  -4.569 -11.627  0.00  0.00    -0.187 NA
ATOM     10  C   UNL     1      -1.551  -4.830 -12.899  0.00  0.00    +0.140 C 
BRANCH  10  11
ATOM     11  C   UNL     1      -1.594  -6.229 -13.364  0.00  0.00    +0.025 A 
ATOM     12  C   UNL     1      -1.523  -7.277 -12.443  0.00  0.00    +0.012 A 
ATOM     13  C   UNL     1      -1.564  -8.583 -12.885  0.00  0.00    +0.001 A 
ATOM     14  C   UNL     1      -1.676  -8.856 -14.237  0.00  0.00    +0.002 A 
ATOM     15  C   UNL     1      -1.747  -7.823 -15.155  0.00  0.00    +0.033 A 
ATOM     16  C   UNL     1      -1.713  -6.512 -14.726  0.00  0.00    +0.135 A 
BRANCH  16  17
ATOM     17  N   UNL     1      -1.796  -5.408 -15.710  0.00  0.00    +0.057 N 
ATOM     18  O   UNL     1      -2.007  -5.651 -16.875  0.00  0.00    -0.126 OA
ATOM     19  O   UNL     1      -1.651  -4.264 -15.347  0.00  0.00    -0.126 OA
ENDBRANCH  16  17
ENDBRANCH  10  11
ENDBRANCH   6   9
BRANCH   1  20
ATOM     20  S   UNL     1      -1.622  -4.005  -6.101  0.00  0.00    -0.075 S 
BRANCH  20  21
ATOM     21  C   UNL     1      -1.599  -2.626  -4.923  0.00  0.00    +0.173 C 
BRANCH  21  23
ATOM     22  N   UNL     1      -1.631  -2.318  -2.469  0.00  0.00    -0.279 N 
ATOM     23  C   UNL     1      -1.640  -3.165  -3.517  0.00  0.00    +0.228 C 
ATOM     24  O   UNL     1      -1.680  -4.363  -3.328  0.00  0.00    -0.275 OA
ATOM     25  H   UNL     1      -1.599  -1.360  -2.620  0.00  0.00    +0.155 HD
BRANCH  22  30
ATOM     26  C   UNL     1      -1.667  -2.101   0.010  0.00  0.00    +0.091 A 
ATOM     27  C   UNL     1      -1.718  -2.869   1.254  0.00  0.00    -0.021 A 
ATOM     28  C   UNL     1      -1.755  -4.202   1.074  0.00  0.00    -0.004 A 
ATOM     29  S   UNL     1      -1.724  -4.418  -0.687  0.00  0.00    -0.077 S 
ATOM     30  C   UNL     1      -1.669  -2.814  -1.175  0.00  0.00    +0.086 A 
ATOM     31  C   UNL     1      -1.803  -4.943   2.383  0.00  0.00    +0.043 C 
ATOM     32  C   UNL     1      -1.359  -3.904   3.436  0.00  0.00    +0.010 C 
ATOM     33  C   UNL     1      -1.746  -2.577   2.752  0.00  0.00    +0.037 C 
BRANCH  26  34
ATOM     34  C   UNL     1      -1.621  -0.638   0.020  0.00  0.00    +0.342 C 
ATOM     35  O   UNL     1      -2.655   0.003   0.005  0.00  0.00    -0.245 OA
BRANCH  34  37
ATOM     36  C   UNL     1      -0.463   1.429   0.052  0.00  0.00    +0.280 C 
ATOM     37  O   UNL     1      -0.433   0.000   0.044  0.00  0.00    -0.464 OA
ENDBRANCH  34  37
ENDBRANCH  26  34
ENDBRANCH  22  30
ENDBRANCH  21  23
ENDBRANCH  20  21
ENDBRANCH   1  20
TORSDOF 9
