REMARK  Name = ZINC35026851
REMARK  12 active torsions:
REMARK  status: ('A' for Active; 'I' for Inactive)
REMARK    1  A    between atoms: C_1  and  C_2
REMARK    2  A    between atoms: C_2  and  C_4
REMARK    3  A    between atoms: C_2  and  N_16
REMARK    4  A    between atoms: N_14  and  C_15
REMARK    5  A    between atoms: N_16  and  C_17
REMARK    6  A    between atoms: C_17  and  C_18
REMARK    7  A    between atoms: C_18  and  C_19
REMARK    8  A    between atoms: C_18  and  C_20
REMARK    9  A    between atoms: N_23  and  C_24
REMARK   10  A    between atoms: C_24  and  C_25
REMARK   11  A    between atoms: C_24  and  C_26
REMARK   12  A    between atoms: C_24  and  C_27
REMARK                            x       y       z     vdW  Elec       q    Type
REMARK                         _______ _______ _______ _____ _____    ______ ____
ROOT
ATOM      1  C   UNL     1       0.386   1.849   0.141  0.00  0.00    +0.036 C 
ATOM      2  C   UNL     1       0.277   0.331  -0.010  0.00  0.00    +0.141 C 
ENDROOT
BRANCH   2   3
ATOM      3  C   UNL     1       0.967  -0.341   1.150  0.00  0.00    +0.133 A 
ATOM      4  N   UNL     1       0.614  -0.007   2.354  0.00  0.00    -0.232 NA
ATOM      5  C   UNL     1       1.190  -0.569   3.446  0.00  0.00    +0.078 A 
ATOM      6  C   UNL     1       0.811  -0.210   4.741  0.00  0.00    +0.028 A 
ATOM      7  C   UNL     1       1.423  -0.807   5.820  0.00  0.00    +0.002 A 
ATOM      8  C   UNL     1       2.414  -1.762   5.638  0.00  0.00    +0.001 A 
ATOM      9  C   UNL     1       2.806  -2.132   4.370  0.00  0.00    +0.015 A 
ATOM     10  C   UNL     1       2.199  -1.540   3.264  0.00  0.00    +0.065 A 
ATOM     11  C   UNL     1       2.575  -1.896   1.887  0.00  0.00    +0.262 A 
ATOM     12  O   UNL     1       3.437  -2.725   1.661  0.00  0.00    -0.267 OA
ATOM     13  N   UNL     1       1.922  -1.268   0.881  0.00  0.00    -0.298 N 
ATOM     14  C   UNL     1       2.253  -1.589  -0.509  0.00  0.00    +0.154 C 
ENDBRANCH   2   3
BRANCH   2  15
ATOM     15  N   UNL     1      -1.136  -0.058  -0.029  0.00  0.00    -0.276 N 
ATOM     16  C   UNL     1      -1.645  -0.695  -1.101  0.00  0.00    +0.303 C 
ATOM     17  O   UNL     1      -0.933  -0.947  -2.054  0.00  0.00    -0.253 OA
ATOM     18  N   UNL     1      -2.945  -1.052  -1.119  0.00  0.00    -0.294 N 
ATOM     19  H   UNL     1      -3.514  -0.851  -0.359  0.00  0.00    +0.151 HD
BRANCH  18  20
ATOM     20  C   UNL     1      -3.499  -1.744  -2.285  0.00  0.00    +0.028 C 
ATOM     21  C   UNL     1      -2.750  -3.062  -2.499  0.00  0.00    +0.031 C 
ATOM     22  C   UNL     1      -4.983  -2.033  -2.050  0.00  0.00    +0.031 C 
ATOM     23  C   UNL     1      -3.341  -0.862  -3.525  0.00  0.00    +0.031 C 
ENDBRANCH  18  20
BRANCH  15  24
ATOM     24  C   UNL     1      -1.995   0.246   1.119  0.00  0.00    +0.113 C 
BRANCH  24  25
ATOM     25  C   UNL     1      -2.635   1.623   0.926  0.00  0.00    +0.000 C 
ATOM     26  C   UNL     1      -3.572   1.584  -0.283  0.00  0.00    +0.009 C 
ATOM     27  C   UNL     1      -3.432   1.995   2.178  0.00  0.00    +0.009 C 
ENDBRANCH  24  25
ENDBRANCH  15  24
ENDBRANCH   2  15
TORSDOF 5
