REMARK  Name = ZINC65601199
REMARK  12 active torsions:
REMARK  status: ('A' for Active; 'I' for Inactive)
REMARK    1  A    between atoms: C_1  and  C_2
REMARK    2  A    between atoms: C_2  and  C_3
REMARK    3  A    between atoms: N_5  and  C_6
REMARK    4  A    between atoms: C_10  and  N_12
REMARK    5  A    between atoms: C_13  and  C_15
REMARK    6  A    between atoms: N_17  and  C_18
REMARK    7  A    between atoms: C_18  and  C_19
REMARK    8  A    between atoms: C_19  and  C_20
REMARK    9  A    between atoms: C_19  and  N_27
REMARK   10  A    between atoms: C_23  and  C_26
REMARK   11  A    between atoms: N_27  and  C_28
REMARK   12  A    between atoms: N_27  and  C_29
REMARK                            x       y       z     vdW  Elec       q    Type
REMARK                         _______ _______ _______ _____ _____    ______ ____
ROOT
ATOM      1  C   UNL     1       3.700  -7.114  -5.594  0.00  0.00    +0.299 C 
ATOM      2  O   UNL     1       3.116  -7.936  -4.919  0.00  0.00    -0.265 OA
ATOM      3  N   UNL     1       4.472  -7.513  -6.624  0.00  0.00    -0.309 N 
ATOM      4  H   UNL     1       4.939  -6.856  -7.163  0.00  0.00    +0.149 HD
ENDROOT
BRANCH   1   6
ATOM      5  N   UNL     1       2.791  -5.259  -4.254  0.00  0.00    -0.278 N 
ATOM      6  C   UNL     1       3.563  -5.659  -5.284  0.00  0.00    +0.303 C 
ATOM      7  O   UNL     1       4.148  -4.837  -5.959  0.00  0.00    -0.265 OA
ATOM      8  H   UNL     1       2.270  -5.909  -3.758  0.00  0.00    +0.155 HD
BRANCH   5  13
ATOM      9  C   UNL     1       2.569  -2.199  -2.223  0.00  0.00    +0.035 A 
ATOM     10  C   UNL     1       2.642  -1.226  -3.212  0.00  0.00    +0.023 A 
ATOM     11  C   UNL     1       2.763  -1.593  -4.538  0.00  0.00    +0.004 A 
ATOM     12  C   UNL     1       2.813  -2.929  -4.886  0.00  0.00    +0.023 A 
ATOM     13  C   UNL     1       2.741  -3.908  -3.902  0.00  0.00    +0.036 A 
ATOM     14  C   UNL     1       2.625  -3.541  -2.568  0.00  0.00    +0.046 A 
BRANCH   9  17
ATOM     15  C   UNL     1       3.053  -2.551   0.080  0.00  0.00    +0.217 C 
ATOM     16  O   UNL     1       3.635  -3.575  -0.211  0.00  0.00    -0.275 OA
ATOM     17  N   UNL     1       2.446  -1.825  -0.880  0.00  0.00    -0.285 N 
ATOM     18  H   UNL     1       1.923  -1.045  -0.640  0.00  0.00    +0.155 HD
BRANCH  15  20
ATOM     19  C   UNL     1       3.770  -3.085   2.393  0.00  0.00    +0.013 C 
ATOM     20  C   UNL     1       3.010  -2.090   1.514  0.00  0.00    +0.093 C 
ENDBRANCH  15  20
ENDBRANCH   9  17
ENDBRANCH   5  13
ENDBRANCH   1   6
BRANCH   3  21
ATOM     21  C   UNL     1       4.606  -8.940  -6.928  0.00  0.00    +0.094 C 
BRANCH  21  22
ATOM     22  C   UNL     1       5.628  -9.128  -8.052  0.00  0.00    -0.021 C 
BRANCH  22  23
ATOM     23  C   UNL     1       6.989  -8.696  -7.571  0.00  0.00    -0.059 A 
ATOM     24  C   UNL     1       7.749  -9.547  -6.791  0.00  0.00    +0.002 A 
ATOM     25  C   UNL     1       8.998  -9.150  -6.350  0.00  0.00    +0.003 A 
ATOM     26  C   UNL     1       9.486  -7.902  -6.689  0.00  0.00    -0.050 A 
ATOM     27  C   UNL     1       8.726  -7.051  -7.470  0.00  0.00    +0.003 A 
ATOM     28  C   UNL     1       7.479  -7.450  -7.914  0.00  0.00    +0.002 A 
ATOM     29  C   UNL     1      10.847  -7.469  -6.207  0.00  0.00    +0.044 C 
ENDBRANCH  22  23
BRANCH  22  30
ATOM     30  N   UNL     1       5.673 -10.544  -8.440  0.00  0.00    +0.382 N 
ATOM     31  C   UNL     1       4.379 -10.936  -9.014  0.00  0.00    -0.096 C 
ATOM     32  C   UNL     1       6.732 -10.745  -9.438  0.00  0.00    -0.096 C 
ATOM     33  H   UNL     1       5.865 -11.110  -7.627  0.00  0.00    -0.082 HD
ENDBRANCH  22  30
ENDBRANCH  21  22
ENDBRANCH   3  21
TORSDOF 8
