REMARK  Name = ZINC01441056
REMARK  3 active torsions:
REMARK  status: ('A' for Active; 'I' for Inactive)
REMARK    1  A    between atoms: C_4  and  C_7
REMARK    2  A    between atoms: N_9  and  N_14
REMARK    3  A    between atoms: N_14  and  C_15
REMARK                            x       y       z     vdW  Elec       q    Type
REMARK                         _______ _______ _______ _____ _____    ______ ____
ROOT
ATOM      1  C   UNL     1       1.261   2.061   0.001  0.00  0.00    +0.184 C 
ATOM      2  N   UNL     1      -0.016   1.323   0.009  0.00  0.00    -0.204 N 
ATOM      3  C   UNL     1       0.002  -0.004   0.002  0.00  0.00    +0.243 C 
ATOM      4  O   UNL     1      -1.026  -0.647   0.013  0.00  0.00    -0.273 OA
ATOM      5  C   UNL     1       1.359  -0.689  -0.021  0.00  0.00    +0.168 C 
ATOM      6  S   UNL     1       2.445   0.730  -0.480  0.00  0.00    -0.123 S 
ENDROOT
BRANCH   1  10
ATOM      7  C   UNL     1       1.206   5.191  -2.905  0.00  0.00    +0.000 A 
ATOM      8  C   UNL     1       1.966   5.326  -1.758  0.00  0.00    +0.000 A 
ATOM      9  C   UNL     1       1.984   4.313  -0.818  0.00  0.00    +0.006 A 
ATOM     10  C   UNL     1       1.242   3.165  -1.024  0.00  0.00    -0.015 A 
ATOM     11  C   UNL     1       0.486   3.028  -2.173  0.00  0.00    +0.006 A 
ATOM     12  C   UNL     1       0.465   4.043  -3.112  0.00  0.00    +0.000 A 
ENDBRANCH   1  10
BRANCH   2  13
ATOM     13  N   UNL     1      -1.234   2.014   0.019  0.00  0.00    -0.261 N 
ATOM     14  H   UNL     1      -1.552   2.447  -0.789  0.00  0.00    +0.170 HD
BRANCH  13  15
ATOM     15  C   UNL     1      -1.990   2.081   1.191  0.00  0.00    +0.045 A 
ATOM     16  C   UNL     1      -1.538   1.458   2.347  0.00  0.00    +0.024 A 
ATOM     17  C   UNL     1      -2.286   1.530   3.506  0.00  0.00    +0.002 A 
ATOM     18  C   UNL     1      -3.488   2.214   3.514  0.00  0.00    +0.000 A 
ATOM     19  C   UNL     1      -3.943   2.831   2.364  0.00  0.00    +0.002 A 
ATOM     20  C   UNL     1      -3.198   2.767   1.203  0.00  0.00    +0.024 A 
ENDBRANCH  13  15
ENDBRANCH   2  13
TORSDOF 3
