REMARK  Name = ZINC39531062
REMARK  10 active torsions:
REMARK  status: ('A' for Active; 'I' for Inactive)
REMARK    1  A    between atoms: C_4  and  C_7
REMARK    2  A    between atoms: C_7  and  C_8
REMARK    3  A    between atoms: C_11  and  C_14
REMARK    4  A    between atoms: C_14  and  C_16
REMARK    5  A    between atoms: C_14  and  N_27
REMARK    6  A    between atoms: C_16  and  N_17
REMARK    7  A    between atoms: N_17  and  S_18
REMARK    8  A    between atoms: S_18  and  C_21
REMARK    9  A    between atoms: C_31  and  C_34
REMARK   10  A    between atoms: C_39  and  O_40
REMARK                            x       y       z     vdW  Elec       q    Type
REMARK                         _______ _______ _______ _____ _____    ______ ____
ROOT
ATOM      1  C   UNL     1       5.450  -1.675   5.388  0.00  0.00    +0.102 C 
ENDROOT
BRANCH   1   2
ATOM      2  N   UNL     1       4.318  -2.168   6.184  0.00  0.00    -0.297 NA
ATOM      3  C   UNL     1       3.845  -3.465   5.681  0.00  0.00    +0.066 C 
ATOM      4  C   UNL     1       2.708  -3.971   6.572  0.00  0.00    -0.066 C 
ATOM      5  N   UNL     1       1.611  -2.995   6.567  0.00  0.00    +0.385 N 
ATOM      6  C   UNL     1       2.093  -1.711   7.096  0.00  0.00    -0.023 C 
ATOM      7  C   UNL     1       3.224  -1.187   6.209  0.00  0.00    +0.074 C 
ATOM      8  H   UNL     1       1.280  -2.866   5.623  0.00  0.00    -0.085 HD
ATOM      9  H   UNL     1       0.857  -3.334   7.145  0.00  0.00    -0.085 HD
BRANCH   6  10
ATOM     10  C   UNL     1       0.961  -0.716   7.107  0.00  0.00    -0.019 A 
ATOM     11  C   UNL     1      -0.150  -0.923   6.312  0.00  0.00    +0.005 A 
ATOM     12  C   UNL     1      -1.188  -0.011   6.321  0.00  0.00    +0.000 A 
ATOM     13  C   UNL     1      -1.118   1.111   7.126  0.00  0.00    +0.004 A 
ATOM     14  C   UNL     1      -0.010   1.323   7.923  0.00  0.00    +0.045 A 
ATOM     15  C   UNL     1       1.031   0.405   7.920  0.00  0.00    +0.118 A 
BRANCH  15  16
ATOM     16  O   UNL     1       2.120   0.608   8.707  0.00  0.00    -0.507 OA
ATOM     17  H   UNL     1       2.824   1.116   8.282  0.00  0.00    +0.292 HD
ENDBRANCH  15  16
ENDBRANCH   6  10
ENDBRANCH   1   2
BRANCH   1  21
ATOM     18  C   UNL     1       4.260  -1.313   1.301  0.00  0.00    -0.043 A 
ATOM     19  C   UNL     1       4.430  -2.565   1.863  0.00  0.00    +0.004 A 
ATOM     20  C   UNL     1       4.815  -2.682   3.186  0.00  0.00    +0.005 A 
ATOM     21  C   UNL     1       5.031  -1.547   3.946  0.00  0.00    -0.029 A 
ATOM     22  C   UNL     1       4.862  -0.296   3.383  0.00  0.00    +0.005 A 
ATOM     23  C   UNL     1       4.481  -0.179   2.060  0.00  0.00    +0.004 A 
BRANCH  18  24
ATOM     24  C   UNL     1       3.840  -1.186  -0.141  0.00  0.00    +0.070 C 
BRANCH  24  28
ATOM     25  C   UNL     1       7.309  -1.064  -2.631  0.00  0.00    +0.000 A 
ATOM     26  C   UNL     1       6.720  -2.277  -2.324  0.00  0.00    +0.000 A 
ATOM     27  C   UNL     1       5.598  -2.316  -1.518  0.00  0.00    +0.004 A 
ATOM     28  C   UNL     1       5.065  -1.143  -1.018  0.00  0.00    -0.043 A 
ATOM     29  C   UNL     1       5.654   0.070  -1.324  0.00  0.00    +0.004 A 
ATOM     30  C   UNL     1       6.776   0.109  -2.131  0.00  0.00    +0.000 A 
ENDBRANCH  24  28
ENDBRANCH  18  24
ENDBRANCH   1  21
BRANCH   1  31
ATOM     31  C   UNL     1       6.616  -2.659   5.495  0.00  0.00    +0.129 C 
BRANCH  31  32
ATOM     32  N   UNL     1       6.946  -2.874   6.906  0.00  0.00    -0.188 NA
ATOM     33  H   UNL     1       6.603  -2.269   7.582  0.00  0.00    +0.148 HD
BRANCH  32  34
ATOM     34  S   UNL     1       7.902  -4.152   7.347  0.00  0.00    +0.058 S 
ATOM     35  O   UNL     1       8.058  -4.075   8.758  0.00  0.00    -0.153 OA
ATOM     36  O   UNL     1       7.369  -5.301   6.702  0.00  0.00    -0.153 OA
BRANCH  34  37
ATOM     37  C   UNL     1       9.496  -3.876   6.649  0.00  0.00    +0.105 A 
ATOM     38  C   UNL     1       9.788  -4.352   5.384  0.00  0.00    +0.028 A 
ATOM     39  C   UNL     1      11.038  -4.135   4.836  0.00  0.00    +0.002 A 
ATOM     40  C   UNL     1      11.996  -3.442   5.552  0.00  0.00    +0.000 A 
ATOM     41  C   UNL     1      11.704  -2.966   6.816  0.00  0.00    +0.002 A 
ATOM     42  C   UNL     1      10.452  -3.179   7.363  0.00  0.00    +0.028 A 
ENDBRANCH  34  37
ENDBRANCH  32  34
ENDBRANCH  31  32
ENDBRANCH   1  31
TORSDOF 10
