REMARK  Name = ZINC39609560
REMARK  8 active torsions:
REMARK  status: ('A' for Active; 'I' for Inactive)
REMARK    1  A    between atoms: C_1  and  C_2
REMARK    2  A    between atoms: C_2  and  O_3
REMARK    3  A    between atoms: O_3  and  C_4
REMARK    4  A    between atoms: C_8  and  C_10
REMARK    5  A    between atoms: C_10  and  C_11
REMARK    6  A    between atoms: C_11  and  N_12
REMARK    7  A    between atoms: C_13  and  C_15
REMARK    8  A    between atoms: C_26  and  C_28
REMARK                            x       y       z     vdW  Elec       q    Type
REMARK                         _______ _______ _______ _____ _____    ______ ____
ROOT
ATOM      1  C   UNL     1      -8.094  -5.900   2.671  0.00  0.00    +0.100 C 
ATOM      2  C   UNL     1      -9.154  -4.933   2.097  0.00  0.00    +0.121 C 
ATOM      3  N   UNL     1     -10.359  -5.161   2.928  0.00  0.00    -0.297 N 
ATOM      4  C   UNL     1      -9.831  -5.336   4.302  0.00  0.00    +0.115 C 
ATOM      5  C   UNL     1      -8.542  -6.162   4.118  0.00  0.00    -0.004 C 
ATOM      6  C   UNL     1      -8.832  -7.646   4.321  0.00  0.00    -0.010 C 
ATOM      7  C   UNL     1      -9.221  -7.890   5.782  0.00  0.00    -0.082 C 
ATOM      8  N   UNL     1      -8.125  -7.460   6.660  0.00  0.00    +0.379 N 
ATOM      9  C   UNL     1      -7.914  -6.014   6.526  0.00  0.00    -0.082 C 
ATOM     10  C   UNL     1      -7.471  -5.691   5.097  0.00  0.00    -0.010 C 
ATOM     11  C   UNL     1     -11.645  -5.201   2.526  0.00  0.00    +0.260 C 
ATOM     12  O   UNL     1     -11.914  -5.129   1.345  0.00  0.00    -0.271 OA
ATOM     13  H   UNL     1      -8.358  -7.678   7.617  0.00  0.00    -0.086 HD
ATOM     14  H   UNL     1      -7.279  -7.948   6.403  0.00  0.00    -0.086 HD
ENDROOT
BRANCH  11  15
ATOM     15  C   UNL     1     -12.749  -5.333   3.543  0.00  0.00    +0.296 C 
ATOM     16  C   UNL     1     -12.827  -4.057   4.391  0.00  0.00    +0.283 C 
ATOM     17  O   UNL     1     -13.893  -4.211   5.335  0.00  0.00    -0.484 OA
ATOM     18  C   UNL     1     -15.071  -4.694   4.855  0.00  0.00    +0.162 A 
ATOM     19  C   UNL     1     -16.228  -4.532   5.602  0.00  0.00    +0.049 A 
ATOM     20  C   UNL     1     -17.431  -5.020   5.128  0.00  0.00    +0.004 A 
ATOM     21  C   UNL     1     -17.485  -5.670   3.909  0.00  0.00    +0.004 A 
ATOM     22  C   UNL     1     -16.336  -5.833   3.160  0.00  0.00    +0.049 A 
ATOM     23  C   UNL     1     -15.125  -5.345   3.628  0.00  0.00    +0.163 A 
ATOM     24  O   UNL     1     -14.003  -5.507   2.875  0.00  0.00    -0.473 OA
ENDBRANCH  11  15
BRANCH   1  26
ATOM     25  N   UNL     1      -5.624  -6.024   2.672  0.00  0.00    -0.315 N 
ATOM     26  C   UNL     1      -6.732  -5.257   2.651  0.00  0.00    +0.218 C 
ATOM     27  O   UNL     1      -6.632  -4.049   2.616  0.00  0.00    -0.275 OA
ATOM     28  H   UNL     1      -5.704  -6.991   2.699  0.00  0.00    +0.149 HD
BRANCH  25  29
ATOM     29  C   UNL     1      -4.299  -5.399   2.653  0.00  0.00    +0.109 C 
BRANCH  29  30
ATOM     30  C   UNL     1      -3.222  -6.486   2.683  0.00  0.00    +0.054 C 
BRANCH  30  35
ATOM     31  C   UNL     1       0.018  -4.990   1.440  0.00  0.00    +0.121 A 
ATOM     32  C   UNL     1       0.644  -4.662   2.634  0.00  0.00    +0.045 A 
ATOM     33  C   UNL     1       0.017  -4.924   3.836  0.00  0.00    +0.004 A 
ATOM     34  C   UNL     1      -1.234  -5.514   3.851  0.00  0.00    +0.004 A 
ATOM     35  C   UNL     1      -1.859  -5.843   2.663  0.00  0.00    -0.042 A 
ATOM     36  C   UNL     1      -1.239  -5.577   1.457  0.00  0.00    +0.049 A 
BRANCH  31  37
ATOM     37  O   UNL     1       0.633  -4.733   0.256  0.00  0.00    -0.492 OA
BRANCH  37  39
ATOM     38  C   UNL     1       2.454  -3.916  -1.106  0.00  0.00    +0.048 C 
ATOM     39  C   UNL     1       1.926  -4.127   0.314  0.00  0.00    +0.225 C 
ENDBRANCH  37  39
ENDBRANCH  31  37
ENDBRANCH  30  35
ENDBRANCH  29  30
ENDBRANCH  25  29
ENDBRANCH   1  26
TORSDOF 7
