REMARK  Name = ZINC40758412
REMARK  7 active torsions:
REMARK  status: ('A' for Active; 'I' for Inactive)
REMARK    1  A    between atoms: C_1  and  C_2
REMARK    2  A    between atoms: C_2  and  C_3
REMARK    3  A    between atoms: C_2  and  O_4
REMARK    4  A    between atoms: O_4  and  C_5
REMARK    5  A    between atoms: C_6  and  N_22
REMARK    6  A    between atoms: C_7  and  N_11
REMARK    7  A    between atoms: N_11  and  C_12
REMARK                            x       y       z     vdW  Elec       q    Type
REMARK                         _______ _______ _______ _____ _____    ______ ____
ROOT
ATOM      1  C   UNL     1      -1.567  -1.674  -0.624  0.00  0.00    +0.241 A 
ATOM      2  C   UNL     1      -2.847  -2.225  -0.658  0.00  0.00    +0.128 A 
ATOM      3  C   UNL     1      -3.016  -3.465  -1.280  0.00  0.00    +0.151 A 
ATOM      4  N   UNL     1      -1.956  -4.068  -1.812  0.00  0.00    -0.218 NA
ATOM      5  C   UNL     1      -0.763  -3.512  -1.758  0.00  0.00    +0.227 A 
ATOM      6  N   UNL     1      -0.563  -2.341  -1.186  0.00  0.00    -0.200 NA
ENDROOT
BRANCH   2   7
ATOM      7  N   UNL     1      -3.937  -1.553  -0.083  0.00  0.00    -0.351 N 
ATOM      8  H   UNL     1      -3.804  -0.693   0.346  0.00  0.00    +0.143 HD
ATOM      9  H   UNL     1      -4.822  -1.949  -0.114  0.00  0.00    +0.143 HD
ENDBRANCH   2   7
BRANCH   3  10
ATOM     10  N   UNL     1      -4.271  -4.059  -1.341  0.00  0.00    -0.296 N 
ATOM     11  H   UNL     1      -5.021  -3.657  -0.876  0.00  0.00    +0.154 HD
BRANCH  10  12
ATOM     12  C   UNL     1      -4.451  -5.234  -2.070  0.00  0.00    +0.059 A 
ATOM     13  C   UNL     1      -3.602  -5.544  -3.110  0.00  0.00    +0.025 A 
ATOM     14  C   UNL     1      -3.771  -6.712  -3.846  0.00  0.00    +0.003 A 
ATOM     15  C   UNL     1      -4.780  -7.581  -3.559  0.00  0.00    +0.010 A 
ATOM     16  C   UNL     1      -5.666  -7.302  -2.507  0.00  0.00    +0.002 A 
ATOM     17  C   UNL     1      -5.503  -6.119  -1.745  0.00  0.00    +0.092 A 
ATOM     18  N   UNL     1      -6.342  -5.853  -0.741  0.00  0.00    -0.253 NA
ATOM     19  C   UNL     1      -7.320  -6.670  -0.434  0.00  0.00    +0.111 A 
ATOM     20  C   UNL     1      -7.534  -7.854  -1.139  0.00  0.00    +0.020 A 
ATOM     21  C   UNL     1      -6.719  -8.180  -2.185  0.00  0.00    +0.011 A 
ENDBRANCH  10  12
ENDBRANCH   3  10
BRANCH   1  22
ATOM     22  O   UNL     1      -1.350  -0.473  -0.033  0.00  0.00    -0.472 OA
BRANCH  22  24
ATOM     23  C   UNL     1      -0.034   1.554  -0.061  0.00  0.00    +0.051 C 
ATOM     24  C   UNL     1      -0.010   0.024  -0.047  0.00  0.00    +0.169 C 
ATOM     25  C   UNL     1       0.728  -0.463   1.202  0.00  0.00    +0.051 C 
ENDBRANCH  22  24
ENDBRANCH   1  22
TORSDOF 5
