REMARK  Name = ZINC66381500
REMARK  8 active torsions:
REMARK  status: ('A' for Active; 'I' for Inactive)
REMARK    1  A    between atoms: C_1  and  C_2
REMARK    2  A    between atoms: C_2  and  C_3
REMARK    3  A    between atoms: C_3  and  C_5
REMARK    4  A    between atoms: C_3  and  N_8
REMARK    5  A    between atoms: C_5  and  C_6
REMARK    6  A    between atoms: C_5  and  C_7
REMARK    7  A    between atoms: C_14  and  C_17
REMARK    8  A    between atoms: C_17  and  N_18
REMARK                            x       y       z     vdW  Elec       q    Type
REMARK                         _______ _______ _______ _____ _____    ______ ____
ROOT
ATOM      1  N   UNL     1      -2.105  -0.148  -1.231  0.00  0.00    -0.296 N 
ATOM      2  C   UNL     1      -2.690   1.062  -1.334  0.00  0.00    +0.302 C 
ATOM      3  O   UNL     1      -2.740   1.797  -0.367  0.00  0.00    -0.253 OA
ATOM      4  N   UNL     1      -3.220   1.456  -2.508  0.00  0.00    -0.286 N 
ATOM      5  C   UNL     1      -3.272   0.536  -3.653  0.00  0.00    +0.109 C 
ATOM      6  C   UNL     1      -2.615   1.214  -4.860  0.00  0.00    +0.024 C 
ATOM      7  C   UNL     1      -3.287   2.566  -5.109  0.00  0.00    +0.006 C 
ATOM      8  C   UNL     1      -3.095   3.466  -3.887  0.00  0.00    +0.024 C 
ATOM      9  C   UNL     1      -3.762   2.813  -2.667  0.00  0.00    +0.109 C 
ATOM     10  H   UNL     1      -2.133  -0.765  -1.978  0.00  0.00    +0.151 HD
ENDROOT
BRANCH   1  11
ATOM     11  C   UNL     1      -1.427  -0.530   0.010  0.00  0.00    +0.077 C 
BRANCH  11  12
ATOM     12  C   UNL     1      -1.406  -2.056   0.131  0.00  0.00    +0.003 C 
ATOM     13  C   UNL     1      -0.697  -2.455   1.427  0.00  0.00    +0.009 C 
ATOM     14  C   UNL     1      -2.841  -2.585   0.150  0.00  0.00    +0.009 C 
ENDBRANCH  11  12
BRANCH  11  16
ATOM     15  C   UNL     1      -0.012   1.529  -0.004  0.00  0.00    +0.006 C 
ATOM     16  C   UNL     1       0.009  -0.001  -0.009  0.00  0.00    +0.019 C 
ENDBRANCH  11  16
ENDBRANCH   1  11
BRANCH   7  17
ATOM     17  C   UNL     1      -2.657   3.229  -6.335  0.00  0.00    +0.088 C 
BRANCH  17  18
ATOM     18  N   UNL     1      -3.380   4.470  -6.647  0.00  0.00    -0.298 NA
ATOM     19  C   UNL     1      -4.755   4.183  -7.080  0.00  0.00    +0.112 C 
ATOM     20  C   UNL     1      -5.489   5.502  -7.336  0.00  0.00    +0.175 C 
ATOM     21  O   UNL     1      -4.764   6.265  -8.304  0.00  0.00    -0.377 OA
ATOM     22  C   UNL     1      -3.421   6.563  -7.914  0.00  0.00    +0.175 C 
ATOM     23  C   UNL     1      -2.666   5.255  -7.664  0.00  0.00    +0.112 C 
ENDBRANCH  17  18
ENDBRANCH   7  17
TORSDOF 5
