REMARK  Name = ZINC45545597
REMARK  8 active torsions:
REMARK  status: ('A' for Active; 'I' for Inactive)
REMARK    1  A    between atoms: C_1  and  C_2
REMARK    2  A    between atoms: C_9  and  C_11
REMARK    3  A    between atoms: N_13  and  N_14
REMARK    4  A    between atoms: N_17  and  C_18
REMARK    5  A    between atoms: C_20  and  C_26
REMARK    6  A    between atoms: C_20  and  C_27
REMARK    7  A    between atoms: C_22  and  C_24
REMARK    8  A    between atoms: C_22  and  C_25
REMARK                            x       y       z     vdW  Elec       q    Type
REMARK                         _______ _______ _______ _____ _____    ______ ____
ROOT
ATOM      1  N   UNL     1       2.516  -7.708   3.141  0.00  0.00    -0.218 N 
ATOM      2  C   UNL     1       2.155  -8.994   2.965  0.00  0.00    +0.316 C 
ATOM      3  O   UNL     1       2.805  -9.884   3.477  0.00  0.00    -0.251 OA
ATOM      4  N   UNL     1       1.072  -9.294   2.220  0.00  0.00    -0.295 N 
ATOM      5  H   UNL     1       3.295  -7.492   3.676  0.00  0.00    +0.174 HD
ATOM      6  H   UNL     1       0.553  -8.584   1.811  0.00  0.00    +0.151 HD
ENDROOT
BRANCH   4   7
ATOM      7  C   UNL     1       0.678 -10.696   2.028  0.00  0.00    +0.072 C 
ATOM      8  C   UNL     1       1.437 -11.271   0.831  0.00  0.00    +0.009 C 
ATOM      9  C   UNL     1       1.028 -12.727   0.610  0.00  0.00    -0.072 C 
ATOM     10  N   UNL     1      -0.413 -12.879   0.483  0.00  0.00    +0.386 N 
ATOM     11  C   UNL     1      -1.253 -12.199   1.456  0.00  0.00    -0.072 C 
ATOM     12  C   UNL     1      -0.818 -10.762   1.725  0.00  0.00    +0.009 C 
ATOM     13  C   UNL     1      -1.336 -12.975   2.773  0.00  0.00    -0.010 C 
ATOM     14  C   UNL     1      -2.686 -12.143   0.875  0.00  0.00    -0.010 C 
ATOM     15  C   UNL     1       1.605 -13.611   1.716  0.00  0.00    -0.010 C 
ATOM     16  C   UNL     1       1.666 -13.185  -0.722  0.00  0.00    -0.010 C 
ATOM     17  H   UNL     1      -0.687 -12.567  -0.452  0.00  0.00    -0.084 HD
ATOM     18  H   UNL     1      -0.635 -13.878   0.508  0.00  0.00    -0.084 HD
ENDBRANCH   4   7
BRANCH   1  21
ATOM     19  C   UNL     1       2.127  -5.396   2.726  0.00  0.00    +0.267 C 
ATOM     20  O   UNL     1       3.105  -5.125   3.398  0.00  0.00    -0.268 OA
ATOM     21  N   UNL     1       1.766  -6.682   2.550  0.00  0.00    -0.229 N 
ATOM     22  H   UNL     1       0.987  -6.898   2.014  0.00  0.00    +0.173 HD
BRANCH  19  30
ATOM     23  C   UNL     1      -0.162   1.411   0.337  0.00  0.00    +0.008 C 
ATOM     24  C   UNL     1      -0.099  -0.116   0.272  0.00  0.00    -0.009 C 
ATOM     25  C   UNL     1      -1.518  -0.688   0.339  0.00  0.00    +0.009 C 
ATOM     26  C   UNL     1      -1.464  -2.184   0.003  0.00  0.00    +0.043 C 
ATOM     27  C   UNL     1      -0.368  -2.813   0.812  0.00  0.00    -0.006 A 
ATOM     28  C   UNL     1       0.632  -2.164   1.476  0.00  0.00    -0.036 A 
ATOM     29  C   UNL     1       1.539  -2.955   2.163  0.00  0.00    +0.024 A 
ATOM     30  C   UNL     1       1.342  -4.323   2.108  0.00  0.00    +0.076 A 
ATOM     31  S   UNL     1      -0.115  -4.441   1.088  0.00  0.00    -0.088 S 
ATOM     32  C   UNL     1       0.726  -0.641   1.448  0.00  0.00    +0.039 C 
ENDBRANCH  19  30
ENDBRANCH   1  21
TORSDOF 3
