REMARK  Name = ZINC13066542
REMARK  14 active torsions:
REMARK  status: ('A' for Active; 'I' for Inactive)
REMARK    1  A    between atoms: C_1  and  C_2
REMARK    2  A    between atoms: C_3  and  N_9
REMARK    3  A    between atoms: N_9  and  C_10
REMARK    4  A    between atoms: C_10  and  N_12
REMARK    5  A    between atoms: N_12  and  N_13
REMARK    6  A    between atoms: C_14  and  C_15
REMARK    7  A    between atoms: C_14  and  C_16
REMARK    8  A    between atoms: C_19  and  S_22
REMARK    9  A    between atoms: S_22  and  N_25
REMARK   10  A    between atoms: N_25  and  C_26
REMARK   11  A    between atoms: N_25  and  C_27
REMARK   12  A    between atoms: C_27  and  C_28
REMARK   13  A    between atoms: C_28  and  C_29
REMARK   14  A    between atoms: C_29  and  C_30
REMARK                            x       y       z     vdW  Elec       q    Type
REMARK                         _______ _______ _______ _____ _____    ______ ____
ROOT
ATOM      1  N   UNL     1       2.325   1.415   0.005  0.00  0.00    -0.185 NA
ATOM      2  C   UNL     1       3.422   2.109  -0.000  0.00  0.00    +0.063 C 
ATOM      3  C   UNL     1       3.398   3.553  -0.431  0.00  0.00    +0.068 C 
ENDROOT
BRANCH   2   4
ATOM      4  C   UNL     1       4.692   1.485   0.416  0.00  0.00    -0.002 A 
ATOM      5  C   UNL     1       5.875   2.227   0.406  0.00  0.00    +0.011 A 
ATOM      6  C   UNL     1       7.058   1.639   0.801  0.00  0.00    +0.029 A 
ATOM      7  C   UNL     1       7.077   0.313   1.196  0.00  0.00    +0.106 A 
ATOM      8  C   UNL     1       5.909  -0.430   1.203  0.00  0.00    +0.029 A 
ATOM      9  C   UNL     1       4.718   0.147   0.816  0.00  0.00    +0.011 A 
BRANCH   7  10
ATOM     10  S   UNL     1       8.594  -0.433   1.693  0.00  0.00    +0.061 S 
ATOM     11  O   UNL     1       9.445   0.622   2.119  0.00  0.00    -0.153 OA
ATOM     12  O   UNL     1       8.253  -1.524   2.537  0.00  0.00    -0.153 OA
BRANCH  10  13
ATOM     13  N   UNL     1       9.287  -1.082   0.337  0.00  0.00    -0.180 NA
ATOM     14  C   UNL     1      10.201  -0.276  -0.476  0.00  0.00    +0.131 C 
BRANCH  13  15
ATOM     15  C   UNL     1       8.987  -2.463  -0.051  0.00  0.00    +0.109 C 
BRANCH  15  16
ATOM     16  C   UNL     1       7.849  -2.470  -1.073  0.00  0.00    +0.028 C 
BRANCH  16  17
ATOM     17  C   UNL     1       7.536  -3.912  -1.478  0.00  0.00    +0.126 C 
BRANCH  17  18
ATOM     18  C   UNL     1       6.415  -3.918  -2.485  0.00  0.00    +0.356 C 
ATOM     19  O   UNL     1       5.918  -2.877  -2.843  0.00  0.00    -0.246 OA
ATOM     20  O   UNL     1       5.969  -5.082  -2.985  0.00  0.00    -0.246 OA
ENDBRANCH  17  18
ENDBRANCH  16  17
ENDBRANCH  15  16
ENDBRANCH  13  15
ENDBRANCH  10  13
ENDBRANCH   7  10
ENDBRANCH   2   4
BRANCH   1  21
ATOM     21  N   UNL     1       1.119   2.008  -0.390  0.00  0.00    -0.218 N 
ATOM     22  H   UNL     1       1.104   2.937  -0.667  0.00  0.00    +0.176 HD
BRANCH  21  23
ATOM     23  C   UNL     1      -0.020   1.287  -0.384  0.00  0.00    +0.154 C 
ATOM     24  S   UNL     1      -1.492   2.010  -0.873  0.00  0.00    -0.017 S 
BRANCH  23  25
ATOM     25  N   UNL     1       0.002  -0.004   0.002  0.00  0.00    -0.295 N 
ATOM     26  H   UNL     1       0.847  -0.437   0.201  0.00  0.00    +0.154 HD
BRANCH  25  29
ATOM     27  C   UNL     1      -0.095  -2.636  -1.076  0.00  0.00    +0.047 C 
ATOM     28  C   UNL     1      -1.285  -2.008  -0.397  0.00  0.00    -0.011 A 
ATOM     29  C   UNL     1      -1.194  -0.720   0.115  0.00  0.00    +0.037 A 
ATOM     30  C   UNL     1      -2.295  -0.143   0.735  0.00  0.00    +0.023 A 
ATOM     31  C   UNL     1      -3.475  -0.852   0.845  0.00  0.00    +0.003 A 
ATOM     32  C   UNL     1      -3.562  -2.136   0.339  0.00  0.00    +0.020 A 
ATOM     33  C   UNL     1      -2.467  -2.715  -0.279  0.00  0.00    +0.046 A 
ATOM     34 CL   UNL     1      -2.580  -4.327  -0.913  0.00  0.00    -0.083 Cl
ENDBRANCH  25  29
ENDBRANCH  23  25
ENDBRANCH  21  23
ENDBRANCH   1  21
TORSDOF 11
