REMARK  Name = ZINC54501679
REMARK  8 active torsions:
REMARK  status: ('A' for Active; 'I' for Inactive)
REMARK    1  A    between atoms: C_1  and  C_2
REMARK    2  A    between atoms: C_2  and  C_3
REMARK    3  A    between atoms: C_3  and  N_13
REMARK    4  A    between atoms: N_13  and  C_14
REMARK    5  A    between atoms: C_14  and  C_15
REMARK    6  A    between atoms: C_15  and  C_16
REMARK    7  A    between atoms: C_16  and  N_17
REMARK    8  A    between atoms: C_22  and  C_24
REMARK                            x       y       z     vdW  Elec       q    Type
REMARK                         _______ _______ _______ _____ _____    ______ ____
ROOT
ATOM      1  C   UNL     1       0.707  -0.490  -1.238  0.00  0.00    +0.021 C 
ATOM      2  C   UNL     1       2.074  -0.694  -1.260  0.00  0.00    +0.116 C 
ATOM      3  C   UNL     1       2.890  -0.577  -0.038  0.00  0.00    +0.256 C 
ATOM      4  O   UNL     1       2.378  -0.294   1.030  0.00  0.00    -0.270 OA
ATOM      5  N   UNL     1       4.218  -0.790  -0.134  0.00  0.00    -0.263 N 
ATOM      6  C   UNL     1       4.794  -1.101  -1.304  0.00  0.00    +0.143 C 
ATOM      7  S   UNL     1       6.487  -1.355  -1.331  0.00  0.00    -0.018 S 
ATOM      8  N   UNL     1       4.115  -1.225  -2.453  0.00  0.00    -0.263 N 
ATOM      9  C   UNL     1       2.780  -1.046  -2.506  0.00  0.00    +0.256 C 
ATOM     10  O   UNL     1       2.174  -1.166  -3.554  0.00  0.00    -0.270 OA
ATOM     11  H   UNL     1       4.769  -0.717   0.661  0.00  0.00    +0.157 HD
ATOM     12  H   UNL     1       4.595  -1.453  -3.265  0.00  0.00    +0.157 HD
ENDROOT
BRANCH   1  14
ATOM     13  C   UNL     1      -0.365  -1.163   0.894  0.00  0.00    +0.010 C 
ATOM     14  C   UNL     1       0.042   0.020   0.014  0.00  0.00    +0.048 C 
ENDBRANCH   1  14
BRANCH   1  15
ATOM     15  N   UNL     1      -0.030  -0.747  -2.337  0.00  0.00    -0.346 N 
ATOM     16  H   UNL     1       0.383  -1.154  -3.114  0.00  0.00    +0.146 HD
BRANCH  15  17
ATOM     17  C   UNL     1      -1.457  -0.413  -2.356  0.00  0.00    +0.099 C 
BRANCH  17  18
ATOM     18  C   UNL     1      -2.054  -0.804  -3.709  0.00  0.00    +0.000 C 
BRANCH  18  19
ATOM     19  C   UNL     1      -3.544  -0.455  -3.729  0.00  0.00    -0.077 C 
BRANCH  19  20
ATOM     20  N   UNL     1      -4.117  -0.831  -5.028  0.00  0.00    +0.381 N 
ATOM     21  C   UNL     1      -4.049  -2.289  -5.188  0.00  0.00    -0.078 C 
ATOM     22  C   UNL     1      -4.571  -2.678  -6.573  0.00  0.00    -0.019 C 
ATOM     23  C   UNL     1      -6.024  -2.215  -6.714  0.00  0.00    -0.003 C 
ATOM     24  C   UNL     1      -6.093  -0.705  -6.472  0.00  0.00    -0.016 C 
ATOM     25  C   UNL     1      -5.515  -0.388  -5.091  0.00  0.00    -0.072 C 
ATOM     26  C   UNL     1      -5.583   1.121  -4.844  0.00  0.00    -0.013 C 
ATOM     27  H   UNL     1      -3.592  -0.389  -5.767  0.00  0.00    -0.081 HD
ENDBRANCH  19  20
ENDBRANCH  18  19
ENDBRANCH  17  18
ENDBRANCH  15  17
ENDBRANCH   1  15
TORSDOF 6
