REMARK  Name = ZINC62318279
REMARK  6 active torsions:
REMARK  status: ('A' for Active; 'I' for Inactive)
REMARK    1  A    between atoms: C_1  and  C_2
REMARK    2  A    between atoms: C_4  and  C_9
REMARK    3  A    between atoms: C_11  and  C_15
REMARK    4  A    between atoms: N_17  and  C_18
REMARK    5  A    between atoms: C_18  and  C_19
REMARK    6  A    between atoms: C_19  and  N_20
REMARK                            x       y       z     vdW  Elec       q    Type
REMARK                         _______ _______ _______ _____ _____    ______ ____
ROOT
ATOM      1  C   UNL     1       0.051  -5.731  -4.701  0.00  0.00    +0.262 C 
ATOM      2  O   UNL     1       0.063  -6.761  -4.054  0.00  0.00    -0.269 OA
ATOM      3  N   UNL     1       0.048  -5.782  -6.048  0.00  0.00    -0.308 N 
ATOM      4  H   UNL     1       0.038  -4.960  -6.564  0.00  0.00    +0.149 HD
ENDROOT
BRANCH   1   7
ATOM      5  C   UNL     1       0.029  -2.818  -2.492  0.00  0.00    +0.093 A 
ATOM      6  C   UNL     1       0.042  -4.216  -2.648  0.00  0.00    +0.062 A 
ATOM      7  C   UNL     1       0.040  -4.430  -4.013  0.00  0.00    +0.121 A 
ATOM      8  N   UNL     1       0.026  -3.195  -4.599  0.00  0.00    -0.272 N 
ATOM      9  H   UNL     1       0.022  -3.032  -5.555  0.00  0.00    +0.189 HD
ATOM     10  N   UNL     1       0.015  -2.283  -3.695  0.00  0.00    -0.173 NA
BRANCH   5  14
ATOM     11  C   UNL     1      -0.018   1.503   0.010  0.00  0.00    +0.047 C 
ATOM     12  C   UNL     1       0.002  -0.004   0.002  0.00  0.00    -0.015 A 
ATOM     13  C   UNL     1       0.006  -0.687  -1.198  0.00  0.00    +0.016 A 
ATOM     14  C   UNL     1       0.025  -2.079  -1.204  0.00  0.00    +0.003 A 
ATOM     15  C   UNL     1       0.041  -2.778   0.002  0.00  0.00    +0.013 A 
ATOM     16  C   UNL     1       0.037  -2.088   1.196  0.00  0.00    +0.039 A 
ATOM     17  C   UNL     1       0.023  -0.702   1.198  0.00  0.00    +0.126 A 
ATOM     18  F   UNL     1       0.025  -0.030   2.370  0.00  0.00    -0.205 F 
ENDBRANCH   5  14
ENDBRANCH   1   7
BRANCH   3  19
ATOM     19  C   UNL     1       0.059  -7.077  -6.733  0.00  0.00    +0.126 C 
BRANCH  19  20
ATOM     20  C   UNL     1       0.052  -6.854  -8.246  0.00  0.00    +0.145 C 
BRANCH  20  21
ATOM     21  N   UNL     1       0.063  -8.149  -8.931  0.00  0.00    -0.291 N 
ATOM     22  C   UNL     1       1.199  -8.861  -9.310  0.00  0.00    +0.070 A 
ATOM     23  C   UNL     1       2.559  -8.619  -9.186  0.00  0.00    +0.028 A 
ATOM     24  C   UNL     1       3.467  -9.538  -9.674  0.00  0.00    +0.002 A 
ATOM     25  C   UNL     1       3.026 -10.698 -10.287  0.00  0.00    +0.002 A 
ATOM     26  C   UNL     1       1.673 -10.947 -10.415  0.00  0.00    +0.028 A 
ATOM     27  C   UNL     1       0.754 -10.031  -9.928  0.00  0.00    +0.067 A 
ATOM     28  N   UNL     1      -0.638  -9.994  -9.905  0.00  0.00    -0.306 N 
ATOM     29  H   UNL     1      -1.230 -10.674 -10.263  0.00  0.00    +0.170 HD
ATOM     30  C   UNL     1      -1.022  -8.856  -9.296  0.00  0.00    +0.328 A 
ATOM     31  O   UNL     1      -2.176  -8.517  -9.107  0.00  0.00    -0.247 OA
ENDBRANCH  20  21
ENDBRANCH  19  20
ENDBRANCH   3  19
TORSDOF 5
