REMARK  Name = ZINC64926403
REMARK  4 active torsions:
REMARK  status: ('A' for Active; 'I' for Inactive)
REMARK    1  A    between atoms: C_1  and  C_2
REMARK    2  A    between atoms: C_2  and  C_3
REMARK    3  A    between atoms: C_9  and  C_11
REMARK    4  A    between atoms: C_11  and  N_12
REMARK                            x       y       z     vdW  Elec       q    Type
REMARK                         _______ _______ _______ _____ _____    ______ ____
ROOT
ATOM      1  N   UNL     1       1.259  -4.763   5.294  0.00  0.00    -0.215 N 
ATOM      2  C   UNL     1       0.577  -4.379   6.402  0.00  0.00    +0.247 C 
ATOM      3  O   UNL     1       0.676  -3.310   6.941  0.00  0.00    -0.273 OA
ATOM      4  C   UNL     1      -0.298  -5.584   6.729  0.00  0.00    +0.113 C 
ATOM      5  C   UNL     1      -1.670  -5.369   6.069  0.00  0.00    +0.035 C 
ATOM      6  C   UNL     1      -2.752  -5.118   7.128  0.00  0.00    +0.003 C 
ATOM      7  C   UNL     1      -3.023  -3.630   7.324  0.00  0.00    +0.000 C 
ATOM      8  C   UNL     1      -1.897  -3.025   8.179  0.00  0.00    +0.000 C 
ATOM      9  C   UNL     1      -1.580  -3.969   9.338  0.00  0.00    +0.000 C 
ATOM     10  C   UNL     1      -0.244  -4.668   9.105  0.00  0.00    +0.003 C 
ATOM     11  C   UNL     1      -0.363  -5.889   8.206  0.00  0.00    +0.035 C 
ATOM     12  N   UNL     1       0.387  -6.680   6.015  0.00  0.00    -0.285 N 
ATOM     13  C   UNL     1       1.202  -6.089   5.123  0.00  0.00    +0.310 C 
ATOM     14  O   UNL     1       1.816  -6.689   4.264  0.00  0.00    -0.252 OA
ATOM     15  H   UNL     1       0.266  -7.629   6.163  0.00  0.00    +0.151 HD
ENDROOT
BRANCH   1  16
ATOM     16  C   UNL     1       1.986  -3.843   4.420  0.00  0.00    +0.213 C 
BRANCH  16  23
ATOM     17  C   UNL     1       0.742  -0.511   1.242  0.00  0.00    +0.135 C 
ATOM     18  C   UNL     1       0.661  -2.041   1.296  0.00  0.00    +0.139 C 
ATOM     19  N   UNL     1       1.532  -2.513   2.384  0.00  0.00    -0.296 N 
ATOM     20  C   UNL     1       2.917  -2.018   2.425  0.00  0.00    +0.136 C 
ATOM     21  C   UNL     1       2.888  -0.489   2.316  0.00  0.00    +0.179 C 
ATOM     22  O   UNL     1       2.114  -0.114   1.174  0.00  0.00    -0.373 OA
ATOM     23  C   UNL     1       1.075  -3.373   3.315  0.00  0.00    +0.234 C 
ATOM     24  O   UNL     1      -0.070  -3.770   3.264  0.00  0.00    -0.274 OA
BRANCH  17  26
ATOM     25  C   UNL     1      -0.019   1.526   0.010  0.00  0.00    +0.006 C 
ATOM     26  C   UNL     1       0.002  -0.004   0.002  0.00  0.00    +0.030 C 
ENDBRANCH  17  26
ENDBRANCH  16  23
ENDBRANCH   1  16
TORSDOF 3
