REMARK  Name = ZINC59316806
REMARK  6 active torsions:
REMARK  status: ('A' for Active; 'I' for Inactive)
REMARK    1  A    between atoms: C_1  and  C_2
REMARK    2  A    between atoms: C_2  and  C_4
REMARK    3  A    between atoms: C_2  and  O_19
REMARK    4  A    between atoms: N_6  and  C_7
REMARK    5  A    between atoms: C_12  and  N_13
REMARK    6  A    between atoms: O_19  and  C_20
REMARK                            x       y       z     vdW  Elec       q    Type
REMARK                         _______ _______ _______ _____ _____    ______ ____
ROOT
ATOM      1  C   UNL     1       1.065  -0.928   0.566  0.00  0.00    +0.258 C 
ATOM      2  O   UNL     1       0.535  -1.744   1.291  0.00  0.00    -0.271 OA
ATOM      3  N   UNL     1       2.334  -0.540   0.802  0.00  0.00    -0.281 N 
ATOM      4  H   UNL     1       2.729   0.172   0.276  0.00  0.00    +0.155 HD
ENDROOT
BRANCH   3   5
ATOM      5  C   UNL     1       3.082  -1.166   1.806  0.00  0.00    +0.061 A 
ATOM      6  C   UNL     1       2.494  -1.464   3.027  0.00  0.00    +0.045 A 
ATOM      7  C   UNL     1       3.235  -2.083   4.018  0.00  0.00    +0.043 A 
ATOM      8  C   UNL     1       4.563  -2.406   3.794  0.00  0.00    +0.022 A 
ATOM      9  C   UNL     1       5.154  -2.112   2.581  0.00  0.00    +0.031 A 
ATOM     10  C   UNL     1       4.417  -1.497   1.580  0.00  0.00    +0.087 A 
ATOM     11 CL   UNL     1       2.499  -2.455   5.545  0.00  0.00    -0.083 Cl
BRANCH  10  12
ATOM     12  N   UNL     1       5.015  -1.203   0.346  0.00  0.00    -0.238 N 
ATOM     13  C   UNL     1       6.299  -1.454   0.004  0.00  0.00    +0.114 A 
ATOM     14  C   UNL     1       6.478  -1.023  -1.267  0.00  0.00    +0.041 A 
ATOM     15  C   UNL     1       5.266  -0.489  -1.716  0.00  0.00    +0.135 A 
ATOM     16  N   UNL     1       4.387  -0.602  -0.752  0.00  0.00    -0.175 NA
ENDBRANCH  10  12
ENDBRANCH   3   5
BRANCH   1  18
ATOM     17  C   UNL     1       0.094   1.150  -0.376  0.00  0.00    +0.062 C 
ATOM     18  C   UNL     1       0.304  -0.349  -0.599  0.00  0.00    +0.256 C 
BRANCH  18  19
ATOM     19  O   UNL     1      -0.965  -0.996  -0.708  0.00  0.00    -0.478 OA
BRANCH  19  20
ATOM     20  C   UNL     1      -1.556  -0.993  -1.933  0.00  0.00    +0.140 A 
ATOM     21  C   UNL     1      -0.954  -0.330  -2.992  0.00  0.00    +0.047 A 
ATOM     22  C   UNL     1      -1.556  -0.329  -4.236  0.00  0.00    +0.004 A 
ATOM     23  C   UNL     1      -2.757  -0.987  -4.425  0.00  0.00    +0.002 A 
ATOM     24  C   UNL     1      -3.360  -1.649  -3.371  0.00  0.00    +0.023 A 
ATOM     25  C   UNL     1      -2.759  -1.658  -2.126  0.00  0.00    +0.083 A 
ATOM     26 CL   UNL     1      -3.511  -2.495  -0.804  0.00  0.00    -0.080 Cl
ENDBRANCH  19  20
ENDBRANCH  18  19
ENDBRANCH   1  18
TORSDOF 5
