REMARK  Name = ZINC67527902
REMARK  8 active torsions:
REMARK  status: ('A' for Active; 'I' for Inactive)
REMARK    1  A    between atoms: C_1  and  C_2
REMARK    2  A    between atoms: C_4  and  C_8
REMARK    3  A    between atoms: C_5  and  C_7
REMARK    4  A    between atoms: C_8  and  C_10
REMARK    5  A    between atoms: C_8  and  N_11
REMARK    6  A    between atoms: N_14  and  C_15
REMARK    7  A    between atoms: C_17  and  C_27
REMARK    8  A    between atoms: C_20  and  N_21
REMARK                            x       y       z     vdW  Elec       q    Type
REMARK                         _______ _______ _______ _____ _____    ______ ____
ROOT
ATOM      1  C   UNL     1      -5.563  -4.815   1.961  0.00  0.00    +0.057 A 
ATOM      2  C   UNL     1      -5.021  -6.081   2.073  0.00  0.00    +0.038 A 
ATOM      3  C   UNL     1      -5.803  -7.132   2.561  0.00  0.00    +0.038 A 
ATOM      4  C   UNL     1      -7.129  -6.899   2.934  0.00  0.00    +0.015 A 
ATOM      5  C   UNL     1      -7.666  -5.636   2.821  0.00  0.00    +0.026 A 
ATOM      6  C   UNL     1      -6.888  -4.588   2.341  0.00  0.00    +0.051 A 
ENDROOT
BRANCH   1  10
ATOM      7  N   UNL     1      -2.683  -2.848   1.008  0.00  0.00    -0.292 N 
ATOM      8  C   UNL     1      -3.440  -3.807   1.577  0.00  0.00    +0.304 C 
ATOM      9  O   UNL     1      -2.911  -4.716   2.187  0.00  0.00    -0.252 OA
ATOM     10  N   UNL     1      -4.782  -3.758   1.472  0.00  0.00    -0.268 N 
ATOM     11  H   UNL     1      -3.105  -2.123   0.521  0.00  0.00    +0.151 HD
ATOM     12  H   UNL     1      -5.209  -2.992   1.057  0.00  0.00    +0.156 HD
BRANCH   7  13
ATOM     13  C   UNL     1      -1.224  -2.901   1.123  0.00  0.00    +0.105 C 
ATOM     14  C   UNL     1      -0.658  -3.798   0.020  0.00  0.00    +0.033 C 
BRANCH  13  18
ATOM     15  C   UNL     1      -0.693   2.035  -0.021  0.00  0.00    +0.086 C 
ATOM     16  C   UNL     1      -0.440   0.635   0.478  0.00  0.00    +0.103 A 
ATOM     17  C   UNL     1      -1.299  -0.397   0.394  0.00  0.00    +0.050 A 
ATOM     18  C   UNL     1      -0.658  -1.512   0.981  0.00  0.00    +0.013 A 
ATOM     19  C   UNL     1       0.554  -1.094   1.389  0.00  0.00    +0.107 A 
ATOM     20  O   UNL     1       0.682   0.205   1.077  0.00  0.00    -0.465 OA
ATOM     21  C   UNL     1       1.593  -1.943   2.075  0.00  0.00    +0.086 C 
ENDBRANCH  13  18
ENDBRANCH   7  13
ENDBRANCH   1  10
BRANCH   6  22
ATOM     22  N   UNL     1      -7.433  -3.310   2.234  0.00  0.00    -0.328 N 
ATOM     23  C   UNL     1      -8.114  -2.888   1.002  0.00  0.00    +0.105 C 
ATOM     24  C   UNL     1      -9.510  -2.372   1.363  0.00  0.00    +0.019 C 
ATOM     25  C   UNL     1      -9.386  -1.273   2.421  0.00  0.00    +0.003 C 
ATOM     26  C   UNL     1      -8.743  -1.850   3.684  0.00  0.00    +0.019 C 
ATOM     27  C   UNL     1      -7.343  -2.362   3.352  0.00  0.00    +0.105 C 
ENDBRANCH   6  22
BRANCH   3  28
ATOM     28  C   UNL     1      -5.229  -8.486   2.682  0.00  0.00    +0.242 C 
ATOM     29  O   UNL     1      -4.074  -8.688   2.356  0.00  0.00    -0.270 OA
ATOM     30  N   UNL     1      -5.983  -9.498   3.152  0.00  0.00    -0.325 N 
ATOM     31  H   UNL     1      -6.904  -9.337   3.412  0.00  0.00    +0.145 HD
ATOM     32  H   UNL     1      -5.605 -10.388   3.232  0.00  0.00    +0.145 HD
ENDBRANCH   3  28
TORSDOF 5
