REMARK  Name = ZINC12555374
REMARK  6 active torsions:
REMARK  status: ('A' for Active; 'I' for Inactive)
REMARK    1  A    between atoms: C_1  and  C_2
REMARK    2  A    between atoms: C_5  and  O_8
REMARK    3  A    between atoms: O_8  and  C_9
REMARK    4  A    between atoms: C_9  and  C_11
REMARK    5  A    between atoms: C_9  and  C_12
REMARK    6  A    between atoms: C_22  and  N_26
REMARK                            x       y       z     vdW  Elec       q    Type
REMARK                         _______ _______ _______ _____ _____    ______ ____
ROOT
ATOM      1  C   UNL     1       0.027   4.349  -1.602  0.00  0.00    +0.256 C 
ATOM      2  O   UNL     1       1.211   4.592  -1.496  0.00  0.00    -0.272 OA
ATOM      3  N   UNL     1      -0.533   3.388  -0.842  0.00  0.00    -0.293 N 
ATOM      4  C   UNL     1       0.262   2.616   0.125  0.00  0.00    +0.113 C 
ATOM      5  C   UNL     1      -0.233   2.907   1.542  0.00  0.00    +0.056 C 
ATOM      6  C   UNL     1      -1.754   2.785   1.581  0.00  0.00    -0.022 A 
ATOM      7  C   UNL     1      -2.486   2.868   0.447  0.00  0.00    +0.013 A 
ATOM      8  S   UNL     1      -4.175   2.694   0.961  0.00  0.00    -0.072 S 
ATOM      9  C   UNL     1      -3.904   2.504   2.694  0.00  0.00    +0.114 A 
ATOM     10  C   UNL     1      -2.494   2.583   2.817  0.00  0.00    +0.051 A 
ATOM     11  C   UNL     1      -1.955   2.458   4.130  0.00  0.00    +0.128 A 
ATOM     12  N   UNL     1      -2.843   2.282   5.107  0.00  0.00    -0.220 NA
ATOM     13  C   UNL     1      -4.145   2.220   4.916  0.00  0.00    +0.224 A 
ATOM     14  N   UNL     1      -4.712   2.327   3.720  0.00  0.00    -0.228 NA
ATOM     15  C   UNL     1      -1.970   3.067  -0.947  0.00  0.00    +0.150 C 
ENDROOT
BRANCH  11  16
ATOM     16  N   UNL     1      -0.595   2.517   4.375  0.00  0.00    -0.343 N 
ATOM     17  H   UNL     1      -0.000   2.910   3.717  0.00  0.00    +0.144 HD
ATOM     18  H   UNL     1      -0.236   2.164   5.204  0.00  0.00    +0.144 HD
ENDBRANCH  11  16
BRANCH   1  19
ATOM     19  C   UNL     1      -0.816   5.121  -2.584  0.00  0.00    +0.256 C 
ATOM     20  C   UNL     1      -1.326   4.175  -3.672  0.00  0.00    +0.062 C 
BRANCH  19  21
ATOM     21  O   UNL     1      -0.028   6.153  -3.180  0.00  0.00    -0.480 OA
BRANCH  21  26
ATOM     22  C   UNL     1      -2.782  10.638  -5.186  0.00  0.00    +0.044 C 
ATOM     23  C   UNL     1      -2.045   9.438  -4.649  0.00  0.00    -0.050 A 
ATOM     24  C   UNL     1      -2.753   8.355  -4.162  0.00  0.00    +0.007 A 
ATOM     25  C   UNL     1      -2.080   7.253  -3.669  0.00  0.00    +0.046 A 
ATOM     26  C   UNL     1      -0.693   7.235  -3.664  0.00  0.00    +0.122 A 
ATOM     27  C   UNL     1       0.015   8.325  -4.149  0.00  0.00    +0.046 A 
ATOM     28  C   UNL     1      -0.663   9.422  -4.646  0.00  0.00    +0.007 A 
ENDBRANCH  21  26
ENDBRANCH  19  21
ENDBRANCH   1  19
TORSDOF 4
