REMARK  Name = ZINC50309538
REMARK  3 active torsions:
REMARK  status: ('A' for Active; 'I' for Inactive)
REMARK    1  A    between atoms: C_2  and  C_10
REMARK    2  A    between atoms: C_3  and  N_9
REMARK    3  A    between atoms: C_13  and  C_15
REMARK                            x       y       z     vdW  Elec       q    Type
REMARK                         _______ _______ _______ _____ _____    ______ ____
ROOT
ATOM      1  C   UNL     1       1.912   1.375  -0.987  0.00  0.00    +0.056 A 
ATOM      2  C   UNL     1       1.018   2.068  -0.169  0.00  0.00    +0.062 A 
ATOM      3  C   UNL     1       0.301   1.377   0.818  0.00  0.00    +0.040 A 
ATOM      4  C   UNL     1       0.486   0.011   0.974  0.00  0.00    +0.064 A 
ATOM      5  C   UNL     1       1.374  -0.666   0.158  0.00  0.00    +0.160 A 
ATOM      6  C   UNL     1       2.086   0.016  -0.821  0.00  0.00    +0.159 A 
ATOM      7  F   UNL     1       2.952  -0.654  -1.613  0.00  0.00    -0.202 F 
ATOM      8  F   UNL     1       1.551  -1.996   0.314  0.00  0.00    -0.202 F 
ENDROOT
BRANCH   2   9
ATOM      9  C   UNL     1       0.829   3.521  -0.342  0.00  0.00    +0.250 A 
ATOM     10  N   UNL     1       1.777   4.421  -0.468  0.00  0.00    -0.107 NA
ATOM     11  N   UNL     1       1.243   5.585  -0.600  0.00  0.00    -0.112 NA
ATOM     12  C   UNL     1      -0.055   5.475  -0.564  0.00  0.00    +0.221 A 
ATOM     13  O   UNL     1      -0.350   4.172  -0.407  0.00  0.00    -0.420 OA
BRANCH  12  14
ATOM     14  C   UNL     1      -1.046   6.604  -0.684  0.00  0.00    +0.077 C 
ATOM     15  C   UNL     1      -0.861   7.306  -2.030  0.00  0.00    +0.013 C 
ATOM     16  C   UNL     1      -1.867   8.451  -2.152  0.00  0.00    +0.001 C 
ATOM     17  C   UNL     1      -1.638   9.454  -1.019  0.00  0.00    +0.000 C 
ATOM     18  C   UNL     1      -1.824   8.752   0.328  0.00  0.00    +0.001 C 
ATOM     19  C   UNL     1      -0.817   7.606   0.450  0.00  0.00    +0.013 C 
ENDBRANCH  12  14
ENDBRANCH   2   9
BRANCH   3  20
ATOM     20  N   UNL     1      -0.594   2.060   1.640  0.00  0.00    -0.357 N 
ATOM     21  H   UNL     1      -0.655   3.027   1.592  0.00  0.00    +0.142 HD
ATOM     22  H   UNL     1      -1.155   1.568   2.260  0.00  0.00    +0.142 HD
ENDBRANCH   3  20
TORSDOF 3
