REMARK  Name = ZINC63508128
REMARK  14 active torsions:
REMARK  status: ('A' for Active; 'I' for Inactive)
REMARK    1  A    between atoms: C_1  and  C_2
REMARK    2  A    between atoms: C_2  and  N_3
REMARK    3  A    between atoms: N_3  and  C_4
REMARK    4  A    between atoms: N_3  and  C_13
REMARK    5  A    between atoms: C_4  and  C_5
REMARK    6  A    between atoms: C_8  and  O_11
REMARK    7  A    between atoms: O_11  and  C_12
REMARK    8  A    between atoms: C_13  and  C_14
REMARK    9  A    between atoms: C_14  and  C_16
REMARK   10  A    between atoms: C_17  and  N_29
REMARK   11  A    between atoms: N_18  and  C_25
REMARK   12  A    between atoms: C_25  and  C_26
REMARK   13  A    between atoms: C_26  and  C_27
REMARK   14  A    between atoms: C_26  and  C_28
REMARK                            x       y       z     vdW  Elec       q    Type
REMARK                         _______ _______ _______ _____ _____    ______ ____
ROOT
ATOM      1  C   UNL     1       0.389   1.627   2.545  0.00  0.00    +0.155 C 
ATOM      2  O   UNL     1       0.904   2.272   1.654  0.00  0.00    -0.294 OA
ENDROOT
BRANCH   1   3
ATOM      3  C   UNL     1      -0.540   2.239   3.413  0.00  0.00    +0.118 A 
ATOM      4  C   UNL     1      -0.968   3.561   3.201  0.00  0.00    +0.116 A 
ATOM      5  N   UNL     1      -1.869   4.111   4.068  0.00  0.00    -0.281 N 
ATOM      6  C   UNL     1      -2.347   3.415   5.111  0.00  0.00    +0.331 A 
ATOM      7  O   UNL     1      -3.147   3.949   5.854  0.00  0.00    -0.246 OA
ATOM      8  N   UNL     1      -1.975   2.149   5.364  0.00  0.00    -0.274 N 
ATOM      9  H   UNL     1      -2.348   1.685   6.129  0.00  0.00    +0.173 HD
ATOM     10  C   UNL     1      -1.095   1.514   4.563  0.00  0.00    +0.266 A 
ATOM     11  O   UNL     1      -0.764   0.365   4.792  0.00  0.00    -0.267 OA
BRANCH   4  12
ATOM     12  N   UNL     1      -0.492   4.282   2.150  0.00  0.00    -0.344 N 
ATOM     13  H   UNL     1      -0.068   3.830   1.404  0.00  0.00    +0.144 HD
ATOM     14  H   UNL     1      -0.578   5.248   2.146  0.00  0.00    +0.144 HD
ENDBRANCH   4  12
BRANCH   5  15
ATOM     15  C   UNL     1      -2.321   5.488   3.856  0.00  0.00    +0.131 C 
BRANCH  15  16
ATOM     16  C   UNL     1      -3.562   5.485   2.962  0.00  0.00    +0.003 C 
ATOM     17  C   UNL     1      -4.108   6.910   2.842  0.00  0.00    +0.009 C 
ATOM     18  C   UNL     1      -3.189   4.963   1.573  0.00  0.00    +0.009 C 
ENDBRANCH  15  16
ENDBRANCH   5  15
ENDBRANCH   1   3
BRANCH   1  19
ATOM     19  C   UNL     1       0.741   0.172   2.723  0.00  0.00    +0.003 C 
BRANCH  19  20
ATOM     20  N   UNL     1       1.833  -0.183   1.807  0.00  0.00    +0.387 N 
ATOM     21  H   UNL     1       1.586   0.090   0.868  0.00  0.00    -0.081 HD
BRANCH  20  23
ATOM     22  C   UNL     1       0.819  -2.358   1.320  0.00  0.00    -0.017 C 
ATOM     23  C   UNL     1       2.057  -1.634   1.852  0.00  0.00    -0.081 C 
ENDBRANCH  20  23
BRANCH  20  24
ATOM     24  C   UNL     1       3.060   0.515   2.214  0.00  0.00    -0.042 C 
BRANCH  24  25
ATOM     25  C   UNL     1       4.148   0.248   1.205  0.00  0.00    -0.064 A 
ATOM     26  C   UNL     1       4.984  -0.842   1.363  0.00  0.00    +0.005 A 
ATOM     27  C   UNL     1       5.982  -1.088   0.440  0.00  0.00    +0.046 A 
ATOM     28  C   UNL     1       6.144  -0.241  -0.647  0.00  0.00    +0.120 A 
ATOM     29  C   UNL     1       5.303   0.851  -0.804  0.00  0.00    +0.046 A 
ATOM     30  C   UNL     1       4.304   1.090   0.119  0.00  0.00    +0.005 A 
BRANCH  28  31
ATOM     31  O   UNL     1       7.125  -0.481  -1.556  0.00  0.00    -0.495 OA
ATOM     32  C   UNL     1       7.234   0.432  -2.649  0.00  0.00    +0.277 C 
ENDBRANCH  28  31
ENDBRANCH  24  25
ENDBRANCH  20  24
ENDBRANCH  19  20
ENDBRANCH   1  19
TORSDOF 10
