REMARK  Name = ZINC65259935
REMARK  4 active torsions:
REMARK  status: ('A' for Active; 'I' for Inactive)
REMARK    1  A    between atoms: C_4  and  C_7
REMARK    2  A    between atoms: C_7  and  N_8
REMARK    3  A    between atoms: N_26  and  C_27
REMARK    4  A    between atoms: C_27  and  C_28
REMARK                            x       y       z     vdW  Elec       q    Type
REMARK                         _______ _______ _______ _____ _____    ______ ____
ROOT
ATOM      1  N   UNL     1       4.155  -0.944   1.335  0.00  0.00    -0.371 N 
ATOM      2  C   UNL     1       5.268  -1.566   1.556  0.00  0.00    +0.098 C 
ATOM      3  N   UNL     1       6.073  -2.005   0.521  0.00  0.00    -0.301 N 
ATOM      4  C   UNL     1       6.722  -3.241   0.678  0.00  0.00    +0.053 A 
ATOM      5  C   UNL     1       7.329  -3.847  -0.411  0.00  0.00    +0.025 A 
ATOM      6  C   UNL     1       7.974  -5.060  -0.255  0.00  0.00    +0.002 A 
ATOM      7  C   UNL     1       8.017  -5.670   0.985  0.00  0.00    +0.002 A 
ATOM      8  C   UNL     1       7.411  -5.075   2.075  0.00  0.00    +0.025 A 
ATOM      9  C   UNL     1       6.757  -3.861   1.926  0.00  0.00    +0.049 A 
ATOM     10  N   UNL     1       6.124  -3.270   3.030  0.00  0.00    -0.329 N 
ATOM     11  C   UNL     1       5.759  -1.845   2.961  0.00  0.00    +0.102 C 
ATOM     12  C   UNL     1       4.648  -1.543   3.963  0.00  0.00    +0.036 C 
ATOM     13  C   UNL     1       5.135  -1.860   5.380  0.00  0.00    +0.022 C 
ATOM     14  C   UNL     1       6.345  -0.979   5.707  0.00  0.00    +0.109 C 
ATOM     15  N   UNL     1       7.365  -1.168   4.666  0.00  0.00    -0.283 N 
ATOM     16  C   UNL     1       6.981  -0.978   3.260  0.00  0.00    +0.142 C 
ATOM     17  C   UNL     1       8.627  -1.509   4.994  0.00  0.00    +0.303 C 
ATOM     18  O   UNL     1       9.437  -1.755   4.121  0.00  0.00    -0.253 OA
ATOM     19  N   UNL     1       8.991  -1.578   6.290  0.00  0.00    -0.292 N 
ATOM     20  H   UNL     1       3.611  -0.644   2.081  0.00  0.00    +0.161 HD
ATOM     21  H   UNL     1       5.931  -3.791   3.825  0.00  0.00    +0.147 HD
ATOM     22  H   UNL     1       8.329  -1.453   6.987  0.00  0.00    +0.151 HD
ATOM     23  H   UNL     1       6.186  -1.478  -0.286  0.00  0.00    +0.153 HD
ENDROOT
BRANCH   1  24
ATOM     24  C   UNL     1       3.715  -0.694  -0.040  0.00  0.00    +0.149 C 
BRANCH  24  28
ATOM     25  C   UNL     1      -0.015   1.386   0.012  0.00  0.00    +0.000 A 
ATOM     26  C   UNL     1       1.171   2.095   0.008  0.00  0.00    +0.000 A 
ATOM     27  C   UNL     1       2.379   1.422  -0.008  0.00  0.00    +0.005 A 
ATOM     28  C   UNL     1       2.399   0.040  -0.021  0.00  0.00    -0.028 A 
ATOM     29  C   UNL     1       1.212  -0.669  -0.016  0.00  0.00    +0.005 A 
ATOM     30  C   UNL     1       0.005   0.004  -0.001  0.00  0.00    +0.000 A 
ENDBRANCH  24  28
ENDBRANCH   1  24
BRANCH  19  31
ATOM     31  C   UNL     1      10.388  -1.841   6.645  0.00  0.00    +0.180 C 
BRANCH  31  32
ATOM     32  C   UNL     1      10.528  -1.868   8.145  0.00  0.00    +0.122 A 
ATOM     33  C   UNL     1      10.404  -2.955   8.928  0.00  0.00    +0.046 A 
ATOM     34  C   UNL     1      10.612  -2.527  10.259  0.00  0.00    +0.041 A 
ATOM     35  C   UNL     1      10.850  -1.204  10.211  0.00  0.00    +0.195 A 
ATOM     36  O   UNL     1      10.803  -0.811   8.927  0.00  0.00    -0.466 OA
ENDBRANCH  31  32
ENDBRANCH  19  31
TORSDOF 4
