REMARK  Name = ZINC38752410
REMARK  9 active torsions:
REMARK  status: ('A' for Active; 'I' for Inactive)
REMARK    1  A    between atoms: C_1  and  C_2
REMARK    2  A    between atoms: C_2  and  C_3
REMARK    3  A    between atoms: C_2  and  N_4
REMARK    4  A    between atoms: C_5  and  O_36
REMARK    5  A    between atoms: C_7  and  C_14
REMARK    6  A    between atoms: C_19  and  O_35
REMARK    7  A    between atoms: N_27  and  C_32
REMARK    8  A    between atoms: C_32  and  C_33
REMARK    9  A    between atoms: C_32  and  C_34
REMARK                            x       y       z     vdW  Elec       q    Type
REMARK                         _______ _______ _______ _____ _____    ______ ____
ROOT
ATOM      1  C   UNL     1      -3.272   0.145  -1.906  0.00  0.00    +0.059 C 
ATOM      2  C   UNL     1      -4.744   0.474  -1.951  0.00  0.00    +0.000 A 
ATOM      3  C   UNL     1      -5.534   0.108  -0.872  0.00  0.00    +0.011 A 
ATOM      4  C   UNL     1      -6.884   0.394  -0.865  0.00  0.00    +0.046 A 
ATOM      5  C   UNL     1      -7.459   1.052  -1.943  0.00  0.00    +0.120 A 
ATOM      6  C   UNL     1      -6.674   1.417  -3.023  0.00  0.00    +0.092 A 
ATOM      7  C   UNL     1      -5.314   1.126  -3.030  0.00  0.00    +0.137 A 
ATOM      8  O   UNL     1      -4.583   1.486  -4.121  0.00  0.00    -0.443 OA
ATOM      9  C   UNL     1      -3.243   1.379  -4.029  0.00  0.00    +0.202 C 
ATOM     10  N   UNL     1      -2.469   2.292  -4.526  0.00  0.00    -0.131 NA
ATOM     11  C   UNL     1      -1.132   2.233  -4.444  0.00  0.00    +0.335 C 
ATOM     12  O   UNL     1      -0.466   3.119  -4.947  0.00  0.00    -0.250 OA
ATOM     13  N   UNL     1      -0.509   1.219  -3.822  0.00  0.00    -0.221 N 
ATOM     14  C   UNL     1      -1.199   0.210  -3.269  0.00  0.00    +0.236 C 
ATOM     15  O   UNL     1      -0.598  -0.682  -2.710  0.00  0.00    -0.274 OA
ATOM     16  C   UNL     1      -2.699   0.159  -3.327  0.00  0.00    +0.167 C 
ENDROOT
BRANCH   1  19
ATOM     17  N   UNL     1      -3.864  -2.534  -3.216  0.00  0.00    -0.256 N 
ATOM     18  C   UNL     1      -4.157  -2.191  -1.823  0.00  0.00    +0.219 C 
ATOM     19  C   UNL     1      -3.080  -1.243  -1.292  0.00  0.00    +0.131 C 
ATOM     20  C   UNL     1      -1.721  -1.778  -1.669  0.00  0.00    +0.228 C 
ATOM     21  O   UNL     1      -0.779  -1.622  -0.920  0.00  0.00    -0.275 OA
ATOM     22  N   UNL     1      -1.553  -2.428  -2.835  0.00  0.00    -0.240 N 
ATOM     23  C   UNL     1      -2.599  -2.694  -3.636  0.00  0.00    +0.311 C 
ATOM     24  O   UNL     1      -2.394  -3.085  -4.769  0.00  0.00    -0.252 OA
ATOM     25  H   UNL     1      -0.664  -2.712  -3.100  0.00  0.00    +0.159 HD
BRANCH  17  27
ATOM     26  C   UNL     1      -4.778  -1.762  -5.349  0.00  0.00    +0.028 C 
ATOM     27  C   UNL     1      -4.967  -2.711  -4.164  0.00  0.00    +0.074 C 
ATOM     28  C   UNL     1      -4.982  -4.156  -4.666  0.00  0.00    +0.028 C 
ENDBRANCH  17  27
BRANCH  18  29
ATOM     29  O   UNL     1      -4.175  -3.382  -1.034  0.00  0.00    -0.373 OA
ATOM     30  H   UNL     1      -4.836  -4.030  -1.314  0.00  0.00    +0.212 HD
ENDBRANCH  18  29
ENDBRANCH   1  19
BRANCH  13  31
ATOM     31  C   UNL     1       0.954   1.216  -3.743  0.00  0.00    +0.080 C 
ATOM     32  C   UNL     1       1.540   1.210  -5.157  0.00  0.00    +0.028 C 
ATOM     33  C   UNL     1       1.428   2.466  -3.000  0.00  0.00    +0.028 C 
ENDBRANCH  13  31
BRANCH   5  34
ATOM     34  O   UNL     1      -8.787   1.338  -1.938  0.00  0.00    -0.507 OA
ATOM     35  H   UNL     1      -9.003   2.198  -1.551  0.00  0.00    +0.292 HD
ENDBRANCH   5  34
TORSDOF 5
