REMARK  Name = ZINC07045295
REMARK  5 active torsions:
REMARK  status: ('A' for Active; 'I' for Inactive)
REMARK    1  A    between atoms: C_1  and  C_2
REMARK    2  A    between atoms: C_15  and  C_17
REMARK    3  A    between atoms: C_17  and  O_18
REMARK    4  A    between atoms: O_18  and  C_19
REMARK    5  A    between atoms: C_19  and  C_21
REMARK                            x       y       z     vdW  Elec       q    Type
REMARK                         _______ _______ _______ _____ _____    ______ ____
ROOT
ATOM      1  C   UNL     1       9.732  -2.047   1.311  0.00  0.00    +0.029 C 
ATOM      2  C   UNL     1       9.246  -1.679  -0.093  0.00  0.00    +0.087 C 
ATOM      3  C   UNL     1      10.416  -1.767  -1.075  0.00  0.00    +0.118 C 
ATOM      4  C   UNL     1      10.076  -1.046  -2.352  0.00  0.00    +0.219 C 
ATOM      5  O   UNL     1       9.793  -1.681  -3.346  0.00  0.00    -0.275 OA
ATOM      6  N   UNL     1      10.083   0.305  -2.400  0.00  0.00    -0.284 N 
ATOM      7  C   UNL     1      10.321   1.058  -1.244  0.00  0.00    +0.055 A 
ATOM      8  C   UNL     1      11.243   2.091  -1.243  0.00  0.00    +0.025 A 
ATOM      9  C   UNL     1      11.437   2.839  -0.113  0.00  0.00    +0.002 A 
ATOM     10  C   UNL     1      10.712   2.565   1.032  0.00  0.00    +0.002 A 
ATOM     11  C   UNL     1       9.799   1.526   1.049  0.00  0.00    +0.025 A 
ATOM     12  C   UNL     1       9.608   0.758  -0.089  0.00  0.00    +0.058 A 
ATOM     13  N   UNL     1       8.710  -0.318  -0.081  0.00  0.00    -0.264 N 
ATOM     14  C   UNL     1       7.380  -0.103  -0.067  0.00  0.00    +0.258 C 
ATOM     15  O   UNL     1       6.614  -1.043  -0.065  0.00  0.00    -0.271 OA
ATOM     16  H   UNL     1       9.923   0.757  -3.243  0.00  0.00    +0.155 HD
ENDROOT
BRANCH  14  17
ATOM     17  C   UNL     1       6.844   1.306  -0.054  0.00  0.00    +0.328 C 
BRANCH  17  18
ATOM     18  O   UNL     1       5.392   1.271  -0.041  0.00  0.00    -0.450 OA
BRANCH  18  19
ATOM     19  C   UNL     1       4.752   2.458  -0.029  0.00  0.00    +0.375 C 
ATOM     20  O   UNL     1       5.390   3.493  -0.029  0.00  0.00    -0.241 OA
BRANCH  19  21
ATOM     21  C   UNL     1       3.284   2.500  -0.015  0.00  0.00    +0.213 A 
ATOM     22  C   UNL     1       2.534   3.633  -0.002  0.00  0.00    +0.065 A 
ATOM     23  C   UNL     1       1.139   3.196   0.008  0.00  0.00    +0.021 A 
ATOM     24  C   UNL     1      -0.090   3.860   0.024  0.00  0.00    +0.011 A 
ATOM     25  C   UNL     1      -1.249   3.138   0.032  0.00  0.00    +0.001 A 
ATOM     26  C   UNL     1      -1.214   1.750   0.017  0.00  0.00    +0.004 A 
ATOM     27  C   UNL     1      -0.013   1.076   0.008  0.00  0.00    +0.047 A 
ATOM     28  C   UNL     1       1.181   1.789   0.000  0.00  0.00    +0.136 A 
ATOM     29  O   UNL     1       2.476   1.419  -0.014  0.00  0.00    -0.448 OA
ENDBRANCH  19  21
ENDBRANCH  18  19
ENDBRANCH  17  18
ENDBRANCH  14  17
TORSDOF 4
