REMARK  Name = ZINC44171477
REMARK  9 active torsions:
REMARK  status: ('A' for Active; 'I' for Inactive)
REMARK    1  A    between atoms: C_1  and  C_2
REMARK    2  A    between atoms: C_2  and  C_4
REMARK    3  A    between atoms: C_9  and  O_15
REMARK    4  A    between atoms: O_15  and  C_16
REMARK    5  A    between atoms: C_18  and  O_31
REMARK    6  A    between atoms: C_20  and  C_29
REMARK    7  A    between atoms: C_23  and  O_28
REMARK    8  A    between atoms: C_25  and  O_27
REMARK    9  A    between atoms: C_29  and  O_30
REMARK                            x       y       z     vdW  Elec       q    Type
REMARK                         _______ _______ _______ _____ _____    ______ ____
ROOT
ATOM      1  O   UNL     1      -6.194  -4.683   0.045  0.00  0.00    -0.483 OA
ENDROOT
BRANCH   1   7
ATOM      2  C   UNL     1      -1.261  -0.745   0.088  0.00  0.00    +0.102 A 
ATOM      3  C   UNL     1      -1.273  -2.140   0.096  0.00  0.00    +0.030 A 
ATOM      4  C   UNL     1      -2.525  -2.795   0.050  0.00  0.00    +0.019 A 
ATOM      5  C   UNL     1      -2.610  -4.182   0.256  0.00  0.00    +0.015 A 
ATOM      6  C   UNL     1      -3.826  -4.796   0.251  0.00  0.00    +0.046 A 
ATOM      7  C   UNL     1      -4.990  -4.059   0.035  0.00  0.00    +0.125 A 
ATOM      8  C   UNL     1      -4.926  -2.692  -0.189  0.00  0.00    +0.092 A 
ATOM      9  C   UNL     1      -3.698  -2.052  -0.196  0.00  0.00    +0.143 A 
ATOM     10  O   UNL     1      -3.620  -0.725  -0.458  0.00  0.00    -0.422 OA
ATOM     11  C   UNL     1      -2.566  -0.057   0.073  0.00  0.00    +0.348 A 
ATOM     12  O   UNL     1      -2.690   1.069   0.516  0.00  0.00    -0.244 OA
BRANCH   2  14
ATOM     13  C   UNL     1      -0.028   1.512   0.100  0.00  0.00    +0.092 C 
ATOM     14  C   UNL     1      -0.005   0.006   0.102  0.00  0.00    +0.167 C 
ATOM     15  O   UNL     1       1.055  -0.585   0.115  0.00  0.00    -0.292 OA
ENDBRANCH   2  14
ENDBRANCH   1   7
BRANCH   1  16
ATOM     16  C   UNL     1      -6.185  -6.107   0.162  0.00  0.00    +0.238 C 
ATOM     17  C   UNL     1      -7.502  -6.579   0.787  0.00  0.00    +0.189 C 
ATOM     18  C   UNL     1      -7.516  -8.109   0.837  0.00  0.00    +0.179 C 
ATOM     19  O   UNL     1      -7.345  -8.628  -0.484  0.00  0.00    -0.341 OA
ATOM     20  C   UNL     1      -6.110  -8.259  -1.100  0.00  0.00    +0.280 C 
ATOM     21  C   UNL     1      -6.037  -6.735  -1.227  0.00  0.00    +0.213 C 
BRANCH  21  22
ATOM     22  O   UNL     1      -4.777  -6.360  -1.788  0.00  0.00    -0.383 OA
ATOM     23  H   UNL     1      -4.616  -6.723  -2.670  0.00  0.00    +0.210 HD
ENDBRANCH  21  22
BRANCH  20  24
ATOM     24  O   UNL     1      -6.030  -8.850  -2.399  0.00  0.00    -0.365 OA
ATOM     25  H   UNL     1      -6.069  -9.816  -2.394  0.00  0.00    +0.213 HD
ENDBRANCH  20  24
BRANCH  17  26
ATOM     26  O   UNL     1      -8.599  -6.115  -0.003  0.00  0.00    -0.385 OA
ATOM     27  H   UNL     1      -9.466  -6.377   0.335  0.00  0.00    +0.210 HD
ENDBRANCH  17  26
BRANCH  18  28
ATOM     28  C   UNL     1      -8.853  -8.589   1.405  0.00  0.00    +0.190 C 
BRANCH  28  29
ATOM     29  O   UNL     1      -8.822 -10.009   1.559  0.00  0.00    -0.392 OA
ATOM     30  H   UNL     1      -9.639 -10.383   1.916  0.00  0.00    +0.210 HD
ENDBRANCH  28  29
ENDBRANCH  18  28
ENDBRANCH   1  16
TORSDOF 8
