REMARK  Name = ZINC37064652
REMARK  5 active torsions:
REMARK  status: ('A' for Active; 'I' for Inactive)
REMARK    1  A    between atoms: C_1  and  C_2
REMARK    2  A    between atoms: C_5  and  N_9
REMARK    3  A    between atoms: C_6  and  N_8
REMARK    4  A    between atoms: N_9  and  S_10
REMARK    5  A    between atoms: S_10  and  C_13
REMARK                            x       y       z     vdW  Elec       q    Type
REMARK                         _______ _______ _______ _____ _____    ______ ____
ROOT
ATOM      1  S   UNL     1       0.062  -4.990  -1.475  0.00  0.00    +0.094 S 
ATOM      2  O   UNL     1      -1.190  -4.727  -2.093  0.00  0.00    -0.148 OA
ATOM      3  O   UNL     1       1.300  -4.694  -2.106  0.00  0.00    -0.148 OA
ENDROOT
BRANCH   1   4
ATOM      4  C   UNL     1       0.087  -6.712  -1.100  0.00  0.00    +0.138 A 
ATOM      5  C   UNL     1      -0.966  -7.492  -1.440  0.00  0.00    +0.031 A 
ATOM      6  C   UNL     1      -0.980  -8.859  -1.159  0.00  0.00    +0.004 A 
ATOM      7  C   UNL     1       0.057  -9.463  -0.534  0.00  0.00    +0.031 A 
ATOM      8  C   UNL     1       1.196  -8.706  -0.147  0.00  0.00    +0.102 A 
ATOM      9  C   UNL     1       1.214  -7.279  -0.446  0.00  0.00    +0.126 A 
ATOM     10  N   UNL     1       2.332  -6.673  -0.044  0.00  0.00    -0.189 NA
ATOM     11  S   UNL     1       3.233  -7.825   0.626  0.00  0.00    +0.117 S 
ATOM     12  N   UNL     1       2.300  -9.126   0.471  0.00  0.00    -0.191 NA
ENDBRANCH   1   4
BRANCH   1  13
ATOM     13  N   UNL     1       0.059  -4.175  -0.034  0.00  0.00    -0.096 NA
BRANCH  13  18
ATOM     14  C   UNL     1      -0.018   1.503   0.010  0.00  0.00    +0.044 C 
ATOM     15  C   UNL     1       0.002  -0.004   0.002  0.00  0.00    -0.049 A 
ATOM     16  C   UNL     1       0.006  -0.687  -1.200  0.00  0.00    +0.005 A 
ATOM     17  C   UNL     1       0.025  -2.069  -1.215  0.00  0.00    +0.029 A 
ATOM     18  C   UNL     1       0.040  -2.775  -0.021  0.00  0.00    +0.095 A 
ATOM     19  C   UNL     1       0.037  -2.086   1.192  0.00  0.00    +0.050 A 
ATOM     20  C   UNL     1       0.023  -0.700   1.197  0.00  0.00    +0.028 A 
BRANCH  19  21
ATOM     21  N   UNL     1       0.052  -2.793   2.400  0.00  0.00    -0.356 N 
ATOM     22  H   UNL     1       0.065  -3.763   2.395  0.00  0.00    +0.142 HD
ATOM     23  H   UNL     1       0.050  -2.313   3.243  0.00  0.00    +0.142 HD
ENDBRANCH  19  21
ENDBRANCH  13  18
ENDBRANCH   1  13
TORSDOF 4
