REMARK  Name = ZINC04625393
REMARK  7 active torsions:
REMARK  status: ('A' for Active; 'I' for Inactive)
REMARK    1  A    between atoms: C_1  and  C_2
REMARK    2  A    between atoms: C_2  and  C_4
REMARK    3  A    between atoms: C_8  and  C_20
REMARK    4  A    between atoms: C_9  and  C_19
REMARK    5  A    between atoms: N_10  and  C_14
REMARK    6  A    between atoms: C_14  and  C_15
REMARK    7  A    between atoms: C_15  and  C_16
REMARK                            x       y       z     vdW  Elec       q    Type
REMARK                         _______ _______ _______ _____ _____    ______ ____
ROOT
ATOM      1  C   UNL     1       1.569   3.683   1.964  0.00  0.00    +0.042 C 
ATOM      2  C   UNL     1       2.784   4.619   2.179  0.00  0.00    +0.014 C 
ATOM      3  C   UNL     1       3.497   4.607   0.789  0.00  0.00    +0.051 C 
ATOM      4  C   UNL     1       3.323   3.156   0.298  0.00  0.00    +0.134 C 
ATOM      5  C   UNL     1       2.107   2.564   1.050  0.00  0.00    +0.083 C 
ATOM      6  N   UNL     1       1.133   2.301  -0.019  0.00  0.00    -0.257 N 
ATOM      7  C   UNL     1       1.662   2.674  -1.192  0.00  0.00    +0.404 C 
ATOM      8  O   UNL     1       1.069   2.572  -2.248  0.00  0.00    -0.226 OA
ATOM      9  O   UNL     1       2.900   3.168  -1.095  0.00  0.00    -0.442 OA
ATOM     10  C   UNL     1       2.472   1.293   1.820  0.00  0.00    +0.036 C 
ATOM     11  C   UNL     1       4.593   2.327   0.505  0.00  0.00    +0.058 C 
ENDROOT
BRANCH   1  13
ATOM     12  C   UNL     1      -0.198   2.358   3.355  0.00  0.00    +0.039 C 
ATOM     13  C   UNL     1       1.105   3.111   3.279  0.00  0.00    -0.074 C 
ATOM     14  C   UNL     1       1.834   3.269   4.356  0.00  0.00    +0.008 C 
ENDBRANCH   1  13
BRANCH   6  15
ATOM     15  C   UNL     1      -0.203   1.730   0.169  0.00  0.00    +0.121 C 
BRANCH  15  16
ATOM     16  C   UNL     1      -0.126   0.206   0.058  0.00  0.00    +0.114 C 
BRANCH  16  17
ATOM     17  C   UNL     1      -1.500  -0.382   0.252  0.00  0.00    +0.212 C 
ATOM     18  O   UNL     1      -2.448   0.346   0.458  0.00  0.00    -0.276 OA
ATOM     19  N   UNL     1      -1.676  -1.717   0.196  0.00  0.00    -0.329 N 
ATOM     20  H   UNL     1      -0.918  -2.300   0.031  0.00  0.00    +0.145 HD
ATOM     21  H   UNL     1      -2.560  -2.095   0.320  0.00  0.00    +0.145 HD
ENDBRANCH  16  17
ENDBRANCH  15  16
ENDBRANCH   6  15
TORSDOF 4
