REMARK  Name = ZINC08971403
REMARK  12 active torsions:
REMARK  status: ('A' for Active; 'I' for Inactive)
REMARK    1  A    between atoms: C_1  and  C_2
REMARK    2  A    between atoms: C_2  and  N_66
REMARK    3  A    between atoms: C_15  and  C_17
REMARK    4  A    between atoms: C_18  and  O_37
REMARK    5  A    between atoms: C_20  and  O_36
REMARK    6  A    between atoms: N_21  and  C_24
REMARK    7  A    between atoms: C_24  and  C_25
REMARK    8  A    between atoms: C_25  and  C_26
REMARK    9  A    between atoms: C_29  and  O_34
REMARK   10  A    between atoms: C_30  and  O_32
REMARK   11  A    between atoms: O_32  and  C_33
REMARK   12  A    between atoms: O_34  and  C_35
REMARK                            x       y       z     vdW  Elec       q    Type
REMARK                         _______ _______ _______ _____ _____    ______ ____
ROOT
ATOM      1  C   UNL     1      -0.067   4.051   0.024  0.00  0.00    +0.071 A 
ATOM      2  C   UNL     1      -1.234   3.308   0.031  0.00  0.00    +0.224 A 
ATOM      3  N   UNL     1      -1.171   1.972   0.018  0.00  0.00    -0.161 NA
ATOM      4  C   UNL     1      -0.016   1.345   0.009  0.00  0.00    +0.302 A 
ATOM      5  N   UNL     1       1.159   2.025   0.002  0.00  0.00    -0.262 N 
ATOM      6  C   UNL     1       1.160   3.375   0.009  0.00  0.00    +0.262 A 
ATOM      7  O   UNL     1       2.211   3.995   0.002  0.00  0.00    -0.267 OA
ENDROOT
BRANCH   1  20
ATOM      8  C   UNL     1       0.844   7.531   1.076  0.00  0.00    -0.073 C 
ATOM      9  C   UNL     1       1.778   7.891  -0.087  0.00  0.00    +0.019 C 
ATOM     10  C   UNL     1       1.312   7.139  -1.309  0.00  0.00    -0.022 A 
ATOM     11  C   UNL     1       1.643   7.354  -2.700  0.00  0.00    +0.003 A 
ATOM     12  C   UNL     1       2.465   8.280  -3.350  0.00  0.00    +0.010 A 
ATOM     13  C   UNL     1       2.543   8.189  -4.718  0.00  0.00    +0.001 A 
ATOM     14  C   UNL     1       1.845   7.229  -5.433  0.00  0.00    +0.002 A 
ATOM     15  C   UNL     1       1.025   6.301  -4.816  0.00  0.00    +0.026 A 
ATOM     16  C   UNL     1       0.926   6.369  -3.428  0.00  0.00    +0.047 A 
ATOM     17  N   UNL     1       0.223   5.625  -2.523  0.00  0.00    -0.359 N 
ATOM     18  H   UNL     1      -0.357   4.880  -2.744  0.00  0.00    +0.166 HD
ATOM     19  C   UNL     1       0.459   6.090  -1.258  0.00  0.00    +0.011 A 
ATOM     20  C   UNL     1      -0.114   5.557   0.033  0.00  0.00    +0.021 C 
ATOM     21  N   UNL     1       0.723   6.057   1.149  0.00  0.00    +0.388 N 
ATOM     22  H   UNL     1       1.659   5.642   1.074  0.00  0.00    -0.080 HD
BRANCH  21  24
ATOM     23  C   UNL     1       1.115   5.997   3.562  0.00  0.00    -0.017 C 
ATOM     24  C   UNL     1       0.126   5.664   2.442  0.00  0.00    -0.081 C 
ENDBRANCH  21  24
ENDBRANCH   1  20
BRANCH   4  25
ATOM     25  O   UNL     1       0.002  -0.004   0.002  0.00  0.00    -0.479 OA
ATOM     26  H   UNL     1      -0.854  -0.455   0.008  0.00  0.00    +0.295 HD
ENDBRANCH   4  25
BRANCH   2  27
ATOM     27  O   UNL     1      -2.435   3.931   0.045  0.00  0.00    -0.492 OA
ATOM     28  H   UNL     1      -3.191   3.327   0.049  0.00  0.00    +0.294 HD
ENDBRANCH   2  27
BRANCH   5  29
ATOM     29  C   UNL     1       2.428   1.293  -0.014  0.00  0.00    +0.134 C 
BRANCH  29  30
ATOM     30  C   UNL     1       2.856   1.046  -1.462  0.00  0.00    +0.057 C 
BRANCH  30  31
ATOM     31  C   UNL     1       4.162   0.293  -1.478  0.00  0.00    -0.042 A 
ATOM     32  C   UNL     1       5.358   0.986  -1.491  0.00  0.00    +0.007 A 
ATOM     33  C   UNL     1       6.558   0.300  -1.500  0.00  0.00    +0.049 A 
ATOM     34  C   UNL     1       6.564  -1.086  -1.507  0.00  0.00    +0.161 A 
ATOM     35  C   UNL     1       5.360  -1.784  -1.499  0.00  0.00    +0.162 A 
ATOM     36  C   UNL     1       4.160  -1.090  -1.484  0.00  0.00    +0.053 A 
BRANCH  35  37
ATOM     37  O   UNL     1       5.360  -3.143  -1.506  0.00  0.00    -0.491 OA
ATOM     38  C   UNL     1       4.087  -3.793  -1.496  0.00  0.00    +0.277 C 
ENDBRANCH  35  37
BRANCH  34  39
ATOM     39  O   UNL     1       7.743  -1.762  -1.522  0.00  0.00    -0.491 OA
ATOM     40  C   UNL     1       8.939  -0.981  -1.529  0.00  0.00    +0.277 C 
ENDBRANCH  34  39
ENDBRANCH  30  31
ENDBRANCH  29  30
ENDBRANCH   5  29
TORSDOF 9
