REMARK  Name = ZINC48284575
REMARK  6 active torsions:
REMARK  status: ('A' for Active; 'I' for Inactive)
REMARK    1  A    between atoms: C_3  and  C_17
REMARK    2  A    between atoms: C_6  and  C_7
REMARK    3  A    between atoms: C_7  and  N_8
REMARK    4  A    between atoms: C_12  and  C_15
REMARK    5  A    between atoms: C_15  and  N_16
REMARK    6  A    between atoms: C_22  and  C_24
REMARK                            x       y       z     vdW  Elec       q    Type
REMARK                         _______ _______ _______ _____ _____    ______ ____
ROOT
ATOM      1  C   UNL     1      -0.017   1.379   0.010  0.00  0.00    +0.005 A 
ATOM      2  C   UNL     1       1.167   2.088   0.002  0.00  0.00    +0.012 A 
ATOM      3  C   UNL     1       2.385   1.407  -0.013  0.00  0.00    +0.017 A 
ATOM      4  C   UNL     1       2.397   0.011  -0.021  0.00  0.00    +0.012 A 
ATOM      5  C   UNL     1       1.206  -0.686  -0.013  0.00  0.00    +0.005 A 
ATOM      6  C   UNL     1       0.002  -0.004   0.002  0.00  0.00    -0.033 A 
ENDROOT
BRANCH   3   7
ATOM      7  C   UNL     1       3.656   2.160  -0.022  0.00  0.00    +0.141 A 
ATOM      8  N   UNL     1       4.836   1.476  -0.042  0.00  0.00    -0.307 N 
ATOM      9  C   UNL     1       6.007   2.147  -0.051  0.00  0.00    +0.252 A 
ATOM     10  O   UNL     1       7.068   1.546  -0.070  0.00  0.00    -0.268 OA
ATOM     11  C   UNL     1       5.981   3.554  -0.038  0.00  0.00    +0.098 A 
ATOM     12  C   UNL     1       4.754   4.196  -0.017  0.00  0.00    +0.079 A 
ATOM     13  N   UNL     1       3.626   3.474  -0.015  0.00  0.00    -0.229 NA
ATOM     14  H   UNL     1       4.833   0.506  -0.050  0.00  0.00    +0.170 HD
BRANCH  12  15
ATOM     15  C   UNL     1       4.690   5.678  -0.004  0.00  0.00    +0.003 A 
ATOM     16  C   UNL     1       5.857   6.448  -0.017  0.00  0.00    +0.030 A 
ATOM     17  C   UNL     1       5.751   7.824  -0.003  0.00  0.00    +0.111 A 
ATOM     18  N   UNL     1       4.571   8.412   0.022  0.00  0.00    -0.263 NA
ATOM     19  C   UNL     1       3.446   7.724   0.035  0.00  0.00    +0.111 A 
ATOM     20  C   UNL     1       3.461   6.343   0.017  0.00  0.00    +0.030 A 
ENDBRANCH  12  15
ENDBRANCH   3   7
BRANCH   6  21
ATOM     21  C   UNL     1      -1.295  -0.772   0.010  0.00  0.00    +0.119 C 
BRANCH  21  22
ATOM     22  N   UNL     1      -1.729  -1.014  -1.372  0.00  0.00    -0.298 NA
ATOM     23  C   UNL     1      -2.067   0.246  -2.046  0.00  0.00    +0.085 C 
ATOM     24  C   UNL     1      -2.374  -0.028  -3.520  0.00  0.00    +0.016 C 
ATOM     25  C   UNL     1      -3.544  -1.011  -3.618  0.00  0.00    +0.004 C 
ATOM     26  C   UNL     1      -3.185  -2.296  -2.868  0.00  0.00    -0.014 C 
ATOM     27  C   UNL     1      -2.854  -1.956  -1.413  0.00  0.00    +0.086 C 
BRANCH  26  28
ATOM     28  C   UNL     1      -4.371  -3.262  -2.911  0.00  0.00    -0.082 C 
BRANCH  28  29
ATOM     29  N   UNL     1      -4.614  -3.677  -4.299  0.00  0.00    +0.378 N 
ATOM     30  H   UNL     1      -4.820  -2.866  -4.862  0.00  0.00    -0.090 HD
ATOM     31  H   UNL     1      -3.792  -4.138  -4.660  0.00  0.00    -0.090 HD
ATOM     32  H   UNL     1      -5.396  -4.314  -4.327  0.00  0.00    -0.090 HD
ENDBRANCH  28  29
ENDBRANCH  26  28
ENDBRANCH  21  22
ENDBRANCH   6  21
TORSDOF 6
