REMARK  Name = ZINC12905185
REMARK  7 active torsions:
REMARK  status: ('A' for Active; 'I' for Inactive)
REMARK    1  A    between atoms: C_1  and  C_2
REMARK    2  A    between atoms: C_3  and  C_24
REMARK    3  A    between atoms: C_4  and  C_16
REMARK    4  A    between atoms: N_9  and  C_10
REMARK    5  A    between atoms: C_10  and  C_11
REMARK    6  A    between atoms: C_24  and  O_26
REMARK    7  A    between atoms: O_26  and  C_27
REMARK                            x       y       z     vdW  Elec       q    Type
REMARK                         _______ _______ _______ _____ _____    ______ ____
ROOT
ATOM      1  C   UNL     1       3.990   5.279  -3.337  0.00  0.00    +0.061 C 
ATOM      2  C   UNL     1       3.326   5.169  -1.989  0.00  0.00    +0.024 C 
ATOM      3  C   UNL     1       2.847   3.974  -1.579  0.00  0.00    +0.078 C 
ATOM      4  C   UNL     1       2.186   3.908  -0.217  0.00  0.00    +0.146 C 
ATOM      5  N   UNL     1       2.120   5.162   0.553  0.00  0.00    -0.288 N 
ATOM      6  C   UNL     1       2.644   6.277   0.010  0.00  0.00    +0.307 C 
ATOM      7  O   UNL     1       2.595   7.317   0.638  0.00  0.00    -0.252 OA
ATOM      8  N   UNL     1       3.218   6.279  -1.200  0.00  0.00    -0.254 N 
ATOM      9  H   UNL     1       1.709   5.184   1.431  0.00  0.00    +0.151 HD
ENDROOT
BRANCH   4  10
ATOM     10  C   UNL     1       0.779   3.405  -0.408  0.00  0.00    +0.013 A 
ATOM     11  C   UNL     1       0.449   2.117  -0.031  0.00  0.00    +0.011 A 
ATOM     12  C   UNL     1      -0.842   1.654  -0.206  0.00  0.00    +0.039 A 
ATOM     13  C   UNL     1      -1.807   2.482  -0.754  0.00  0.00    +0.126 A 
ATOM     14  C   UNL     1      -1.476   3.770  -1.136  0.00  0.00    +0.077 A 
ATOM     15  C   UNL     1      -0.183   4.233  -0.961  0.00  0.00    +0.131 A 
ATOM     16  F   UNL     1       0.140   5.492  -1.329  0.00  0.00    -0.205 F 
ATOM     17  F   UNL     1      -3.070   2.031  -0.919  0.00  0.00    -0.205 F 
ENDBRANCH   4  10
BRANCH   3  18
ATOM     18  C   UNL     1       2.959   2.824  -2.395  0.00  0.00    +0.339 C 
ATOM     19  O   UNL     1       3.482   2.903  -3.490  0.00  0.00    -0.245 OA
BRANCH  18  20
ATOM     20  O   UNL     1       2.486   1.638  -1.957  0.00  0.00    -0.465 OA
ATOM     21  C   UNL     1       2.633   0.518  -2.832  0.00  0.00    +0.280 C 
ENDBRANCH  18  20
ENDBRANCH   3  18
BRANCH   8  22
ATOM     22  C   UNL     1       3.759   7.542  -1.707  0.00  0.00    +0.157 C 
BRANCH  22  23
ATOM     23  C   UNL     1       2.732   8.214  -2.582  0.00  0.00    +0.008 A 
ATOM     24  C   UNL     1       1.760   9.093  -2.236  0.00  0.00    +0.013 A 
ATOM     25  C   UNL     1       0.924   9.588  -3.220  0.00  0.00    +0.008 A 
ATOM     26  C   UNL     1       1.094   9.172  -4.498  0.00  0.00    +0.045 A 
ATOM     27  S   UNL     1       2.475   8.052  -4.341  0.00  0.00    -0.100 S 
ENDBRANCH  22  23
ENDBRANCH   8  22
TORSDOF 5
