REMARK  Name = ZINC48837305
REMARK  4 active torsions:
REMARK  status: ('A' for Active; 'I' for Inactive)
REMARK    1  A    between atoms: C_4  and  CA_7
REMARK    2  A    between atoms: CA_7  and  C_9
REMARK    3  A    between atoms: CA_7  and  N_12
REMARK    4  A    between atoms: C_19  and  N_22
REMARK                            x       y       z     vdW  Elec       q    Type
REMARK                         _______ _______ _______ _____ _____    ______ ____
ROOT
ATOM      1  N   UNL     1       2.890  -1.926  -2.534  0.00  0.00    -0.286 N 
ATOM      2  C   UNL     1       2.989  -2.592  -3.702  0.00  0.00    +0.303 C 
ATOM      3  O   UNL     1       2.970  -1.982  -4.753  0.00  0.00    -0.253 OA
ATOM      4  N   UNL     1       3.109  -3.935  -3.704  0.00  0.00    -0.287 N 
ATOM      5  C   UNL     1       3.017  -4.696  -2.450  0.00  0.00    +0.109 C 
ATOM      6  C   UNL     1       4.260  -5.581  -2.319  0.00  0.00    +0.017 C 
ATOM      7  C   UNL     1       4.399  -6.448  -3.572  0.00  0.00    -0.013 C 
ATOM      8  C   UNL     1       4.574  -5.550  -4.799  0.00  0.00    -0.057 C 
ATOM      9  C   UNL     1       3.328  -4.665  -4.959  0.00  0.00    +0.093 C 
ATOM     10  H   UNL     1       2.832  -2.417  -1.700  0.00  0.00    +0.151 HD
ENDROOT
BRANCH   8  11
ATOM     11  N   UNL     1       4.739  -6.384  -5.997  0.00  0.00    +0.381 N 
ATOM     12  H   UNL     1       3.923  -6.964  -6.119  0.00  0.00    -0.090 HD
ATOM     13  H   UNL     1       4.854  -5.791  -6.806  0.00  0.00    -0.090 HD
ATOM     14  H   UNL     1       5.555  -6.968  -5.890  0.00  0.00    -0.090 HD
ENDBRANCH   8  11
BRANCH   1  15
ATOM     15  CA  UNL     1       2.872  -0.461  -2.526  0.00  0.00    +0.191 C 
BRANCH  15  19
ATOM     16  C   UNL     1      -0.013   1.529   0.011  0.00  0.00    +0.000 C 
ATOM     17  C   UNL     1       1.423   2.057   0.000  0.00  0.00    +0.000 C 
ATOM     18  C   UNL     1       2.138   1.563  -1.259  0.00  0.00    +0.006 C 
ATOM     19  C   UNL     1       2.157   0.033  -1.267  0.00  0.00    +0.020 C 
ATOM     20  C   UNL     1       0.721  -0.495  -1.256  0.00  0.00    +0.006 C 
ATOM     21  C   UNL     1       0.006  -0.001   0.003  0.00  0.00    +0.000 C 
ENDBRANCH  15  19
BRANCH  15  22
ATOM     22  C   UNL     1       4.287   0.059  -2.537  0.00  0.00    +0.376 C 
ATOM     23  O   UNL     1       5.179  -0.592  -2.022  0.00  0.00    -0.244 OA
ATOM     24  OXT UNL     1       4.538   1.130  -3.062  0.00  0.00    -0.244 OA
ENDBRANCH  15  22
ENDBRANCH   1  15
TORSDOF 4
