REMARK  Name = ZINC56159511
REMARK  12 active torsions:
REMARK  status: ('A' for Active; 'I' for Inactive)
REMARK    1  A    between atoms: C_1  and  C_2
REMARK    2  A    between atoms: C_2  and  N_3
REMARK    3  A    between atoms: N_3  and  C_4
REMARK    4  A    between atoms: C_4  and  C_5
REMARK    5  A    between atoms: N_8  and  C_9
REMARK    6  A    between atoms: C_12  and  C_15
REMARK    7  A    between atoms: C_15  and  C_17
REMARK    8  A    between atoms: C_15  and  N_18
REMARK    9  A    between atoms: N_18  and  C_19
REMARK   10  A    between atoms: C_19  and  C_21
REMARK   11  A    between atoms: C_19  and  C_22
REMARK   12  A    between atoms: N_27  and  C_28
REMARK                            x       y       z     vdW  Elec       q    Type
REMARK                         _______ _______ _______ _____ _____    ______ ____
ROOT
ATOM      1  C   UNL     1      -3.887  -1.364   2.435  0.00  0.00    +0.035 A 
ATOM      2  C   UNL     1      -3.216  -1.019   3.601  0.00  0.00    +0.023 A 
ATOM      3  C   UNL     1      -3.841  -1.165   4.824  0.00  0.00    +0.007 A 
ATOM      4  C   UNL     1      -5.132  -1.654   4.889  0.00  0.00    -0.031 A 
ATOM      5  C   UNL     1      -5.803  -1.999   3.730  0.00  0.00    +0.007 A 
ATOM      6  C   UNL     1      -5.186  -1.850   2.503  0.00  0.00    +0.023 A 
ENDROOT
BRANCH   1  10
ATOM      7  N   UNL     1      -3.355  -0.617  -1.060  0.00  0.00    -0.286 N 
ATOM      8  C   UNL     1      -3.975  -0.848   0.114  0.00  0.00    +0.306 C 
ATOM      9  O   UNL     1      -5.182  -0.725   0.199  0.00  0.00    -0.252 OA
ATOM     10  N   UNL     1      -3.258  -1.217   1.194  0.00  0.00    -0.269 N 
ATOM     11  H   UNL     1      -2.305  -1.381   1.111  0.00  0.00    +0.156 HD
BRANCH   7  13
ATOM     12  C   UNL     1      -4.573  -1.463  -3.004  0.00  0.00    +0.024 C 
ATOM     13  C   UNL     1      -4.134  -0.216  -2.234  0.00  0.00    +0.106 C 
ENDBRANCH   7  13
BRANCH   7  14
ATOM     14  C   UNL     1      -1.901  -0.766  -1.162  0.00  0.00    +0.106 C 
ATOM     15  C   UNL     1      -1.227   0.568  -0.836  0.00  0.00    +0.024 C 
ENDBRANCH   7  14
ENDBRANCH   1  10
BRANCH   4  16
ATOM     16  C   UNL     1      -5.810  -1.812   6.226  0.00  0.00    +0.081 C 
ATOM     17  C   UNL     1      -6.751  -0.629   6.463  0.00  0.00    +0.029 C 
BRANCH  16  18
ATOM     18  N   UNL     1      -6.582  -3.061   6.239  0.00  0.00    -0.299 NA
ATOM     19  H   UNL     1      -7.473  -2.941   5.781  0.00  0.00    +0.123 HD
BRANCH  18  20
ATOM     20  C   UNL     1      -6.758  -3.558   7.610  0.00  0.00    +0.138 C 
ATOM     21  C   UNL     1      -5.536  -4.385   8.014  0.00  0.00    +0.034 C 
BRANCH  20  22
ATOM     22  C   UNL     1      -7.992  -4.419   7.678  0.00  0.00    +0.237 C 
ATOM     23  O   UNL     1      -8.660  -4.601   6.683  0.00  0.00    -0.274 OA
ATOM     24  N   UNL     1      -8.354  -4.986   8.846  0.00  0.00    -0.239 N 
ATOM     25  C   UNL     1      -9.459  -5.757   8.907  0.00  0.00    +0.306 C 
ATOM     26  O   UNL     1     -10.128  -5.940   7.910  0.00  0.00    -0.252 OA
ATOM     27  N   UNL     1      -9.820  -6.324  10.075  0.00  0.00    -0.302 N 
ATOM     28  C   UNL     1     -11.021  -7.161  10.142  0.00  0.00    +0.129 C 
ATOM     29  H   UNL     1      -7.820  -4.840   9.643  0.00  0.00    +0.159 HD
ATOM     30  H   UNL     1      -9.286  -6.178  10.871  0.00  0.00    +0.150 HD
ENDBRANCH  20  22
ENDBRANCH  18  20
ENDBRANCH  16  18
ENDBRANCH   4  16
TORSDOF 7
