REMARK  Name = ZINC02725335
REMARK  6 active torsions:
REMARK  status: ('A' for Active; 'I' for Inactive)
REMARK    1  A    between atoms: C_1  and  C_2
REMARK    2  A    between atoms: C_2  and  O_3
REMARK    3  A    between atoms: O_3  and  C_4
REMARK    4  A    between atoms: C_9  and  N_10
REMARK    5  A    between atoms: N_13  and  C_14
REMARK    6  A    between atoms: C_14  and  C_24
REMARK                            x       y       z     vdW  Elec       q    Type
REMARK                         _______ _______ _______ _____ _____    ______ ____
ROOT
ATOM      1  N   UNL     1      -2.602   2.498  -3.988  0.00  0.00    -0.266 N 
ATOM      2  C   UNL     1      -2.430   2.497  -2.651  0.00  0.00    +0.310 C 
ATOM      3  O   UNL     1      -1.309   2.539  -2.182  0.00  0.00    -0.252 OA
ATOM      4  N   UNL     1      -3.501   2.450  -1.835  0.00  0.00    -0.220 N 
ATOM      5  H   UNL     1      -3.489   2.382  -4.363  0.00  0.00    +0.156 HD
ATOM      6  H   UNL     1      -4.396   2.417  -2.209  0.00  0.00    +0.158 HD
ENDROOT
BRANCH   4   7
ATOM      7  C   UNL     1      -3.315   2.449  -0.381  0.00  0.00    +0.436 C 
ATOM      8  O   UNL     1      -2.523   1.318   0.026  0.00  0.00    -0.426 OA
ATOM      9  C   UNL     1      -1.230   1.758   0.021  0.00  0.00    +0.169 A 
ATOM     10  C   UNL     1      -0.027   1.072   0.016  0.00  0.00    +0.051 A 
ATOM     11  C   UNL     1       1.167   1.768   0.005  0.00  0.00    +0.024 A 
ATOM     12  C   UNL     1       1.164   3.152   0.007  0.00  0.00    +0.045 A 
ATOM     13  C   UNL     1      -0.034   3.843   0.019  0.00  0.00    +0.069 A 
ATOM     14  C   UNL     1      -1.234   3.151   0.028  0.00  0.00    +0.170 A 
ATOM     15  O   UNL     1      -2.528   3.583   0.041  0.00  0.00    -0.426 OA
ATOM     16 CL   UNL     1       2.666   4.022  -0.006  0.00  0.00    -0.083 Cl
BRANCH   7  17
ATOM     17  C   UNL     1      -4.667   2.445   0.335  0.00  0.00    +0.490 C 
ATOM     18  F   UNL     1      -4.461   2.494   1.718  0.00  0.00    -0.162 F 
ATOM     19  F   UNL     1      -5.410   3.560  -0.065  0.00  0.00    -0.162 F 
ATOM     20  F   UNL     1      -5.364   1.277   0.008  0.00  0.00    -0.162 F 
ENDBRANCH   7  17
ENDBRANCH   4   7
BRANCH   1  26
ATOM     21  C   UNL     1      -1.535   2.169  -6.137  0.00  0.00    +0.142 A 
ATOM     22  C   UNL     1      -0.443   2.342  -6.972  0.00  0.00    +0.047 A 
ATOM     23  C   UNL     1       0.683   2.997  -6.511  0.00  0.00    +0.004 A 
ATOM     24  C   UNL     1       0.723   3.486  -5.218  0.00  0.00    +0.002 A 
ATOM     25  C   UNL     1      -0.364   3.322  -4.380  0.00  0.00    +0.027 A 
ATOM     26  C   UNL     1      -1.498   2.666  -4.836  0.00  0.00    +0.077 A 
BRANCH  21  27
ATOM     27  O   UNL     1      -2.642   1.520  -6.587  0.00  0.00    -0.490 OA
BRANCH  27  29
ATOM     28  C   UNL     1      -3.932   0.342  -8.257  0.00  0.00    +0.048 C 
ATOM     29  C   UNL     1      -2.609   1.038  -7.932  0.00  0.00    +0.226 C 
ENDBRANCH  27  29
ENDBRANCH  21  27
ENDBRANCH   1  26
TORSDOF 5
