REMARK  Name = ZINC20733253
REMARK  4 active torsions:
REMARK  status: ('A' for Active; 'I' for Inactive)
REMARK    1  A    between atoms: C_1  and  C_2
REMARK    2  A    between atoms: C_3  and  N_9
REMARK    3  A    between atoms: C_16  and  O_18
REMARK    4  A    between atoms: N_25  and  C_28
REMARK                            x       y       z     vdW  Elec       q    Type
REMARK                         _______ _______ _______ _____ _____    ______ ____
ROOT
ATOM      1  N   UNL     1      -0.161  -0.120  -2.480  0.00  0.00    -0.214 N 
ATOM      2  C   UNL     1      -0.348  -0.725  -3.675  0.00  0.00    +0.164 A 
ATOM      3  C   UNL     1      -0.369   0.277  -4.641  0.00  0.00    +0.036 A 
ATOM      4  C   UNL     1      -0.200   1.488  -3.998  0.00  0.00    +0.142 A 
ATOM      5  N   UNL     1      -0.082   1.264  -2.709  0.00  0.00    -0.173 NA
ATOM      6  C   UNL     1      -0.547  -0.049  -6.097  0.00  0.00    +0.112 C 
ATOM      7  C   UNL     1      -1.356  -1.341  -6.215  0.00  0.00    +0.121 C 
ATOM      8  C   UNL     1      -0.922  -2.354  -5.194  0.00  0.00    +0.191 C 
ATOM      9  N   UNL     1      -0.480  -2.039  -4.013  0.00  0.00    -0.197 NA
ATOM     10  C   UNL     1       0.769  -0.168  -6.794  0.00  0.00    -0.006 A 
ATOM     11  C   UNL     1       1.837  -1.017  -6.596  0.00  0.00    +0.007 A 
ATOM     12  C   UNL     1       2.933  -0.859  -7.438  0.00  0.00    +0.000 A 
ATOM     13  C   UNL     1       2.947   0.104  -8.426  0.00  0.00    +0.002 A 
ATOM     14  C   UNL     1       1.877   0.961  -8.631  0.00  0.00    +0.024 A 
ATOM     15  C   UNL     1       0.771   0.813  -7.794  0.00  0.00    +0.040 A 
ATOM     16  N   UNL     1      -0.418   1.521  -7.775  0.00  0.00    -0.273 N 
ATOM     17  C   UNL     1      -1.254   1.081  -6.810  0.00  0.00    +0.235 C 
ATOM     18  O   UNL     1      -2.360   1.512  -6.562  0.00  0.00    -0.274 OA
ATOM     19  C   UNL     1      -0.734   2.617  -8.694  0.00  0.00    +0.138 C 
ENDROOT
BRANCH   1  22
ATOM     20  C   UNL     1      -1.705   0.909  -0.322  0.00  0.00    +0.047 C 
ATOM     21  C   UNL     1      -0.806  -0.289  -0.157  0.00  0.00    -0.007 A 
ATOM     22  C   UNL     1      -0.069  -0.758  -1.237  0.00  0.00    +0.072 A 
ATOM     23  C   UNL     1       0.759  -1.862  -1.081  0.00  0.00    +0.028 A 
ATOM     24  C   UNL     1       0.847  -2.490   0.146  0.00  0.00    +0.004 A 
ATOM     25  C   UNL     1       0.113  -2.022   1.219  0.00  0.00    +0.020 A 
ATOM     26  C   UNL     1      -0.709  -0.918   1.069  0.00  0.00    +0.046 A 
ATOM     27 CL   UNL     1      -1.625  -0.328   2.421  0.00  0.00    -0.083 Cl
ENDBRANCH   1  22
BRANCH   8  28
ATOM     28  O   UNL     1      -0.996  -3.660  -5.520  0.00  0.00    -0.495 OA
ATOM     29  H   UNL     1      -0.702  -4.258  -4.819  0.00  0.00    +0.293 HD
ENDBRANCH   8  28
TORSDOF 2
