REMARK  Name = ZINC17177787
REMARK  4 active torsions:
REMARK  status: ('A' for Active; 'I' for Inactive)
REMARK    1  A    between atoms: C_5  and  C_7
REMARK    2  A    between atoms: C_7  and  S_8
REMARK    3  A    between atoms: S_8  and  C_9
REMARK    4  A    between atoms: C_20  and  C_22
REMARK                            x       y       z     vdW  Elec       q    Type
REMARK                         _______ _______ _______ _____ _____    ______ ____
ROOT
ATOM      1  C   UNL     1       1.189  -0.672  -0.013  0.00  0.00    +0.171 A 
ATOM      2  N   UNL     1       0.002  -0.004   0.002  0.00  0.00    -0.302 N 
ATOM      3  H   UNL     1      -0.832  -0.499   0.007  0.00  0.00    +0.171 HD
ATOM      4  C   UNL     1      -0.016   1.346   0.009  0.00  0.00    +0.258 A 
ATOM      5  O   UNL     1      -1.075   1.953   0.018  0.00  0.00    -0.267 OA
ATOM      6  C   UNL     1       1.202   2.035   0.002  0.00  0.00    +0.069 A 
ATOM      7  C   UNL     1       2.380   1.310  -0.011  0.00  0.00    +0.135 A 
ATOM      8  N   UNL     1       2.338  -0.027  -0.018  0.00  0.00    -0.208 NA
ATOM      9  N   UNL     1       3.592   1.973  -0.013  0.00  0.00    -0.302 N 
ATOM     10  C   UNL     1       3.672   3.280   0.381  0.00  0.00    +0.017 C 
ATOM     11  C   UNL     1       2.573   4.063   0.417  0.00  0.00    +0.024 C 
ATOM     12  C   UNL     1       1.223   3.535   0.003  0.00  0.00    +0.099 C 
ATOM     13  C   UNL     1       2.653   5.402   0.839  0.00  0.00    +0.162 C 
ATOM     14  O   UNL     1       1.646   6.082   0.854  0.00  0.00    -0.292 OA
ATOM     15  C   UNL     1       3.958   6.010   1.273  0.00  0.00    +0.080 C 
ATOM     16  C   UNL     1       4.859   4.907   1.837  0.00  0.00    +0.014 C 
ATOM     17  C   UNL     1       5.026   3.825   0.768  0.00  0.00    +0.051 C 
ATOM     18  H   UNL     1       4.394   1.506  -0.295  0.00  0.00    +0.153 HD
ENDROOT
BRANCH  12  19
ATOM     19  C   UNL     1       0.902   4.033  -1.382  0.00  0.00    +0.002 A 
ATOM     20  C   UNL     1      -0.141   4.793  -1.796  0.00  0.00    +0.012 A 
ATOM     21  C   UNL     1      -0.232   5.137  -3.132  0.00  0.00    +0.008 A 
ATOM     22  C   UNL     1       0.719   4.694  -3.990  0.00  0.00    +0.045 A 
ATOM     23  S   UNL     1       1.793   3.768  -2.907  0.00  0.00    -0.101 S 
ENDBRANCH  12  19
BRANCH   1  24
ATOM     24  S   UNL     1       1.189  -2.434  -0.025  0.00  0.00    -0.083 S 
BRANCH  24  25
ATOM     25  C   UNL     1       2.971  -2.749  -0.043  0.00  0.00    +0.115 C 
BRANCH  25  30
ATOM     26  C   UNL     1       3.569  -6.289   1.125  0.00  0.00    +0.000 A 
ATOM     27  C   UNL     1       3.672  -6.964  -0.077  0.00  0.00    +0.003 A 
ATOM     28  C   UNL     1       3.548  -6.276  -1.269  0.00  0.00    +0.038 A 
ATOM     29  C   UNL     1       3.321  -4.910  -1.259  0.00  0.00    +0.127 A 
ATOM     30  C   UNL     1       3.218  -4.235  -0.055  0.00  0.00    -0.002 A 
ATOM     31  C   UNL     1       3.348  -4.924   1.136  0.00  0.00    +0.007 A 
ATOM     32  F   UNL     1       3.200  -4.237  -2.424  0.00  0.00    -0.205 F 
ENDBRANCH  25  30
ENDBRANCH  24  25
ENDBRANCH   1  24
TORSDOF 4
