REMARK  Name = ZINC21874119
REMARK  8 active torsions:
REMARK  status: ('A' for Active; 'I' for Inactive)
REMARK    1  A    between atoms: C_1  and  C_2
REMARK    2  A    between atoms: C_2  and  C_25
REMARK    3  A    between atoms: C_7  and  C_9
REMARK    4  A    between atoms: N_11  and  C_12
REMARK    5  A    between atoms: C_12  and  C_13
REMARK    6  A    between atoms: C_13  and  C_14
REMARK    7  A    between atoms: N_23  and  C_24
REMARK    8  A    between atoms: N_27  and  C_28
REMARK                            x       y       z     vdW  Elec       q    Type
REMARK                         _______ _______ _______ _____ _____    ______ ____
ROOT
ATOM      1  C   UNL     1       5.450   2.166  -0.515  0.00  0.00    +0.044 C 
ATOM      2  C   UNL     1       3.953   1.960  -0.753  0.00  0.00    +0.130 C 
ATOM      3  C   UNL     1       3.509   0.689  -0.030  0.00  0.00    +0.179 C 
ATOM      4  N   UNL     1       2.043   0.628  -0.015  0.00  0.00    -0.256 N 
ATOM      5  C   UNL     1       1.283   1.781  -0.001  0.00  0.00    +0.124 A 
ATOM      6  C   UNL     1      -0.017   1.409   0.010  0.00  0.00    +0.067 A 
ATOM      7  C   UNL     1       0.002  -0.004   0.002  0.00  0.00    +0.148 A 
ATOM      8  N   UNL     1       1.269  -0.386  -0.013  0.00  0.00    -0.166 NA
ATOM      9  C   UNL     1       1.917   3.110   0.002  0.00  0.00    +0.265 C 
ATOM     10  O   UNL     1       1.289   4.120   0.259  0.00  0.00    -0.268 OA
ATOM     11  N   UNL     1       3.238   3.146  -0.298  0.00  0.00    -0.284 N 
ATOM     12  C   UNL     1       3.967   4.409  -0.160  0.00  0.00    +0.133 C 
ENDROOT
BRANCH   7  13
ATOM     13  C   UNL     1      -1.178  -0.893   0.008  0.00  0.00    +0.264 C 
ATOM     14  O   UNL     1      -2.297  -0.418   0.021  0.00  0.00    -0.268 OA
ATOM     15  N   UNL     1      -1.014  -2.231  -0.001  0.00  0.00    -0.310 N 
ATOM     16  H   UNL     1      -0.001  -2.661  -0.012  0.00  0.00    +0.149 HD
BRANCH  15  17
ATOM     17  C   UNL     1      -2.184  -3.113   0.005  0.00  0.00    +0.109 C 
BRANCH  17  18
ATOM     18  C   UNL     1      -1.723  -4.572  -0.007  0.00  0.00    +0.054 C 
BRANCH  18  19
ATOM     19  C   UNL     1      -2.926  -5.479  -0.000  0.00  0.00    -0.046 A 
ATOM     20  C   UNL     1      -3.463  -5.905   1.200  0.00  0.00    +0.005 A 
ATOM     21  C   UNL     1      -4.571  -6.733   1.206  0.00  0.00    +0.020 A 
ATOM     22  C   UNL     1      -5.135  -7.143   0.011  0.00  0.00    +0.041 A 
ATOM     23  C   UNL     1      -4.593  -6.720  -1.190  0.00  0.00    +0.020 A 
ATOM     24  C   UNL     1      -3.489  -5.888  -1.195  0.00  0.00    +0.005 A 
ATOM     25 CL   UNL     1      -6.521  -8.187   0.018  0.00  0.00    -0.084 Cl
ENDBRANCH  18  19
ENDBRANCH  17  18
ENDBRANCH  15  17
ENDBRANCH   7  13
BRANCH   2  26
ATOM     26  C   UNL     1       3.715   1.786  -2.231  0.00  0.00    +0.238 C 
ATOM     27  O   UNL     1       3.684   0.674  -2.714  0.00  0.00    -0.273 OA
ATOM     28  N   UNL     1       3.537   2.867  -3.017  0.00  0.00    -0.311 N 
ATOM     29  H   UNL     1       3.565   3.876  -2.579  0.00  0.00    +0.149 HD
BRANCH  28  30
ATOM     30  C   UNL     1       3.306   2.699  -4.453  0.00  0.00    +0.073 C 
ATOM     31  C   UNL     1       4.654   2.628  -5.200  0.00  0.00    +0.022 C 
ATOM     32  C   UNL     1       4.392   3.385  -6.527  0.00  0.00    +0.002 C 
ATOM     33  C   UNL     1       3.473   4.549  -6.081  0.00  0.00    +0.002 C 
ATOM     34  C   UNL     1       2.555   3.920  -5.013  0.00  0.00    +0.022 C 
ENDBRANCH  28  30
ENDBRANCH   2  26
TORSDOF 6
