REMARK  Name = ZINC41007206
REMARK  3 active torsions:
REMARK  status: ('A' for Active; 'I' for Inactive)
REMARK    1  A    between atoms: C_9  and  C_11
REMARK    2  A    between atoms: N_13  and  C_14
REMARK    3  A    between atoms: C_15  and  C_22
REMARK                            x       y       z     vdW  Elec       q    Type
REMARK                         _______ _______ _______ _____ _____    ______ ____
ROOT
ATOM      1  C   UNL     1       5.974   0.910  -0.050  0.00  0.00    +0.284 C 
ATOM      2  O   UNL     1       6.652  -0.100  -0.063  0.00  0.00    -0.266 OA
ATOM      3  N   UNL     1       6.567   2.120  -0.050  0.00  0.00    -0.273 N 
ATOM      4  H   UNL     1       6.026   2.926  -0.040  0.00  0.00    +0.156 HD
ENDROOT
BRANCH   1  13
ATOM      5  C   UNL     1      -0.017   1.385   0.010  0.00  0.00    +0.019 A 
ATOM      6  C   UNL     1       1.158   2.105   0.002  0.00  0.00    +0.048 A 
ATOM      7  C   UNL     1       2.378   1.439  -0.013  0.00  0.00    +0.136 A 
ATOM      8  C   UNL     1       2.392   0.032  -0.021  0.00  0.00    +0.022 A 
ATOM      9  C   UNL     1       1.190  -0.680  -0.013  0.00  0.00    +0.027 A 
ATOM     10  C   UNL     1       0.002  -0.004   0.002  0.00  0.00    +0.019 A 
ATOM     11 BR   UNL     1      -1.626  -0.966   0.012  0.00  0.00    -0.050 Br
ATOM     12  C   UNL     1       3.803  -0.351  -0.036  0.00  0.00    +0.063 A 
ATOM     13  C   UNL     1       4.508   0.811  -0.036  0.00  0.00    +0.191 A 
ATOM     14  O   UNL     1       3.659   1.859  -0.023  0.00  0.00    -0.450 OA
ENDBRANCH   1  13
BRANCH   3  15
ATOM     15  C   UNL     1       7.949   2.214  -0.063  0.00  0.00    +0.085 A 
ATOM     16  C   UNL     1       8.723   3.360  -0.058  0.00  0.00    +0.068 A 
ATOM     17  C   UNL     1      10.175   3.187  -0.074  0.00  0.00    -0.023 A 
ATOM     18  C   UNL     1      10.574   1.902  -0.093  0.00  0.00    -0.004 A 
ATOM     19  S   UNL     1       9.067   0.965  -0.080  0.00  0.00    -0.077 S 
ATOM     20  C   UNL     1      12.074   1.781  -0.113  0.00  0.00    +0.043 C 
ATOM     21  C   UNL     1      12.573   3.180  -0.537  0.00  0.00    +0.010 C 
ATOM     22  C   UNL     1      11.412   4.083  -0.073  0.00  0.00    +0.037 C 
BRANCH  16  23
ATOM     23  C   UNL     1       8.114   4.693  -0.039  0.00  0.00    +0.244 C 
ATOM     24  O   UNL     1       7.871   5.236   1.023  0.00  0.00    -0.270 OA
ATOM     25  N   UNL     1       7.822   5.318  -1.197  0.00  0.00    -0.325 N 
ATOM     26  H   UNL     1       8.016   4.885  -2.044  0.00  0.00    +0.145 HD
ATOM     27  H   UNL     1       7.419   6.200  -1.185  0.00  0.00    +0.145 HD
ENDBRANCH  16  23
ENDBRANCH   3  15
TORSDOF 3
