REMARK  Name = ZINC04142956
REMARK  12 active torsions:
REMARK  status: ('A' for Active; 'I' for Inactive)
REMARK    1  A    between atoms: C_1  and  C_2
REMARK    2  A    between atoms: C_2  and  C_3
REMARK    3  A    between atoms: C_3  and  C_5
REMARK    4  A    between atoms: C_3  and  N_20
REMARK    5  A    between atoms: N_7  and  C_8
REMARK    6  A    between atoms: C_8  and  C_9
REMARK    7  A    between atoms: C_12  and  O_17
REMARK    8  A    between atoms: C_13  and  O_15
REMARK    9  A    between atoms: O_15  and  C_16
REMARK   10  A    between atoms: O_17  and  C_18
REMARK   11  A    between atoms: C_18  and  C_19
REMARK   12  A    between atoms: C_28  and  C_30
REMARK                            x       y       z     vdW  Elec       q    Type
REMARK                         _______ _______ _______ _____ _____    ______ ____
ROOT
ATOM      1  C   UNL     1       0.742  -0.511   1.242  0.00  0.00    +0.196 C 
ENDROOT
BRANCH   1   2
ATOM      2  N   UNL     1       2.148  -0.104   1.172  0.00  0.00    -0.214 N 
ATOM      3  C   UNL     1       2.674   0.677   2.142  0.00  0.00    +0.292 A 
ATOM      4  O   UNL     1       1.996   1.052   3.082  0.00  0.00    -0.264 OA
ATOM      5  C   UNL     1       4.085   1.058   2.030  0.00  0.00    +0.118 A 
ATOM      6  C   UNL     1       4.914   1.821   2.817  0.00  0.00    +0.080 A 
ATOM      7  C   UNL     1       6.175   1.841   2.208  0.00  0.00    +0.154 A 
ATOM      8  C   UNL     1       6.090   1.081   1.046  0.00  0.00    +0.094 A 
ATOM      9  N   UNL     1       4.810   0.602   0.939  0.00  0.00    -0.288 N 
ATOM     10  C   UNL     1       4.186  -0.193  -0.003  0.00  0.00    +0.132 A 
ATOM     11  N   UNL     1       2.946  -0.527   0.105  0.00  0.00    -0.154 NA
ATOM     12  C   UNL     1       4.977  -0.685  -1.187  0.00  0.00    +0.088 C 
ATOM     13  C   UNL     1       7.375   1.118   0.453  0.00  0.00    +0.068 A 
ATOM     14  C   UNL     1       8.157   1.869   1.246  0.00  0.00    +0.198 A 
ATOM     15  O   UNL     1       7.441   2.304   2.298  0.00  0.00    -0.461 OA
ENDBRANCH   1   2
BRANCH   1  16
ATOM     16  C   UNL     1       0.657  -2.014   1.298  0.00  0.00    +0.238 C 
ATOM     17  O   UNL     1       1.670  -2.680   1.281  0.00  0.00    -0.273 OA
ATOM     18  N   UNL     1      -0.546  -2.619   1.367  0.00  0.00    -0.309 N 
ATOM     19  H   UNL     1      -1.356  -2.086   1.380  0.00  0.00    +0.149 HD
BRANCH  18  20
ATOM     20  C   UNL     1      -0.629  -4.081   1.421  0.00  0.00    +0.139 C 
BRANCH  20  21
ATOM     21  C   UNL     1      -2.075  -4.499   1.493  0.00  0.00    -0.027 A 
ATOM     22  C   UNL     1      -2.691  -4.643   2.722  0.00  0.00    +0.009 A 
ATOM     23  C   UNL     1      -4.017  -5.027   2.794  0.00  0.00    +0.050 A 
ATOM     24  C   UNL     1      -4.732  -5.268   1.631  0.00  0.00    +0.162 A 
ATOM     25  C   UNL     1      -4.112  -5.123   0.394  0.00  0.00    +0.162 A 
ATOM     26  C   UNL     1      -2.784  -4.733   0.330  0.00  0.00    +0.054 A 
BRANCH  25  27
ATOM     27  O   UNL     1      -4.809  -5.358  -0.749  0.00  0.00    -0.491 OA
ATOM     28  C   UNL     1      -4.109  -5.189  -1.983  0.00  0.00    +0.277 C 
ENDBRANCH  25  27
BRANCH  24  29
ATOM     29  O   UNL     1      -6.036  -5.646   1.700  0.00  0.00    -0.489 OA
BRANCH  29  30
ATOM     30  C   UNL     1      -6.607  -5.776   3.004  0.00  0.00    +0.226 C 
ATOM     31  C   UNL     1      -8.070  -6.206   2.880  0.00  0.00    +0.048 C 
ENDBRANCH  29  30
ENDBRANCH  24  29
ENDBRANCH  20  21
ENDBRANCH  18  20
ENDBRANCH   1  16
BRANCH   1  33
ATOM     32  C   UNL     1      -0.019   1.526   0.010  0.00  0.00    +0.006 C 
ATOM     33  C   UNL     1       0.002  -0.004   0.002  0.00  0.00    +0.033 C 
ENDBRANCH   1  33
TORSDOF 8
