REMARK  Name = ZINC01881108
REMARK  6 active torsions:
REMARK  status: ('A' for Active; 'I' for Inactive)
REMARK    1  A    between atoms: C_2  and  C_3
REMARK    2  A    between atoms: C_2  and  N_10
REMARK    3  A    between atoms: C_6  and  O_9
REMARK    4  A    between atoms: N_10  and  N_11
REMARK    5  A    between atoms: C_12  and  C_14
REMARK    6  A    between atoms: C_15  and  C_25
REMARK                            x       y       z     vdW  Elec       q    Type
REMARK                         _______ _______ _______ _____ _____    ______ ____
ROOT
ATOM      1  C   UNL     1       4.864   0.127  -0.044  0.00  0.00    +0.177 A 
ATOM      2  C   UNL     1       6.141  -0.422  -0.064  0.00  0.00    +0.109 A 
ATOM      3  N   UNL     1       7.009   0.632  -0.066  0.00  0.00    -0.187 N 
ATOM      4  N   UNL     1       6.228   1.796  -0.045  0.00  0.00    -0.058 NA
ATOM      5  N   UNL     1       4.985   1.465  -0.038  0.00  0.00    -0.124 NA
ATOM      6  C   UNL     1       8.406   0.565  -0.083  0.00  0.00    +0.241 A 
ATOM      7  C   UNL     1       9.320   1.710  -0.078  0.00  0.00    +0.206 A 
ATOM      8  N   UNL     1      10.544   1.258  -0.099  0.00  0.00    -0.032 NA
ATOM      9  O   UNL     1      10.484  -0.157  -0.118  0.00  0.00    -0.239 OA
ATOM     10  N   UNL     1       9.116  -0.527  -0.101  0.00  0.00    -0.027 NA
ATOM     11  N   UNL     1       8.948   3.050  -0.056  0.00  0.00    -0.337 N 
ATOM     12  H   UNL     1       8.008   3.291  -0.042  0.00  0.00    +0.144 HD
ATOM     13  H   UNL     1       9.627   3.742  -0.054  0.00  0.00    +0.144 HD
ENDROOT
BRANCH   2  14
ATOM     14  C   UNL     1       6.489  -1.857  -0.082  0.00  0.00    +0.004 A 
ATOM     15  C   UNL     1       7.478  -2.329  -0.948  0.00  0.00    +0.011 A 
ATOM     16  C   UNL     1       7.800  -3.670  -0.960  0.00  0.00    +0.022 A 
ATOM     17  C   UNL     1       7.143  -4.550  -0.115  0.00  0.00    +0.059 A 
ATOM     18  C   UNL     1       6.161  -4.089   0.747  0.00  0.00    +0.060 A 
ATOM     19  C   UNL     1       5.835  -2.748   0.772  0.00  0.00    +0.031 A 
ATOM     20 CL   UNL     1       5.344  -5.199   1.802  0.00  0.00    -0.082 Cl
ATOM     21 CL   UNL     1       7.553  -6.236  -0.137  0.00  0.00    -0.082 Cl
ENDBRANCH   2  14
BRANCH   1  23
ATOM     22  N   UNL     1       2.423   0.032  -0.021  0.00  0.00    -0.231 N 
ATOM     23  C   UNL     1       3.599  -0.626  -0.036  0.00  0.00    +0.282 C 
ATOM     24  O   UNL     1       3.616  -1.842  -0.042  0.00  0.00    -0.267 OA
ATOM     25  H   UNL     1       2.410   1.002  -0.016  0.00  0.00    +0.173 HD
BRANCH  22  26
ATOM     26  N   UNL     1       1.220  -0.685  -0.013  0.00  0.00    -0.264 N 
ATOM     27  H   UNL     1       1.233  -1.655  -0.019  0.00  0.00    +0.170 HD
BRANCH  26  29
ATOM     28  C   UNL     1      -0.016   1.330   0.009  0.00  0.00    +0.035 C 
ATOM     29  C   UNL     1       0.002  -0.004   0.002  0.00  0.00    +0.044 C 
BRANCH  29  30
ATOM     30  C   UNL     1      -1.270  -0.762   0.010  0.00  0.00    -0.003 A 
ATOM     31  C   UNL     1      -1.253  -2.157   0.008  0.00  0.00    +0.013 A 
ATOM     32  C   UNL     1      -2.439  -2.859   0.016  0.00  0.00    +0.046 A 
ATOM     33  C   UNL     1      -3.650  -2.179   0.026  0.00  0.00    +0.117 A 
ATOM     34  C   UNL     1      -3.671  -0.791   0.028  0.00  0.00    +0.046 A 
ATOM     35  C   UNL     1      -2.488  -0.083   0.025  0.00  0.00    +0.013 A 
BRANCH  33  36
ATOM     36  O   UNL     1      -4.817  -2.875   0.034  0.00  0.00    -0.507 OA
ATOM     37  H   UNL     1      -5.149  -3.077   0.920  0.00  0.00    +0.292 HD
ENDBRANCH  33  36
ENDBRANCH  29  30
ENDBRANCH  26  29
ENDBRANCH  22  26
ENDBRANCH   1  23
TORSDOF 6
