REMARK  Name = ZINC39400197
REMARK  8 active torsions:
REMARK  status: ('A' for Active; 'I' for Inactive)
REMARK    1  A    between atoms: C_1  and  C_2
REMARK    2  A    between atoms: C_2  and  C_3
REMARK    3  A    between atoms: C_3  and  C_5
REMARK    4  A    between atoms: C_3  and  C_6
REMARK    5  A    between atoms: N_11  and  C_17
REMARK    6  A    between atoms: C_17  and  C_18
REMARK    7  A    between atoms: C_21  and  S_23
REMARK    8  A    between atoms: S_23  and  C_24
REMARK                            x       y       z     vdW  Elec       q    Type
REMARK                         _______ _______ _______ _____ _____    ______ ____
ROOT
ATOM      1  C   UNL     1       0.655  -2.037   1.299  0.00  0.00    +0.099 C 
ATOM      2  C   UNL     1       1.339  -2.572   2.563  0.00  0.00    +0.040 C 
ATOM      3  C   UNL     1       2.511  -3.499   2.233  0.00  0.00    -0.067 C 
ATOM      4  N   UNL     1       2.909  -4.200   3.463  0.00  0.00    +0.385 N 
ATOM      5  C   UNL     1       1.878  -5.140   3.912  0.00  0.00    -0.072 C 
ATOM      6  C   UNL     1       0.613  -4.379   4.347  0.00  0.00    +0.034 C 
ATOM      7  C   UNL     1       0.262  -3.429   3.214  0.00  0.00    +0.038 C 
ATOM      8  N   UNL     1      -0.827  -3.288   2.595  0.00  0.00    -0.196 NA
ATOM      9  N   UNL     1      -0.744  -2.474   1.460  0.00  0.00    -0.265 N 
ATOM     10  H   UNL     1      -1.482  -2.236   0.877  0.00  0.00    +0.168 HD
ATOM     11  H   UNL     1       3.072  -3.520   4.191  0.00  0.00    -0.081 HD
ENDROOT
BRANCH   1  12
ATOM     12  C   UNL     1       0.742  -0.511   1.242  0.00  0.00    +0.008 C 
ATOM     13  C   UNL     1       2.210  -0.086   1.169  0.00  0.00    +0.009 C 
BRANCH  12  15
ATOM     14  C   UNL     1      -0.019   1.526   0.010  0.00  0.00    +0.004 C 
ATOM     15  C   UNL     1       0.002  -0.004   0.002  0.00  0.00    +0.002 C 
ENDBRANCH  12  15
ENDBRANCH   1  12
BRANCH   4  16
ATOM     16  C   UNL     1       4.153  -4.939   3.213  0.00  0.00    -0.003 C 
BRANCH  16  17
ATOM     17  C   UNL     1       4.636  -5.561   4.498  0.00  0.00    +0.090 A 
ATOM     18  C   UNL     1       4.313  -6.787   4.947  0.00  0.00    +0.044 A 
ATOM     19  C   UNL     1       4.981  -6.963   6.180  0.00  0.00    +0.057 A 
ATOM     20  C   UNL     1       5.678  -5.826   6.413  0.00  0.00    +0.169 A 
ATOM     21  O   UNL     1       5.466  -4.984   5.386  0.00  0.00    -0.455 OA
BRANCH  20  22
ATOM     22  S   UNL     1       6.692  -5.506   7.818  0.00  0.00    -0.013 S 
BRANCH  22  23
ATOM     23  C   UNL     1       7.311  -3.881   7.536  0.00  0.00    +0.192 A 
ATOM     24  H   UNL     1       8.504  -3.493   9.199  0.00  0.00    +0.191 HD
ATOM     25  N   UNL     1       7.045  -3.119   6.496  0.00  0.00    -0.209 NA
ATOM     26  C   UNL     1       7.684  -1.956   6.615  0.00  0.00    +0.245 A 
ATOM     27  N   UNL     1       8.366  -1.954   7.729  0.00  0.00    -0.160 NA
ATOM     28  N   UNL     1       8.138  -3.192   8.352  0.00  0.00    -0.253 N 
ENDBRANCH  22  23
ENDBRANCH  20  22
ENDBRANCH  16  17
ENDBRANCH   4  16
TORSDOF 6
