REMARK  Name = ZINC13346603
REMARK  4 active torsions:
REMARK  status: ('A' for Active; 'I' for Inactive)
REMARK    1  A    between atoms: C_1  and  C_2
REMARK    2  A    between atoms: N_7  and  S_8
REMARK    3  A    between atoms: S_8  and  C_11
REMARK    4  A    between atoms: C_20  and  C_23
REMARK                            x       y       z     vdW  Elec       q    Type
REMARK                         _______ _______ _______ _____ _____    ______ ____
ROOT
ATOM      1  C   UNL     1       6.746   4.935  -0.456  0.00  0.00    +0.110 A 
ATOM      2  C   UNL     1       6.511   3.923   0.457  0.00  0.00    +0.030 A 
ATOM      3  C   UNL     1       5.299   3.862   1.120  0.00  0.00    +0.018 A 
ATOM      4  C   UNL     1       4.324   4.812   0.865  0.00  0.00    +0.030 A 
ATOM      5  C   UNL     1       4.545   5.823  -0.071  0.00  0.00    +0.049 A 
ATOM      6  C   UNL     1       5.775   5.881  -0.718  0.00  0.00    +0.053 A 
ATOM      7  N   UNL     1       3.580   6.784  -0.354  0.00  0.00    -0.283 N 
ATOM      8  C   UNL     1       2.285   6.720  -0.061  0.00  0.00    +0.240 C 
ATOM      9  O   UNL     1       1.594   7.691  -0.285  0.00  0.00    -0.274 OA
ATOM     10  C   UNL     1       1.634   5.499   0.534  0.00  0.00    +0.223 C 
ATOM     11  S   UNL     1       2.786   4.760   1.732  0.00  0.00    -0.101 S 
ATOM     12  H   UNL     1       3.883   7.583  -0.812  0.00  0.00    +0.155 HD
ENDROOT
BRANCH  10  13
ATOM     13  C   UNL     1       1.328   4.504  -0.556  0.00  0.00    +0.238 C 
ATOM     14  O   UNL     1       2.021   4.462  -1.550  0.00  0.00    -0.274 OA
ATOM     15  N   UNL     1       0.284   3.661  -0.425  0.00  0.00    -0.300 N 
ATOM     16  C   UNL     1      -0.060   2.781  -1.559  0.00  0.00    +0.108 C 
ATOM     17  C   UNL     1      -0.408   1.353  -1.099  0.00  0.00    +0.019 C 
ATOM     18  C   UNL     1       0.533   0.918  -0.003  0.00  0.00    +0.002 C 
ATOM     19  C   UNL     1      -0.074   1.266   1.353  0.00  0.00    +0.002 C 
ATOM     20  C   UNL     1       0.189   2.643   1.798  0.00  0.00    +0.019 C 
ATOM     21  C   UNL     1      -0.452   3.657   0.819  0.00  0.00    +0.108 C 
ENDBRANCH  10  13
BRANCH   1  22
ATOM     22  S   UNL     1       8.296   5.018  -1.291  0.00  0.00    +0.074 S 
ATOM     23  O   UNL     1       8.835   3.703  -1.277  0.00  0.00    -0.150 OA
ATOM     24  O   UNL     1       8.070   5.736  -2.496  0.00  0.00    -0.150 OA
BRANCH  22  31
ATOM     25  C   UNL     1      11.635   6.239   3.936  0.00  0.00    +0.066 C 
ATOM     26  C   UNL     1      10.736   5.553   2.940  0.00  0.00    +0.047 A 
ATOM     27  C   UNL     1      10.182   4.349   3.221  0.00  0.00    +0.071 A 
ATOM     28  S   UNL     1       9.256   4.052   1.722  0.00  0.00    -0.059 S 
ATOM     29  C   UNL     1       9.685   5.517   0.895  0.00  0.00    +0.178 A 
ATOM     30  N   UNL     1      10.475   6.109   1.771  0.00  0.00    -0.229 NA
ATOM     31  N   UNL     1       9.302   5.951  -0.364  0.00  0.00    -0.194 N 
ATOM     32  H   UNL     1       9.623   6.801  -0.703  0.00  0.00    +0.176 HD
ENDBRANCH  22  31
ENDBRANCH   1  22
TORSDOF 3
