REMARK  Name = ZINC41284094
REMARK  5 active torsions:
REMARK  status: ('A' for Active; 'I' for Inactive)
REMARK    1  A    between atoms: C_1  and  C_2
REMARK    2  A    between atoms: C_4  and  C_22
REMARK    3  A    between atoms: C_6  and  C_13
REMARK    4  A    between atoms: C_13  and  N_14
REMARK    5  A    between atoms: C_15  and  C_17
REMARK                            x       y       z     vdW  Elec       q    Type
REMARK                         _______ _______ _______ _____ _____    ______ ____
ROOT
ATOM      1  C   UNL     1      -0.355   1.523   0.000  0.00  0.00    +0.044 C 
ATOM      2  C   UNL     1      -0.077   0.042  -0.023  0.00  0.00    -0.047 A 
ATOM      3  C   UNL     1      -0.069  -0.636  -1.233  0.00  0.00    +0.007 A 
ATOM      4  C   UNL     1       0.181  -1.979  -1.274  0.00  0.00    -0.039 A 
ATOM      5  C   UNL     1       0.431  -2.674  -0.086  0.00  0.00    +0.025 A 
ATOM      6  C   UNL     1       0.704  -4.114  -0.096  0.00  0.00    -0.013 A 
ATOM      7  C   UNL     1       0.939  -4.730   1.090  0.00  0.00    +0.097 A 
ATOM      8  C   UNL     1       0.915  -3.981   2.287  0.00  0.00    +0.338 A 
ATOM      9  O   UNL     1       1.128  -4.545   3.345  0.00  0.00    -0.245 OA
ATOM     10  O   UNL     1       0.665  -2.662   2.287  0.00  0.00    -0.422 OA
ATOM     11  C   UNL     1       0.423  -1.990   1.142  0.00  0.00    +0.140 A 
ATOM     12  C   UNL     1       0.172  -0.624   1.159  0.00  0.00    +0.050 A 
ATOM     13  C   UNL     1       0.188  -2.708  -2.593  0.00  0.00    +0.044 C 
ENDROOT
BRANCH   6  14
ATOM     14  C   UNL     1       0.722  -4.890  -1.388  0.00  0.00    +0.140 C 
BRANCH  14  15
ATOM     15  N   UNL     1      -0.645  -5.275  -1.746  0.00  0.00    -0.307 N 
ATOM     16  C   UNL     1      -0.874  -5.981  -2.871  0.00  0.00    +0.251 C 
ATOM     17  O   UNL     1       0.056  -6.299  -3.590  0.00  0.00    -0.270 OA
ATOM     18  H   UNL     1      -1.386  -5.022  -1.173  0.00  0.00    +0.149 HD
BRANCH  16  19
ATOM     19  C   UNL     1      -2.242  -6.367  -3.229  0.00  0.00    +0.074 A 
ATOM     20  C   UNL     1      -2.688  -7.089  -4.325  0.00  0.00    +0.021 A 
ATOM     21  C   UNL     1      -4.045  -7.296  -4.392  0.00  0.00    +0.008 A 
ATOM     22  C   UNL     1      -4.837  -6.795  -3.412  0.00  0.00    +0.046 A 
ATOM     23  S   UNL     1      -3.765  -6.036  -2.364  0.00  0.00    -0.092 S 
ENDBRANCH  16  19
ENDBRANCH  14  15
ENDBRANCH   6  14
TORSDOF 3
