REMARK  Name = ZINC18209371
REMARK  6 active torsions:
REMARK  status: ('A' for Active; 'I' for Inactive)
REMARK    1  A    between atoms: C_1  and  C_2
REMARK    2  A    between atoms: C_7  and  C_8
REMARK    3  A    between atoms: C_8  and  C_9
REMARK    4  A    between atoms: N_15  and  N_16
REMARK    5  A    between atoms: C_17  and  C_18
REMARK    6  A    between atoms: C_22  and  N_24
REMARK                            x       y       z     vdW  Elec       q    Type
REMARK                         _______ _______ _______ _____ _____    ______ ____
ROOT
ATOM      1  C   UNL     1      -1.661   0.215   2.866  0.00  0.00    +0.144 C 
ATOM      2  C   UNL     1      -1.826   1.067   4.116  0.00  0.00    +0.232 C 
ATOM      3  O   UNL     1      -1.364   0.767   5.196  0.00  0.00    -0.274 OA
ATOM      4  N   UNL     1      -2.528   2.171   3.902  0.00  0.00    -0.263 N 
ATOM      5  C   UNL     1      -3.038   2.492   2.691  0.00  0.00    +0.183 C 
ATOM      6  N   UNL     1      -3.771   3.603   2.373  0.00  0.00    -0.127 NA
ATOM      7  S   UNL     1      -2.585   1.245   1.655  0.00  0.00    -0.075 S 
ATOM      8  H   UNL     1      -2.683   2.775   4.646  0.00  0.00    +0.157 HD
ENDROOT
BRANCH   6   9
ATOM      9  N   UNL     1      -4.192   3.773   1.165  0.00  0.00    -0.155 NA
ATOM     10  C   UNL     1      -4.917   4.870   0.851  0.00  0.00    +0.143 C 
BRANCH  10  11
ATOM     11  C   UNL     1      -5.373   5.056  -0.461  0.00  0.00    -0.003 A 
ATOM     12  C   UNL     1      -5.085   4.096  -1.461  0.00  0.00    +0.009 A 
ATOM     13  C   UNL     1      -5.535   4.290  -2.733  0.00  0.00    +0.003 A 
ATOM     14  C   UNL     1      -6.275   5.423  -3.050  0.00  0.00    +0.033 A 
ATOM     15  C   UNL     1      -6.566   6.373  -2.079  0.00  0.00    +0.127 A 
ATOM     16  C   UNL     1      -6.133   6.202  -0.797  0.00  0.00    +0.042 A 
BRANCH  15  17
ATOM     17  N   UNL     1      -7.354   7.574  -2.437  0.00  0.00    +0.056 N 
ATOM     18  O   UNL     1      -7.777   7.740  -3.673  0.00  0.00    -0.126 OA
ATOM     19  O   UNL     1      -7.631   8.477  -1.519  0.00  0.00    -0.126 OA
ENDBRANCH  15  17
ENDBRANCH  10  11
ENDBRANCH   6   9
BRANCH   1  20
ATOM     20  C   UNL     1      -0.188   0.082   2.474  0.00  0.00    +0.059 C 
BRANCH  20  27
ATOM     21  C   UNL     1      -0.329  -2.803   2.496  0.00  0.00    +0.044 C 
ATOM     22  C   UNL     1      -0.146  -2.068   1.193  0.00  0.00    -0.047 A 
ATOM     23  C   UNL     1      -0.052  -2.773   0.008  0.00  0.00    +0.003 A 
ATOM     24  C   UNL     1       0.115  -2.099  -1.186  0.00  0.00    +0.000 A 
ATOM     25  C   UNL     1       0.188  -0.718  -1.196  0.00  0.00    +0.000 A 
ATOM     26  C   UNL     1       0.093  -0.013  -0.012  0.00  0.00    +0.004 A 
ATOM     27  C   UNL     1      -0.079  -0.687   1.183  0.00  0.00    -0.043 A 
ENDBRANCH  20  27
ENDBRANCH   1  20
TORSDOF 5
