REMARK  Name = ZINC38994396
REMARK  7 active torsions:
REMARK  status: ('A' for Active; 'I' for Inactive)
REMARK    1  A    between atoms: C_4  and  C_7
REMARK    2  A    between atoms: C_9  and  C_13
REMARK    3  A    between atoms: C_17  and  S_21
REMARK    4  A    between atoms: N_19  and  N_20
REMARK    5  A    between atoms: S_21  and  C_22
REMARK    6  A    between atoms: C_22  and  C_23
REMARK    7  A    between atoms: N_25  and  C_26
REMARK                            x       y       z     vdW  Elec       q    Type
REMARK                         _______ _______ _______ _____ _____    ______ ____
ROOT
ATOM      1  C   UNL     1       5.800  -2.990   1.173  0.00  0.00    +0.185 C 
ATOM      2  N   UNL     1       5.189  -4.345   1.186  0.00  0.00    -0.234 NA
ATOM      3  N   UNL     1       6.107  -5.115   2.040  0.00  0.00    -0.228 NA
ATOM      4  C   UNL     1       7.453  -4.605   1.690  0.00  0.00    +0.214 C 
ATOM      5  N   UNL     1       7.258  -3.245   1.139  0.00  0.00    -0.197 NA
ATOM      6  H   UNL     1       4.262  -4.320   1.583  0.00  0.00    +0.143 HD
ATOM      7  H   UNL     1       5.906  -4.963   3.017  0.00  0.00    +0.143 HD
ENDROOT
BRANCH   1  10
ATOM      8  C   UNL     1       3.736  -0.652  -0.051  0.00  0.00    +0.091 C 
ATOM      9  C   UNL     1       3.861  -1.993  -0.066  0.00  0.00    +0.034 C 
ATOM     10  C   UNL     1       5.362  -2.218  -0.074  0.00  0.00    +0.187 C 
ATOM     11  N   UNL     1       5.907  -0.850  -0.061  0.00  0.00    -0.176 NA
ATOM     12  N   UNL     1       4.959  -0.061  -0.054  0.00  0.00    -0.154 NA
BRANCH   8  16
ATOM     13  C   UNL     1       0.033   1.438  -0.014  0.00  0.00    +0.000 A 
ATOM     14  C   UNL     1       1.222   2.144  -0.016  0.00  0.00    +0.001 A 
ATOM     15  C   UNL     1       2.427   1.471  -0.028  0.00  0.00    +0.010 A 
ATOM     16  C   UNL     1       2.443   0.077  -0.037  0.00  0.00    +0.002 A 
ATOM     17  C   UNL     1       1.242  -0.628  -0.036  0.00  0.00    +0.010 A 
ATOM     18  C   UNL     1       0.043   0.055  -0.024  0.00  0.00    +0.001 A 
ENDBRANCH   8  16
ENDBRANCH   1  10
BRANCH   5  19
ATOM     19  N   UNL     1       7.979  -2.255   1.922  0.00  0.00    -0.264 NA
ATOM     20  H   UNL     1       8.973  -2.429   1.899  0.00  0.00    +0.137 HD
ATOM     21  H   UNL     1       7.768  -1.320   1.605  0.00  0.00    +0.137 HD
ENDBRANCH   5  19
BRANCH   4  22
ATOM     22  S   UNL     1       8.495  -4.530   3.173  0.00  0.00    -0.115 S 
BRANCH  22  23
ATOM     23  C   UNL     1       7.585  -3.430   4.293  0.00  0.00    +0.168 C 
BRANCH  23  24
ATOM     24  C   UNL     1       8.352  -3.279   5.581  0.00  0.00    +0.227 C 
ATOM     25  O   UNL     1       9.408  -3.857   5.730  0.00  0.00    -0.275 OA
ATOM     26  N   UNL     1       7.864  -2.503   6.569  0.00  0.00    -0.285 N 
ATOM     27  H   UNL     1       7.055  -1.988   6.426  0.00  0.00    +0.155 HD
BRANCH  26  28
ATOM     28  C   UNL     1       8.526  -2.439   7.800  0.00  0.00    +0.035 A 
ATOM     29  C   UNL     1       7.797  -2.315   8.976  0.00  0.00    +0.023 A 
ATOM     30  C   UNL     1       8.452  -2.253  10.190  0.00  0.00    +0.003 A 
ATOM     31  C   UNL     1       9.832  -2.313  10.237  0.00  0.00    +0.020 A 
ATOM     32  C   UNL     1      10.562  -2.437   9.068  0.00  0.00    +0.043 A 
ATOM     33  C   UNL     1       9.911  -2.506   7.850  0.00  0.00    +0.043 A 
ATOM     34 CL   UNL     1      12.295  -2.512   9.130  0.00  0.00    -0.083 Cl
ENDBRANCH  26  28
ENDBRANCH  23  24
ENDBRANCH  22  23
ENDBRANCH   4  22
TORSDOF 7
