REMARK  Name = ZINC00249423
REMARK  4 active torsions:
REMARK  status: ('A' for Active; 'I' for Inactive)
REMARK    1  A    between atoms: C_1  and  C_2
REMARK    2  A    between atoms: C_3  and  C_7
REMARK    3  A    between atoms: N_9  and  N_10
REMARK    4  A    between atoms: C_11  and  C_12
REMARK                            x       y       z     vdW  Elec       q    Type
REMARK                         _______ _______ _______ _____ _____    ______ ____
ROOT
ATOM      1  C   UNL     1      -2.611   1.525   0.022  0.00  0.00    +0.267 C 
ATOM      2  O   UNL     1      -3.494   2.361   0.029  0.00  0.00    -0.268 OA
ATOM      3  N   UNL     1      -2.924   0.214   0.017  0.00  0.00    -0.203 N 
ATOM      4  H   UNL     1      -2.220  -0.453   0.011  0.00  0.00    +0.178 HD
ENDROOT
BRANCH   1   7
ATOM      5  C   UNL     1      -1.551   4.478   0.038  0.00  0.00    +0.087 C 
ATOM      6  C   UNL     1      -0.718   3.222   0.025  0.00  0.00    +0.114 A 
ATOM      7  C   UNL     1      -1.198   1.945   0.018  0.00  0.00    +0.079 A 
ATOM      8  C   UNL     1      -0.013   1.076   0.008  0.00  0.00    +0.054 A 
ATOM      9  C   UNL     1       1.048   1.898   0.002  0.00  0.00    +0.196 A 
ATOM     10  O   UNL     1       0.618   3.170   0.012  0.00  0.00    -0.467 OA
ENDBRANCH   1   7
BRANCH   3  11
ATOM     11  N   UNL     1      -4.267  -0.185   0.021  0.00  0.00    -0.187 NA
ATOM     12  C   UNL     1      -4.568  -1.448   0.016  0.00  0.00    +0.138 C 
BRANCH  12  13
ATOM     13  C   UNL     1      -5.982  -1.868   0.021  0.00  0.00    -0.005 A 
ATOM     14  C   UNL     1      -6.998  -0.910   0.035  0.00  0.00    +0.010 A 
ATOM     15  C   UNL     1      -8.318  -1.310   0.034  0.00  0.00    +0.016 A 
ATOM     16  C   UNL     1      -8.637  -2.658   0.029  0.00  0.00    +0.018 A 
ATOM     17  C   UNL     1      -7.634  -3.612   0.020  0.00  0.00    +0.016 A 
ATOM     18  C   UNL     1      -6.310  -3.226   0.016  0.00  0.00    +0.010 A 
ATOM     19 BR   UNL     1     -10.449  -3.197   0.036  0.00  0.00    -0.050 Br
ENDBRANCH  12  13
ENDBRANCH   3  11
TORSDOF 3
