REMARK  Name = ZINC62726616
REMARK  8 active torsions:
REMARK  status: ('A' for Active; 'I' for Inactive)
REMARK    1  A    between atoms: C_1  and  C_2
REMARK    2  A    between atoms: C_4  and  O_20
REMARK    3  A    between atoms: C_7  and  N_8
REMARK    4  A    between atoms: N_8  and  C_9
REMARK    5  A    between atoms: C_9  and  C_10
REMARK    6  A    between atoms: C_10  and  C_11
REMARK    7  A    between atoms: C_16  and  N_17
REMARK    8  A    between atoms: O_20  and  C_21
REMARK                            x       y       z     vdW  Elec       q    Type
REMARK                         _______ _______ _______ _____ _____    ______ ____
ROOT
ATOM      1  N   UNL     1       0.082  -0.056   2.405  0.00  0.00    -0.343 N 
ATOM      2  H   UNL     1       0.030   0.913   2.402  0.00  0.00    +0.146 HD
ENDROOT
BRANCH   1   9
ATOM      3  C   UNL     1       0.030   1.437  -0.015  0.00  0.00    +0.046 C 
ATOM      4  C   UNL     1       0.109  -0.068  -0.009  0.00  0.00    -0.026 A 
ATOM      5  C   UNL     1       0.165  -0.762  -1.202  0.00  0.00    +0.050 A 
ATOM      6  C   UNL     1       0.238  -2.147  -1.197  0.00  0.00    +0.120 A 
ATOM      7  C   UNL     1       0.255  -2.837   0.006  0.00  0.00    +0.047 A 
ATOM      8  C   UNL     1       0.200  -2.145   1.200  0.00  0.00    +0.027 A 
ATOM      9  C   UNL     1       0.132  -0.758   1.196  0.00  0.00    +0.030 A 
BRANCH   6  10
ATOM     10  O   UNL     1       0.292  -2.829  -2.373  0.00  0.00    -0.495 OA
ATOM     11  C   UNL     1       0.366  -4.253  -2.293  0.00  0.00    +0.277 C 
ENDBRANCH   6  10
ENDBRANCH   1   9
BRANCH   1  12
ATOM     12  C   UNL     1       0.106  -0.784   3.676  0.00  0.00    +0.106 C 
BRANCH  12  13
ATOM     13  C   UNL     1       0.040   0.212   4.836  0.00  0.00    +0.056 C 
BRANCH  13  14
ATOM     14  C   UNL     1       0.065  -0.537   6.144  0.00  0.00    -0.016 A 
ATOM     15  C   UNL     1      -1.106  -0.728   6.854  0.00  0.00    +0.006 A 
ATOM     16  C   UNL     1      -1.083  -1.415   8.053  0.00  0.00    +0.000 A 
ATOM     17  C   UNL     1       0.111  -1.912   8.542  0.00  0.00    +0.002 A 
ATOM     18  C   UNL     1       1.282  -1.722   7.832  0.00  0.00    +0.033 A 
ATOM     19  C   UNL     1       1.258  -1.038   6.630  0.00  0.00    +0.129 A 
BRANCH  19  20
ATOM     20  N   UNL     1       2.511  -0.840   5.867  0.00  0.00    +0.057 N 
ATOM     21  O   UNL     1       3.535  -1.360   6.241  0.00  0.00    -0.126 OA
ATOM     22  O   UNL     1       2.509  -0.156   4.870  0.00  0.00    -0.126 OA
ENDBRANCH  19  20
ENDBRANCH  13  14
ENDBRANCH  12  13
ENDBRANCH   1  12
TORSDOF 6
