REMARK  Name = ZINC13147559
REMARK  16 active torsions:
REMARK  status: ('A' for Active; 'I' for Inactive)
REMARK    1  A    between atoms: C_1  and  C_2
REMARK    2  A    between atoms: C_8  and  C_13
REMARK    3  A    between atoms: C_10  and  C_12
REMARK    4  A    between atoms: C_13  and  O_15
REMARK    5  A    between atoms: O_15  and  C_16
REMARK    6  A    between atoms: C_16  and  C_17
REMARK    7  A    between atoms: N_19  and  C_20
REMARK    8  A    between atoms: N_19  and  C_24
REMARK    9  A    between atoms: C_20  and  C_21
REMARK   10  A    between atoms: C_21  and  O_22
REMARK   11  A    between atoms: O_22  and  C_23
REMARK   12  A    between atoms: C_25  and  N_37
REMARK   13  A    between atoms: N_26  and  C_33
REMARK   14  A    between atoms: C_33  and  C_34
REMARK   15  A    between atoms: C_34  and  C_35
REMARK   16  A    between atoms: C_34  and  C_36
REMARK                            x       y       z     vdW  Elec       q    Type
REMARK                         _______ _______ _______ _____ _____    ______ ____
ROOT
ATOM      1  C   UNL     1       0.147   1.002  -0.212  0.00  0.00    +0.258 C 
ATOM      2  O   UNL     1       0.204  -0.194  -0.410  0.00  0.00    -0.272 OA
ATOM      3  N   UNL     1       1.280   1.712  -0.032  0.00  0.00    -0.259 N 
ENDROOT
BRANCH   3   4
ATOM      4  C   UNL     1       2.525   1.050   0.023  0.00  0.00    +0.140 A 
ATOM      5  C   UNL     1       2.793   0.141   1.026  0.00  0.00    +0.127 A 
ATOM      6  N   UNL     1       4.016  -0.488   1.053  0.00  0.00    -0.280 N 
ATOM      7  C   UNL     1       4.940  -0.220   0.113  0.00  0.00    +0.331 A 
ATOM      8  O   UNL     1       6.015  -0.787   0.154  0.00  0.00    -0.246 OA
ATOM      9  N   UNL     1       4.697   0.663  -0.872  0.00  0.00    -0.273 N 
ATOM     10  H   UNL     1       5.403   0.847  -1.556  0.00  0.00    +0.173 HD
ATOM     11  C   UNL     1       3.513   1.302  -0.948  0.00  0.00    +0.277 A 
ATOM     12  O   UNL     1       3.301   2.097  -1.847  0.00  0.00    -0.266 OA
BRANCH   5  13
ATOM     13  N   UNL     1       1.850  -0.132   1.987  0.00  0.00    -0.343 N 
ATOM     14  H   UNL     1       1.021   0.372   2.010  0.00  0.00    +0.144 HD
ATOM     15  H   UNL     1       2.012  -0.828   2.642  0.00  0.00    +0.144 HD
ENDBRANCH   5  13
BRANCH   6  16
ATOM     16  C   UNL     1       4.314  -1.455   2.112  0.00  0.00    +0.131 C 
BRANCH  16  17
ATOM     17  C   UNL     1       3.890  -2.854   1.659  0.00  0.00    +0.003 C 
ATOM     18  C   UNL     1       4.313  -3.881   2.711  0.00  0.00    +0.009 C 
ATOM     19  C   UNL     1       2.370  -2.895   1.489  0.00  0.00    +0.009 C 
ENDBRANCH  16  17
ENDBRANCH   6  16
ENDBRANCH   3   4
BRANCH   1  20
ATOM     20  C   UNL     1      -1.191   1.695  -0.174  0.00  0.00    +0.328 C 
BRANCH  20  21
ATOM     21  O   UNL     1      -2.246   0.724  -0.399  0.00  0.00    -0.452 OA
BRANCH  21  22
ATOM     22  C   UNL     1      -3.512   1.185  -0.396  0.00  0.00    +0.340 C 
ATOM     23  O   UNL     1      -3.728   2.365  -0.210  0.00  0.00    -0.245 OA
BRANCH  22  31
ATOM     24  C   UNL     1      -7.874   3.984  -0.702  0.00  0.00    +0.044 C 
ATOM     25  C   UNL     1      -7.556   2.513  -0.789  0.00  0.00    -0.050 A 
ATOM     26  C   UNL     1      -8.586   1.598  -0.999  0.00  0.00    +0.005 A 
ATOM     27  C   UNL     1      -8.333   0.264  -1.084  0.00  0.00    +0.028 A 
ATOM     28  C   UNL     1      -7.012  -0.205  -0.957  0.00  0.00    +0.072 A 
ATOM     29  C   UNL     1      -5.968   0.729  -0.744  0.00  0.00    +0.015 A 
ATOM     30  C   UNL     1      -6.266   2.095  -0.663  0.00  0.00    +0.014 A 
ATOM     31  C   UNL     1      -4.638   0.254  -0.618  0.00  0.00    +0.070 A 
ATOM     32  C   UNL     1      -4.428  -1.116  -0.716  0.00  0.00    +0.038 A 
ATOM     33  C   UNL     1      -5.513  -1.965  -0.920  0.00  0.00    +0.040 A 
ATOM     34  N   UNL     1      -6.736  -1.510  -1.035  0.00  0.00    -0.252 NA
ATOM     35  C   UNL     1      -5.273  -3.450  -1.018  0.00  0.00    +0.065 C 
ENDBRANCH  22  31
ENDBRANCH  21  22
ENDBRANCH  20  21
ENDBRANCH   1  20
BRANCH   3  36
ATOM     36  C   UNL     1       1.218   3.169   0.106  0.00  0.00    +0.142 C 
BRANCH  36  37
ATOM     37  C   UNL     1       1.166   3.539   1.589  0.00  0.00    +0.178 C 
BRANCH  37  38
ATOM     38  O   UNL     1       2.388   3.151   2.220  0.00  0.00    -0.381 OA
ATOM     39  C   UNL     1       2.443   3.453   3.616  0.00  0.00    +0.194 C 
ENDBRANCH  37  38
ENDBRANCH  36  37
ENDBRANCH   3  36
TORSDOF 11
