REMARK  Name = ZINC35288900
REMARK  7 active torsions:
REMARK  status: ('A' for Active; 'I' for Inactive)
REMARK    1  A    between atoms: C_1  and  C_2
REMARK    2  A    between atoms: C_12  and  C_14
REMARK    3  A    between atoms: C_15  and  N_31
REMARK    4  A    between atoms: C_20  and  O_29
REMARK    5  A    between atoms: C_21  and  O_27
REMARK    6  A    between atoms: O_27  and  C_28
REMARK    7  A    between atoms: O_29  and  C_30
REMARK                            x       y       z     vdW  Elec       q    Type
REMARK                         _______ _______ _______ _____ _____    ______ ____
ROOT
ATOM      1  C   UNL     1       0.995  -0.741   3.428  0.00  0.00    +0.097 A 
ATOM      2  C   UNL     1       0.656  -0.695   4.760  0.00  0.00    +0.053 A 
ATOM      3  C   UNL     1       1.617  -1.190   5.739  0.00  0.00    +0.028 A 
ATOM      4  C   UNL     1       1.474  -1.236   7.139  0.00  0.00    +0.022 A 
ATOM      5  C   UNL     1       2.520  -1.751   7.907  0.00  0.00    +0.003 A 
ATOM      6  C   UNL     1       2.439  -1.826   9.312  0.00  0.00    +0.059 A 
ATOM      7  C   UNL     1       3.486  -2.337  10.018  0.00  0.00    +0.162 A 
ATOM      8  C   UNL     1       4.648  -2.794   9.377  0.00  0.00    +0.163 A 
ATOM      9  C   UNL     1       4.779  -2.746   8.020  0.00  0.00    +0.075 A 
ATOM     10  C   UNL     1       3.733  -2.229   7.240  0.00  0.00    +0.051 A 
ATOM     11  N   UNL     1       3.816  -2.162   5.909  0.00  0.00    -0.349 N 
ATOM     12  C   UNL     1       2.833  -1.677   5.189  0.00  0.00    +0.088 A 
ATOM     13  S   UNL     1       2.625  -1.459   3.437  0.00  0.00    -0.064 S 
ATOM     14  H   UNL     1       4.619  -2.478   5.466  0.00  0.00    +0.166 HD
ENDROOT
BRANCH   1  25
ATOM     15  C   UNL     1       1.631  -2.833   1.250  0.00  0.00    +0.029 C 
ATOM     16  C   UNL     1       1.824  -1.407   0.731  0.00  0.00    +0.083 C 
ATOM     17  C   UNL     1       1.898  -1.403  -0.805  0.00  0.00    +0.059 C 
ATOM     18  C   UNL     1       0.728  -0.550  -1.240  0.00  0.00    -0.024 A 
ATOM     19  C   UNL     1       0.289  -0.188  -2.499  0.00  0.00    +0.005 A 
ATOM     20  C   UNL     1      -0.826   0.617  -2.641  0.00  0.00    +0.000 A 
ATOM     21  C   UNL     1      -1.502   1.060  -1.519  0.00  0.00    +0.002 A 
ATOM     22  C   UNL     1      -1.069   0.701  -0.261  0.00  0.00    +0.024 A 
ATOM     23  C   UNL     1       0.057  -0.111  -0.109  0.00  0.00    +0.040 A 
ATOM     24  N   UNL     1       0.658  -0.583   1.063  0.00  0.00    -0.264 N 
ATOM     25  C   UNL     1       0.229  -0.321   2.314  0.00  0.00    +0.260 C 
ATOM     26  O   UNL     1      -0.819   0.277   2.485  0.00  0.00    -0.269 OA
ENDBRANCH   1  25
BRANCH   2  27
ATOM     27  N   UNL     1      -0.572  -0.191   5.163  0.00  0.00    -0.356 N 
ATOM     28  H   UNL     1      -1.202   0.136   4.502  0.00  0.00    +0.142 HD
ATOM     29  H   UNL     1      -0.799  -0.164   6.106  0.00  0.00    +0.142 HD
ENDBRANCH   2  27
BRANCH   8  30
ATOM     30  O   UNL     1       5.665  -3.295  10.126  0.00  0.00    -0.491 OA
ATOM     31  C   UNL     1       6.825  -3.746   9.424  0.00  0.00    +0.277 C 
ENDBRANCH   8  30
BRANCH   7  32
ATOM     32  O   UNL     1       3.403  -2.407  11.373  0.00  0.00    -0.491 OA
ATOM     33  C   UNL     1       2.199  -1.928  11.975  0.00  0.00    +0.277 C 
ENDBRANCH   7  32
TORSDOF 4
