REMARK  Name = ZINC11662257
REMARK  8 active torsions:
REMARK  status: ('A' for Active; 'I' for Inactive)
REMARK    1  A    between atoms: C_1  and  C_2
REMARK    2  A    between atoms: C_7  and  N_8
REMARK    3  A    between atoms: C_13  and  N_53
REMARK    4  A    between atoms: C_16  and  C_18
REMARK    5  A    between atoms: C_16  and  C_19
REMARK    6  A    between atoms: C_20  and  C_21
REMARK    7  A    between atoms: C_20  and  N_53
REMARK    8  A    between atoms: C_26  and  O_27
REMARK                            x       y       z     vdW  Elec       q    Type
REMARK                         _______ _______ _______ _____ _____    ______ ____
ROOT
ATOM      1  N   UNL     1      -1.078   4.997   3.598  0.00  0.00    -0.236 N 
ATOM      2  C   UNL     1      -1.663   3.797   3.773  0.00  0.00    +0.047 A 
ATOM      3  C   UNL     1      -0.939   2.877   3.085  0.00  0.00    -0.020 A 
ATOM      4  C   UNL     1       0.124   3.538   2.471  0.00  0.00    +0.137 A 
ATOM      5  N   UNL     1       0.044   4.811   2.777  0.00  0.00    -0.174 NA
ATOM      6  C   UNL     1      -1.273   1.408   3.029  0.00  0.00    -0.037 C 
ATOM      7  C   UNL     1      -2.722   1.223   3.495  0.00  0.00    -0.005 C 
ATOM      8  C   UNL     1      -2.930   1.958   4.821  0.00  0.00    -0.031 C 
ATOM      9  C   UNL     1      -2.896   3.472   4.579  0.00  0.00    +0.062 C 
ATOM     10  C   UNL     1      -1.817   1.573   5.798  0.00  0.00    +0.011 C 
ATOM     11  C   UNL     1      -4.286   1.567   5.414  0.00  0.00    +0.011 C 
ENDROOT
BRANCH   1  18
ATOM     12  C   UNL     1       0.837   6.653   4.898  0.00  0.00    +0.046 C 
ATOM     13  C   UNL     1      -0.612   7.052   4.781  0.00  0.00    -0.025 A 
ATOM     14  C   UNL     1      -1.043   8.254   5.309  0.00  0.00    +0.005 A 
ATOM     15  C   UNL     1      -2.373   8.618   5.207  0.00  0.00    +0.000 A 
ATOM     16  C   UNL     1      -3.275   7.783   4.573  0.00  0.00    +0.002 A 
ATOM     17  C   UNL     1      -2.849   6.582   4.039  0.00  0.00    +0.028 A 
ATOM     18  C   UNL     1      -1.514   6.214   4.139  0.00  0.00    +0.069 A 
ENDBRANCH   1  18
BRANCH   6  19
ATOM     19  N   UNL     1      -1.138   0.920   1.643  0.00  0.00    +0.386 N 
ATOM     20  H   UNL     1      -1.428   1.660   0.994  0.00  0.00    -0.085 HD
ATOM     21  H   UNL     1      -1.739   0.097   1.514  0.00  0.00    -0.085 HD
BRANCH  19  22
ATOM     22  C   UNL     1       0.262   0.549   1.364  0.00  0.00    -0.042 C 
BRANCH  22  23
ATOM     23  C   UNL     1       0.368   0.055  -0.055  0.00  0.00    -0.023 A 
ATOM     24  C   UNL     1       0.402  -1.302  -0.315  0.00  0.00    +0.005 A 
ATOM     25  C   UNL     1       0.500  -1.756  -1.617  0.00  0.00    +0.000 A 
ATOM     26  C   UNL     1       0.564  -0.853  -2.663  0.00  0.00    +0.004 A 
ATOM     27  C   UNL     1       0.524   0.504  -2.409  0.00  0.00    +0.045 A 
ATOM     28  C   UNL     1       0.432   0.962  -1.103  0.00  0.00    +0.118 A 
BRANCH  28  29
ATOM     29  O   UNL     1       0.399   2.297  -0.850  0.00  0.00    -0.507 OA
ATOM     30  H   UNL     1       1.271   2.693  -0.715  0.00  0.00    +0.292 HD
ENDBRANCH  28  29
ENDBRANCH  22  23
ENDBRANCH  19  22
ENDBRANCH   6  19
TORSDOF 5
