REMARK  Name = ZINC38827475
REMARK  9 active torsions:
REMARK  status: ('A' for Active; 'I' for Inactive)
REMARK    1  A    between atoms: C_1  and  C_2
REMARK    2  A    between atoms: C_3  and  C_15
REMARK    3  A    between atoms: N_6  and  C_8
REMARK    4  A    between atoms: C_19  and  C_29
REMARK    5  A    between atoms: C_24  and  N_28
REMARK    6  A    between atoms: C_25  and  C_26
REMARK    7  A    between atoms: C_29  and  C_30
REMARK    8  A    between atoms: C_29  and  C_31
REMARK    9  A    between atoms: C_29  and  C_32
REMARK                            x       y       z     vdW  Elec       q    Type
REMARK                         _______ _______ _______ _____ _____    ______ ____
ROOT
ATOM      1  C   UNL     1      -2.545   0.034   0.154  0.00  0.00    +0.083 C 
ATOM      2  C   UNL     1      -3.150  -0.347   1.510  0.00  0.00    +0.136 C 
ATOM      3  C   UNL     1      -2.078  -0.476   2.567  0.00  0.00    +0.059 C 
ATOM      4  N   UNL     1      -2.069  -1.719   2.924  0.00  0.00    -0.154 NA
ATOM      5  N   UNL     1      -2.997  -2.484   2.217  0.00  0.00    -0.115 NA
ATOM      6  C   UNL     1      -3.656  -1.778   1.351  0.00  0.00    +0.227 C 
ATOM      7  O   UNL     1      -4.549  -2.100   0.391  0.00  0.00    -0.425 OA
ATOM      8  C   UNL     1      -4.348  -1.460  -0.791  0.00  0.00    +0.200 C 
ATOM      9  C   UNL     1      -3.444  -0.469  -0.944  0.00  0.00    +0.095 C 
ENDROOT
BRANCH   1  12
ATOM     10  C   UNL     1      -0.057   1.413  -0.949  0.00  0.00    +0.062 C 
ATOM     11  C   UNL     1      -0.101  -0.011  -0.457  0.00  0.00    +0.022 C 
ATOM     12  C   UNL     1      -1.181  -0.594   0.017  0.00  0.00    -0.006 C 
ATOM     13  C   UNL     1      -0.806  -2.009   0.398  0.00  0.00    +0.213 C 
ATOM     14  N   UNL     1       0.625  -2.113   0.067  0.00  0.00    -0.231 N 
ATOM     15  N   UNL     1       0.987  -0.863  -0.454  0.00  0.00    -0.267 N 
ATOM     16 CL   UNL     1      -1.765  -3.195  -0.563  0.00  0.00    -0.094 Cl
ATOM     17  H   UNL     1       1.875  -0.628  -0.766  0.00  0.00    +0.170 HD
BRANCH  14  18
ATOM     18  C   UNL     1       1.450  -3.228   0.232  0.00  0.00    +0.050 A 
ATOM     19  C   UNL     1       0.931  -4.406   0.756  0.00  0.00    +0.025 A 
ATOM     20  C   UNL     1       1.749  -5.507   0.918  0.00  0.00    +0.002 A 
ATOM     21  C   UNL     1       3.083  -5.438   0.559  0.00  0.00    +0.000 A 
ATOM     22  C   UNL     1       3.603  -4.267   0.038  0.00  0.00    +0.002 A 
ATOM     23  C   UNL     1       2.789  -3.164  -0.132  0.00  0.00    +0.025 A 
ENDBRANCH  14  18
ENDBRANCH   1  12
BRANCH   3  24
ATOM     24  C   UNL     1      -1.194   0.624   3.098  0.00  0.00    +0.003 C 
ATOM     25  C   UNL     1      -0.177   0.033   4.076  0.00  0.00    +0.017 C 
ATOM     26  C   UNL     1      -0.457   1.292   1.936  0.00  0.00    +0.017 C 
ATOM     27  C   UNL     1      -2.053   1.663   3.821  0.00  0.00    +0.017 C 
ENDBRANCH   3  24
BRANCH   8  28
ATOM     28  N   UNL     1      -5.098  -1.837  -1.878  0.00  0.00    -0.328 N 
ATOM     29  H   UNL     1      -5.753  -2.547  -1.792  0.00  0.00    +0.145 HD
ATOM     30  H   UNL     1      -4.971  -1.394  -2.731  0.00  0.00    +0.145 HD
ENDBRANCH   8  28
BRANCH   9  31
ATOM     31  C   UNL     1      -3.333   0.146  -2.232  0.00  0.00    +0.100 C 
ATOM     32  N   UNL     1      -3.244   0.634  -3.254  0.00  0.00    -0.191 NA
ENDBRANCH   9  31
TORSDOF 5
