REMARK  Name = ZINC39603982
REMARK  9 active torsions:
REMARK  status: ('A' for Active; 'I' for Inactive)
REMARK    1  A    between atoms: C_1  and  C_2
REMARK    2  A    between atoms: C_2  and  O_3
REMARK    3  A    between atoms: O_3  and  C_4
REMARK    4  A    between atoms: C_4  and  C_6
REMARK    5  A    between atoms: C_6  and  C_7
REMARK    6  A    between atoms: C_7  and  N_8
REMARK    7  A    between atoms: C_9  and  C_11
REMARK    8  A    between atoms: C_22  and  C_24
REMARK    9  A    between atoms: C_27  and  C_31
REMARK                            x       y       z     vdW  Elec       q    Type
REMARK                         _______ _______ _______ _____ _____    ______ ____
ROOT
ATOM      1  C   UNL     1       2.219  -6.325  -5.013  0.00  0.00    +0.100 C 
ATOM      2  C   UNL     1       1.722  -5.982  -6.435  0.00  0.00    +0.121 C 
ATOM      3  N   UNL     1       1.965  -7.214  -7.223  0.00  0.00    -0.296 N 
ATOM      4  C   UNL     1       1.613  -8.318  -6.299  0.00  0.00    +0.115 C 
ATOM      5  C   UNL     1       2.145  -7.859  -4.927  0.00  0.00    -0.004 C 
ATOM      6  C   UNL     1       1.183  -8.281  -3.821  0.00  0.00    -0.010 C 
ATOM      7  C   UNL     1       1.171  -9.809  -3.716  0.00  0.00    -0.082 C 
ATOM      8  N   UNL     1       2.526 -10.292  -3.425  0.00  0.00    +0.379 N 
ATOM      9  C   UNL     1       3.425  -9.963  -4.538  0.00  0.00    -0.082 C 
ATOM     10  C   UNL     1       3.533  -8.442  -4.677  0.00  0.00    -0.010 C 
ATOM     11  C   UNL     1       2.406  -7.308  -8.493  0.00  0.00    +0.247 C 
ATOM     12  O   UNL     1       2.777  -6.312  -9.083  0.00  0.00    -0.270 OA
ATOM     13  H   UNL     1       2.864  -9.854  -2.581  0.00  0.00    -0.086 HD
ATOM     14  H   UNL     1       2.505 -11.292  -3.296  0.00  0.00    -0.086 HD
ENDROOT
BRANCH  11  15
ATOM     15  C   UNL     1       2.440  -8.623  -9.169  0.00  0.00    +0.040 A 
ATOM     16  C   UNL     1       1.646  -9.671  -8.701  0.00  0.00    +0.014 A 
ATOM     17  C   UNL     1       1.681 -10.896  -9.335  0.00  0.00    +0.016 A 
ATOM     18  C   UNL     1       2.500 -11.087 -10.433  0.00  0.00    +0.090 A 
ATOM     19  C   UNL     1       3.291 -10.052 -10.903  0.00  0.00    +0.136 A 
ATOM     20  C   UNL     1       3.260  -8.819 -10.280  0.00  0.00    +0.052 A 
ATOM     21  F   UNL     1       4.089 -10.246 -11.976  0.00  0.00    -0.205 F 
BRANCH  18  22
ATOM     22  C   UNL     1       2.532 -12.428 -11.120  0.00  0.00    +0.420 C 
ATOM     23  F   UNL     1       1.658 -13.306 -10.471  0.00  0.00    -0.166 F 
ATOM     24  F   UNL     1       2.137 -12.278 -12.454  0.00  0.00    -0.166 F 
ATOM     25  F   UNL     1       3.831 -12.945 -11.074  0.00  0.00    -0.166 F 
ENDBRANCH  18  22
ENDBRANCH  11  15
BRANCH   1  27
ATOM     26  N   UNL     1       1.823  -5.334  -2.781  0.00  0.00    -0.314 N 
ATOM     27  C   UNL     1       1.321  -5.698  -3.978  0.00  0.00    +0.218 C 
ATOM     28  O   UNL     1       0.146  -5.521  -4.221  0.00  0.00    -0.275 OA
ATOM     29  H   UNL     1       2.763  -5.475  -2.587  0.00  0.00    +0.149 HD
BRANCH  26  30
ATOM     30  C   UNL     1       0.950  -4.724  -1.775  0.00  0.00    +0.115 C 
BRANCH  30  31
ATOM     31  C   UNL     1       1.764  -4.408  -0.518  0.00  0.00    +0.139 C 
BRANCH  31  32
ATOM     32  C   UNL     1       0.866  -3.781   0.517  0.00  0.00    +0.309 C 
ATOM     33  O   UNL     1      -0.305  -3.605   0.274  0.00  0.00    -0.251 OA
BRANCH  32  34
ATOM     34  O   UNL     1       1.366  -3.418   1.708  0.00  0.00    -0.465 OA
BRANCH  34  36
ATOM     35  C   UNL     1       1.204  -2.485   3.931  0.00  0.00    +0.048 C 
ATOM     36  C   UNL     1       0.458  -2.830   2.641  0.00  0.00    +0.229 C 
ENDBRANCH  34  36
ENDBRANCH  32  34
ENDBRANCH  31  32
ENDBRANCH  30  31
ENDBRANCH  26  30
ENDBRANCH   1  27
TORSDOF 8
