REMARK  Name = ZINC08914083
REMARK  12 active torsions:
REMARK  status: ('A' for Active; 'I' for Inactive)
REMARK    1  A    between atoms: C_1  and  C_2
REMARK    2  A    between atoms: C_9  and  O_20
REMARK    3  A    between atoms: C_12  and  C_14
REMARK    4  A    between atoms: C_23  and  O_38
REMARK    5  A    between atoms: C_24  and  C_31
REMARK    6  A    between atoms: C_27  and  O_30
REMARK    7  A    between atoms: C_32  and  C_33
REMARK    8  A    between atoms: C_32  and  N_76
REMARK    9  A    between atoms: C_33  and  O_34
REMARK   10  A    between atoms: C_33  and  O_36
REMARK   11  A    between atoms: O_34  and  C_35
REMARK   12  A    between atoms: O_36  and  C_37
REMARK                            x       y       z     vdW  Elec       q    Type
REMARK                         _______ _______ _______ _____ _____    ______ ____
ROOT
ATOM      1  C   UNL     1      -1.044   9.089  -0.962  0.00  0.00    +0.014 C 
ATOM      2  C   UNL     1      -2.442   8.485  -1.056  0.00  0.00    +0.004 C 
ATOM      3  C   UNL     1      -2.496   7.477  -2.179  0.00  0.00    +0.010 C 
ATOM      4  C   UNL     1      -2.230   8.228  -3.500  0.00  0.00    +0.005 C 
ATOM      5  C   UNL     1      -3.258   9.320  -3.730  0.00  0.00    +0.009 C 
ATOM      6  C   UNL     1      -3.424  10.284  -2.567  0.00  0.00    +0.025 C 
ATOM      7  C   UNL     1      -3.557   9.530  -1.270  0.00  0.00    +0.075 C 
ATOM      8  C   UNL     1      -3.462  10.341   0.032  0.00  0.00    +0.036 C 
ATOM      9  C   UNL     1      -3.276   9.228   1.104  0.00  0.00    +0.011 C 
ATOM     10  C   UNL     1      -2.806   7.960   0.343  0.00  0.00    +0.027 C 
ATOM     11  C   UNL     1      -2.454  11.443  -2.507  0.00  0.00    +0.009 C 
ATOM     12  C   UNL     1      -1.844  11.755  -3.878  0.00  0.00    +0.036 C 
ATOM     13  C   UNL     1      -2.924  11.505  -4.922  0.00  0.00    +0.079 C 
ATOM     14  C   UNL     1      -3.130   9.999  -5.081  0.00  0.00    +0.036 C 
ATOM     15  C   UNL     1      -4.382   9.794  -5.939  0.00  0.00    +0.018 C 
ATOM     16  C   UNL     1      -4.178  10.438  -7.310  0.00  0.00    +0.032 C 
ATOM     17  C   UNL     1      -3.801  11.911  -7.208  0.00  0.00    +0.117 C 
ATOM     18  C   UNL     1      -2.611  12.136  -6.271  0.00  0.00    +0.067 C 
ENDROOT
BRANCH  10  19
ATOM     19  C   UNL     1      -1.586   7.376   1.003  0.00  0.00    -0.022 C 
ATOM     20  C   UNL     1      -0.797   7.981   1.887  0.00  0.00    +0.094 C 
ATOM     21  C   UNL     1       0.281   7.072   2.284  0.00  0.00    +0.332 C 
ATOM     22  O   UNL     1       1.163   7.340   3.077  0.00  0.00    -0.246 OA
ATOM     23  O   UNL     1       0.148   5.895   1.645  0.00  0.00    -0.457 OA
ATOM     24  C   UNL     1      -1.028   5.988   0.793  0.00  0.00    +0.264 C 
ENDBRANCH  10  19
BRANCH  14  25
ATOM     25  C   UNL     1      -1.958   9.410  -5.825  0.00  0.00    +0.060 C 
ATOM     26  N   UNL     1      -2.205   8.834  -6.980  0.00  0.00    -0.388 N 
ATOM     27  H   UNL     1      -3.165   8.799  -7.341  0.00  0.00    +0.159 HD
BRANCH  26  28
ATOM     28  C   UNL     1      -1.081   8.227  -7.773  0.00  0.00    +0.173 C 
BRANCH  28  29
ATOM     29  C   UNL     1      -1.314   6.717  -7.867  0.00  0.00    +0.268 C 
BRANCH  29  30
ATOM     30  O   UNL     1      -1.292   6.149  -6.556  0.00  0.00    -0.353 OA
ATOM     31  C   UNL     1      -1.079   4.736  -6.538  0.00  0.00    +0.197 C 
ENDBRANCH  29  30
BRANCH  29  32
ATOM     32  O   UNL     1      -2.584   6.468  -8.473  0.00  0.00    -0.353 OA
ATOM     33  C   UNL     1      -2.759   5.124  -8.924  0.00  0.00    +0.197 C 
ENDBRANCH  29  32
ENDBRANCH  28  29
ENDBRANCH  26  28
ENDBRANCH  14  25
BRANCH   7  34
ATOM     34  O   UNL     1      -4.838   8.853  -1.267  0.00  0.00    -0.388 OA
ATOM     35  H   UNL     1      -5.598   9.450  -1.248  0.00  0.00    +0.210 HD
ENDBRANCH   7  34
BRANCH  17  36
ATOM     36  O   UNL     1      -3.464  12.398  -8.513  0.00  0.00    -0.392 OA
ATOM     37  H   UNL     1      -4.168  12.291  -9.167  0.00  0.00    +0.210 HD
ENDBRANCH  17  36
BRANCH  13  38
ATOM     38  O   UNL     1      -4.147  12.094  -4.450  0.00  0.00    -0.388 OA
ATOM     39  H   UNL     1      -4.099  13.051  -4.323  0.00  0.00    +0.210 HD
ENDBRANCH  13  38
TORSDOF 9
