REMARK  Name = ZINC40796265
REMARK  5 active torsions:
REMARK  status: ('A' for Active; 'I' for Inactive)
REMARK    1  A    between atoms: C_1  and  C_2
REMARK    2  A    between atoms: C_5  and  O_8
REMARK    3  A    between atoms: O_8  and  C_9
REMARK    4  A    between atoms: C_10  and  N_27
REMARK    5  A    between atoms: C_11  and  N_15
REMARK                            x       y       z     vdW  Elec       q    Type
REMARK                         _______ _______ _______ _____ _____    ______ ____
ROOT
ATOM      1  C   UNL     1      -1.068  -4.719   2.290  0.00  0.00    +0.246 A 
ATOM      2  C   UNL     1      -1.103  -6.113   2.290  0.00  0.00    +0.128 A 
ATOM      3  C   UNL     1       0.109  -6.803   2.199  0.00  0.00    +0.149 A 
ATOM      4  N   UNL     1       1.241  -6.109   2.115  0.00  0.00    -0.219 NA
ATOM      5  C   UNL     1       1.228  -4.791   2.118  0.00  0.00    +0.227 A 
ATOM      6  N   UNL     1       0.107  -4.103   2.197  0.00  0.00    -0.199 NA
ENDROOT
BRANCH   3   7
ATOM      7  N   UNL     1       0.131  -8.192   2.196  0.00  0.00    -0.311 N 
ATOM      8  C   UNL     1      -0.053  -8.940   0.944  0.00  0.00    +0.125 C 
ATOM      9  C   UNL     1       1.142  -9.883   0.757  0.00  0.00    +0.125 C 
ATOM     10  N   UNL     1       1.351 -10.631   2.005  0.00  0.00    -0.314 N 
ATOM     11  C   UNL     1       1.535  -9.883   3.256  0.00  0.00    +0.125 C 
ATOM     12  C   UNL     1       0.345  -8.939   3.443  0.00  0.00    +0.125 C 
ATOM     13  C   UNL     1       1.373 -12.021   2.002  0.00  0.00    +0.099 A 
ATOM     14  C   UNL     1       1.343 -12.708   0.792  0.00  0.00    +0.042 A 
ATOM     15  C   UNL     1       1.366 -14.091   0.804  0.00  0.00    +0.005 A 
ATOM     16  C   UNL     1       1.418 -14.742   2.029  0.00  0.00    +0.018 A 
ATOM     17  C   UNL     1       1.445 -13.997   3.191  0.00  0.00    +0.084 A 
ATOM     18  N   UNL     1       1.428 -12.678   3.149  0.00  0.00    -0.350 N 
ATOM     19  H   UNL     1       1.452 -12.179   3.980  0.00  0.00    +0.166 HD
ENDBRANCH   3   7
BRANCH   2  20
ATOM     20  N   UNL     1      -2.321  -6.804   2.381  0.00  0.00    -0.351 N 
ATOM     21  H   UNL     1      -3.158  -6.314   2.371  0.00  0.00    +0.143 HD
ATOM     22  H   UNL     1      -2.326  -7.771   2.454  0.00  0.00    +0.143 HD
ENDBRANCH   2  20
BRANCH   1  23
ATOM     23  O   UNL     1      -2.216  -4.002   2.376  0.00  0.00    -0.436 OA
BRANCH  23  28
ATOM     24  C   UNL     1      -1.878   1.601   1.906  0.00  0.00    +0.044 C 
ATOM     25  C   UNL     1      -1.969   0.102   2.032  0.00  0.00    -0.050 A 
ATOM     26  C   UNL     1      -1.675  -0.701   0.945  0.00  0.00    +0.007 A 
ATOM     27  C   UNL     1      -1.757  -2.075   1.058  0.00  0.00    +0.046 A 
ATOM     28  C   UNL     1      -2.135  -2.650   2.263  0.00  0.00    +0.130 A 
ATOM     29  C   UNL     1      -2.429  -1.843   3.352  0.00  0.00    +0.046 A 
ATOM     30  C   UNL     1      -2.340  -0.469   3.235  0.00  0.00    +0.007 A 
ENDBRANCH  23  28
ENDBRANCH   1  23
TORSDOF 4
