REMARK  Name = ZINC08600093
REMARK  6 active torsions:
REMARK  status: ('A' for Active; 'I' for Inactive)
REMARK    1  A    between atoms: C_1  and  C_2
REMARK    2  A    between atoms: C_2  and  C_3
REMARK    3  A    between atoms: C_3  and  N_4
REMARK    4  A    between atoms: C_5  and  C_7
REMARK    5  A    between atoms: C_12  and  N_13
REMARK    6  A    between atoms: C_14  and  C_16
REMARK                            x       y       z     vdW  Elec       q    Type
REMARK                         _______ _______ _______ _____ _____    ______ ____
ROOT
ATOM      1  C   UNL     1      -2.552  -4.169  -0.001  0.00  0.00    +0.058 A 
ATOM      2  C   UNL     1      -1.342  -4.857  -0.121  0.00  0.00    +0.015 A 
ATOM      3  C   UNL     1      -1.334  -6.235  -0.131  0.00  0.00    +0.001 A 
ATOM      4  C   UNL     1      -2.520  -6.943  -0.024  0.00  0.00    +0.002 A 
ATOM      5  C   UNL     1      -3.723  -6.277   0.094  0.00  0.00    +0.024 A 
ATOM      6  C   UNL     1      -3.751  -4.889   0.113  0.00  0.00    +0.046 A 
ENDROOT
BRANCH   1   8
ATOM      7  N   UNL     1      -1.408  -2.007   0.002  0.00  0.00    -0.311 N 
ATOM      8  C   UNL     1      -2.568  -2.694   0.011  0.00  0.00    +0.246 C 
ATOM      9  O   UNL     1      -3.627  -2.098   0.029  0.00  0.00    -0.270 OA
ATOM     10  H   UNL     1      -0.563  -2.483  -0.012  0.00  0.00    +0.149 HD
BRANCH   7  11
ATOM     11  C   UNL     1      -1.424  -0.542   0.014  0.00  0.00    +0.104 C 
BRANCH  11  13
ATOM     12  C   UNL     1      -0.004   1.513   0.014  0.00  0.00    +0.005 C 
ATOM     13  C   UNL     1       0.013  -0.016   0.001  0.00  0.00    +0.015 C 
ENDBRANCH  11  13
ENDBRANCH   7  11
ENDBRANCH   1   8
BRANCH   6  14
ATOM     14  N   UNL     1      -4.962  -4.215   0.238  0.00  0.00    -0.280 N 
ATOM     15  C   UNL     1      -5.946  -4.733   1.000  0.00  0.00    +0.268 C 
ATOM     16  O   UNL     1      -5.743  -5.739   1.653  0.00  0.00    -0.268 OA
ATOM     17  H   UNL     1      -5.098  -3.372  -0.222  0.00  0.00    +0.155 HD
BRANCH  15  18
ATOM     18  C   UNL     1      -7.266  -4.082   1.041  0.00  0.00    +0.142 A 
ATOM     19  C   UNL     1      -8.339  -4.628   1.865  0.00  0.00    +0.021 A 
ATOM     20  C   UNL     1      -8.386  -5.753   2.710  0.00  0.00    +0.011 A 
ATOM     21  C   UNL     1      -9.532  -6.056   3.382  0.00  0.00    +0.001 A 
ATOM     22  C   UNL     1     -10.673  -5.275   3.257  0.00  0.00    +0.001 A 
ATOM     23  C   UNL     1     -10.662  -4.172   2.444  0.00  0.00    +0.017 A 
ATOM     24  C   UNL     1      -9.512  -3.850   1.755  0.00  0.00    +0.040 A 
ATOM     25  S   UNL     1      -9.030  -2.574   0.627  0.00  0.00    +0.012 S 
ATOM     26  N   UNL     1      -7.497  -3.000   0.344  0.00  0.00    -0.205 NA
ENDBRANCH  15  18
ENDBRANCH   6  14
TORSDOF 5
