REMARK  Name = ZINC13011055
REMARK  7 active torsions:
REMARK  status: ('A' for Active; 'I' for Inactive)
REMARK    1  A    between atoms: C_1  and  C_2
REMARK    2  A    between atoms: C_5  and  N_9
REMARK    3  A    between atoms: C_6  and  C_8
REMARK    4  A    between atoms: C_10  and  C_12
REMARK    5  A    between atoms: C_12  and  C_14
REMARK    6  A    between atoms: C_12  and  O_15
REMARK    7  A    between atoms: O_15  and  C_16
REMARK                            x       y       z     vdW  Elec       q    Type
REMARK                         _______ _______ _______ _____ _____    ______ ____
ROOT
ATOM      1  C   UNL     1       5.944   3.340   0.053  0.00  0.00    +0.256 C 
ATOM      2  C   UNL     1       6.507   3.097  -1.348  0.00  0.00    +0.062 C 
ENDROOT
BRANCH   1   4
ATOM      3  N   UNL     1       8.171   3.635   1.089  0.00  0.00    -0.282 N 
ATOM      4  C   UNL     1       6.939   4.132   0.864  0.00  0.00    +0.258 C 
ATOM      5  O   UNL     1       6.630   5.215   1.313  0.00  0.00    -0.271 OA
ATOM      6  H   UNL     1       8.440   2.799   0.678  0.00  0.00    +0.155 HD
BRANCH   3  11
ATOM      7  C   UNL     1      11.786   6.436   4.447  0.00  0.00    +0.044 C 
ATOM      8  C   UNL     1      10.826   5.692   3.555  0.00  0.00    -0.050 A 
ATOM      9  C   UNL     1       9.945   6.394   2.752  0.00  0.00    +0.005 A 
ATOM     10  C   UNL     1       9.063   5.715   1.934  0.00  0.00    +0.024 A 
ATOM     11  C   UNL     1       9.063   4.326   1.917  0.00  0.00    +0.036 A 
ATOM     12  C   UNL     1       9.945   3.625   2.728  0.00  0.00    -0.029 A 
ATOM     13  C   UNL     1      10.828   4.309   3.540  0.00  0.00    +0.008 A 
ATOM     14  C   UNL     1       9.944   2.118   2.718  0.00  0.00    +0.045 C 
ENDBRANCH   3  11
ENDBRANCH   1   4
BRANCH   1  15
ATOM     15  O   UNL     1       4.721   4.072  -0.045  0.00  0.00    -0.480 OA
BRANCH  15  16
ATOM     16  C   UNL     1       3.572   3.349  -0.073  0.00  0.00    +0.125 A 
ATOM     17  C   UNL     1       2.342   4.005  -0.039  0.00  0.00    +0.046 A 
ATOM     18  C   UNL     1       1.178   3.293  -0.067  0.00  0.00    +0.015 A 
ATOM     19  C   UNL     1       1.219   1.895  -0.130  0.00  0.00    +0.018 A 
ATOM     20  C   UNL     1      -0.013   1.105  -0.160  0.00  0.00    +0.018 A 
ATOM     21  C   UNL     1       0.093  -0.248  -0.215  0.00  0.00    +0.092 A 
ATOM     22  C   UNL     1       1.367  -0.851  -0.253  0.00  0.00    +0.337 A 
ATOM     23  O   UNL     1       1.448  -2.065  -0.307  0.00  0.00    -0.245 OA
ATOM     24  O   UNL     1       2.493  -0.121  -0.225  0.00  0.00    -0.422 OA
ATOM     25  C   UNL     1       2.458   1.228  -0.165  0.00  0.00    +0.143 A 
ATOM     26  C   UNL     1       3.631   1.967  -0.136  0.00  0.00    +0.092 A 
ENDBRANCH  15  16
ENDBRANCH   1  15
TORSDOF 4
