REMARK  Name = ZINC39659671
REMARK  6 active torsions:
REMARK  status: ('A' for Active; 'I' for Inactive)
REMARK    1  A    between atoms: C_1  and  C_2
REMARK    2  A    between atoms: C_2  and  C_35
REMARK    3  A    between atoms: C_5  and  C_8
REMARK    4  A    between atoms: C_8  and  N_9
REMARK    5  A    between atoms: C_10  and  C_12
REMARK    6  A    between atoms: C_23  and  C_25
REMARK                            x       y       z     vdW  Elec       q    Type
REMARK                         _______ _______ _______ _____ _____    ______ ____
ROOT
ATOM      1  C   UNL     1       3.361  -2.966   4.860  0.00  0.00    +0.100 C 
ATOM      2  C   UNL     1       4.313  -1.830   4.423  0.00  0.00    +0.121 C 
ATOM      3  N   UNL     1       4.520  -1.023   5.648  0.00  0.00    -0.295 N 
ATOM      4  C   UNL     1       4.621  -2.025   6.737  0.00  0.00    +0.115 C 
ATOM      5  C   UNL     1       3.569  -3.094   6.378  0.00  0.00    -0.004 C 
ATOM      6  C   UNL     1       4.090  -4.485   6.726  0.00  0.00    -0.010 C 
ATOM      7  C   UNL     1       4.234  -4.607   8.245  0.00  0.00    -0.082 C 
ATOM      8  N   UNL     1       2.931  -4.377   8.882  0.00  0.00    +0.379 N 
ATOM      9  C   UNL     1       2.480  -3.005   8.620  0.00  0.00    -0.082 C 
ATOM     10  C   UNL     1       2.263  -2.815   7.116  0.00  0.00    -0.010 C 
ATOM     11  C   UNL     1       4.599   0.318   5.750  0.00  0.00    +0.265 C 
ATOM     12  O   UNL     1       4.397   1.015   4.776  0.00  0.00    -0.268 OA
ATOM     13  H   UNL     1       2.256  -5.028   8.508  0.00  0.00    -0.086 HD
ATOM     14  H   UNL     1       3.015  -4.518   9.877  0.00  0.00    -0.086 HD
ENDROOT
BRANCH  11  15
ATOM     15  C   UNL     1       4.933   0.944   7.052  0.00  0.00    +0.126 A 
ATOM     16  C   UNL     1       4.896   2.342   7.170  0.00  0.00    +0.033 A 
ATOM     17  C   UNL     1       5.201   2.930   8.364  0.00  0.00    +0.012 A 
ATOM     18  C   UNL     1       5.546   2.101   9.447  0.00  0.00    +0.000 A 
ATOM     19  C   UNL     1       5.870   2.638  10.703  0.00  0.00    +0.010 A 
ATOM     20  C   UNL     1       6.199   1.805  11.728  0.00  0.00    +0.001 A 
ATOM     21  C   UNL     1       6.218   0.422  11.549  0.00  0.00    +0.002 A 
ATOM     22  C   UNL     1       5.910  -0.135  10.347  0.00  0.00    +0.028 A 
ATOM     23  C   UNL     1       5.564   0.694   9.261  0.00  0.00    +0.072 A 
ATOM     24  N   UNL     1       5.253   0.174   8.074  0.00  0.00    -0.242 NA
ENDBRANCH  11  15
BRANCH   1  26
ATOM     25  N   UNL     1       1.036  -3.565   4.264  0.00  0.00    -0.312 N 
ATOM     26  C   UNL     1       1.931  -2.600   4.555  0.00  0.00    +0.218 C 
ATOM     27  O   UNL     1       1.587  -1.438   4.571  0.00  0.00    -0.275 OA
ATOM     28  H   UNL     1       1.312  -4.494   4.251  0.00  0.00    +0.149 HD
BRANCH  25  29
ATOM     29  C   UNL     1      -0.354  -3.208   3.968  0.00  0.00    +0.138 C 
BRANCH  29  34
ATOM     30  C   UNL     1      -1.923  -5.770   0.443  0.00  0.00    +0.074 C 
ATOM     31  C   UNL     1      -1.861  -5.830   1.970  0.00  0.00    +0.165 C 
ATOM     32  O   UNL     1      -3.047  -5.245   2.524  0.00  0.00    -0.347 OA
ATOM     33  C   UNL     1      -2.632  -4.142   3.355  0.00  0.00    +0.196 C 
ATOM     34  C   UNL     1      -1.154  -4.479   3.674  0.00  0.00    +0.164 C 
ATOM     35  O   UNL     1      -0.719  -5.092   2.437  0.00  0.00    -0.342 OA
ATOM     36  C   UNL     1      -1.751  -7.287   2.424  0.00  0.00    +0.074 C 
ENDBRANCH  29  34
ENDBRANCH  25  29
ENDBRANCH   1  26
TORSDOF 4
