REMARK  Name = ZINC05282479
REMARK  6 active torsions:
REMARK  status: ('A' for Active; 'I' for Inactive)
REMARK    1  A    between atoms: C_1  and  C_2
REMARK    2  A    between atoms: C_2  and  C_8
REMARK    3  A    between atoms: N_3  and  N_4
REMARK    4  A    between atoms: C_8  and  C_9
REMARK    5  A    between atoms: C_9  and  C_11
REMARK    6  A    between atoms: C_9  and  N_17
REMARK                            x       y       z     vdW  Elec       q    Type
REMARK                         _______ _______ _______ _____ _____    ______ ____
ROOT
ATOM      1  C   UNL     1       0.666  -3.157  -0.021  0.00  0.00    +0.145 C 
ENDROOT
BRANCH   1   2
ATOM      2  N   UNL     1       1.574  -2.007  -0.024  0.00  0.00    -0.236 N 
ATOM      3  C   UNL     1       1.218  -0.679  -0.013  0.00  0.00    +0.090 A 
ATOM      4  C   UNL     1       0.002  -0.004   0.002  0.00  0.00    +0.029 A 
ATOM      5  C   UNL     1      -0.017   1.362   0.009  0.00  0.00    +0.002 A 
ATOM      6  C   UNL     1       1.170   2.085   0.002  0.00  0.00    +0.002 A 
ATOM      7  C   UNL     1       2.375   1.447  -0.013  0.00  0.00    +0.032 A 
ATOM      8  C   UNL     1       2.422   0.047  -0.021  0.00  0.00    +0.113 A 
ATOM      9  N   UNL     1       3.435  -0.842  -0.035  0.00  0.00    -0.129 NA
ATOM     10  N   UNL     1       2.976  -2.043  -0.037  0.00  0.00    -0.064 NA
ENDBRANCH   1   2
BRANCH   1  11
ATOM     11  C   UNL     1       0.925  -3.998   1.202  0.00  0.00    -0.023 A 
ATOM     12  C   UNL     1       2.171  -4.561   1.403  0.00  0.00    +0.006 A 
ATOM     13  C   UNL     1       2.410  -5.329   2.528  0.00  0.00    +0.000 A 
ATOM     14  C   UNL     1       1.399  -5.541   3.447  0.00  0.00    +0.000 A 
ATOM     15  C   UNL     1       0.151  -4.982   3.243  0.00  0.00    +0.000 A 
ATOM     16  C   UNL     1      -0.086  -4.211   2.121  0.00  0.00    +0.006 A 
ENDBRANCH   1  11
BRANCH   1  17
ATOM     17  C   UNL     1       0.905  -3.998  -1.277  0.00  0.00    +0.083 C 
BRANCH  17  19
ATOM     18  C   UNL     1      -0.105  -6.191  -0.286  0.00  0.00    +0.062 C 
ATOM     19  C   UNL     1      -0.109  -5.111  -1.337  0.00  0.00    +0.036 C 
ATOM     20  N   UNL     1      -0.974  -5.139  -2.280  0.00  0.00    -0.188 NA
BRANCH  20  21
ATOM     21  N   UNL     1      -1.916  -6.174  -2.336  0.00  0.00    -0.191 N 
ATOM     22  C   UNL     1      -2.827  -6.203  -3.329  0.00  0.00    +0.317 C 
ATOM     23  O   UNL     1      -3.645  -7.101  -3.377  0.00  0.00    -0.251 OA
ATOM     24  N   UNL     1      -2.831  -5.237  -4.269  0.00  0.00    -0.312 N 
ATOM     25  H   UNL     1      -1.914  -6.869  -1.660  0.00  0.00    +0.179 HD
ATOM     26  H   UNL     1      -2.178  -4.521  -4.231  0.00  0.00    +0.147 HD
ATOM     27  H   UNL     1      -3.486  -5.259  -4.984  0.00  0.00    +0.147 HD
ENDBRANCH  20  21
ENDBRANCH  17  19
ENDBRANCH   1  17
TORSDOF 5
