REMARK  Name = ZINC12516048
REMARK  6 active torsions:
REMARK  status: ('A' for Active; 'I' for Inactive)
REMARK    1  A    between atoms: C_1  and  C_2
REMARK    2  A    between atoms: C_9  and  N_14
REMARK    3  A    between atoms: N_14  and  C_15
REMARK    4  A    between atoms: C_15  and  C_17
REMARK    5  A    between atoms: C_15  and  C_18
REMARK    6  A    between atoms: N_23  and  C_24
REMARK                            x       y       z     vdW  Elec       q    Type
REMARK                         _______ _______ _______ _____ _____    ______ ____
ROOT
ATOM      1  N   UNL     1      -0.749   3.044   1.275  0.00  0.00    -0.333 N 
ATOM      2  H   UNL     1      -0.063   3.536   1.753  0.00  0.00    +0.147 HD
ENDROOT
BRANCH   1  10
ATOM      3  C   UNL     1      -5.996   7.787  -1.861  0.00  0.00    +0.062 C 
ATOM      4  C   UNL     1      -5.158   7.011  -0.843  0.00  0.00    +0.256 C 
ATOM      5  C   UNL     1      -3.948   7.826  -0.464  0.00  0.00    +0.258 C 
ATOM      6  O   UNL     1      -3.993   9.038  -0.504  0.00  0.00    -0.271 OA
ATOM      7  N   UNL     1      -2.813   7.202  -0.079  0.00  0.00    -0.279 N 
ATOM      8  C   UNL     1      -2.777   5.800  -0.074  0.00  0.00    +0.077 A 
ATOM      9  C   UNL     1      -1.779   5.122   0.606  0.00  0.00    +0.050 A 
ATOM     10  C   UNL     1      -1.757   3.734   0.593  0.00  0.00    +0.030 A 
ATOM     11  C   UNL     1      -2.739   3.029  -0.091  0.00  0.00    +0.026 A 
ATOM     12  C   UNL     1      -3.738   3.707  -0.766  0.00  0.00    +0.049 A 
ATOM     13  C   UNL     1      -3.761   5.090  -0.760  0.00  0.00    +0.143 A 
ATOM     14  O   UNL     1      -4.740   5.770  -1.417  0.00  0.00    -0.478 OA
ATOM     15  H   UNL     1      -2.036   7.716   0.190  0.00  0.00    +0.155 HD
ENDBRANCH   1  10
BRANCH   1  16
ATOM     16  C   UNL     1      -0.729   1.579   1.267  0.00  0.00    +0.154 C 
ATOM     17  C   UNL     1      -0.013   1.086   0.008  0.00  0.00    +0.038 C 
BRANCH  16  18
ATOM     18  C   UNL     1       0.000   1.080   2.488  0.00  0.00    +0.240 C 
ATOM     19  O   UNL     1       0.458   1.870   3.286  0.00  0.00    -0.273 OA
ATOM     20  N   UNL     1       0.143  -0.244   2.692  0.00  0.00    -0.239 N 
ATOM     21  C   UNL     1       0.795  -0.691   3.784  0.00  0.00    +0.306 C 
ATOM     22  O   UNL     1       1.254   0.101   4.584  0.00  0.00    -0.252 OA
ATOM     23  N   UNL     1       0.938  -2.015   3.989  0.00  0.00    -0.296 N 
ATOM     24  H   UNL     1      -0.223  -0.876   2.054  0.00  0.00    +0.159 HD
ATOM     25  H   UNL     1       0.572  -2.647   3.351  0.00  0.00    +0.151 HD
BRANCH  23  26
ATOM     26  C   UNL     1       1.647  -2.501   5.176  0.00  0.00    +0.075 C 
ATOM     27  C   UNL     1       2.643  -3.646   4.985  0.00  0.00    +0.024 C 
ATOM     28  C   UNL     1       1.303  -3.904   5.679  0.00  0.00    +0.024 C 
ENDBRANCH  23  26
ENDBRANCH  16  18
ENDBRANCH   1  16
TORSDOF 4
