REMARK  Name = ZINC66282564
REMARK  8 active torsions:
REMARK  status: ('A' for Active; 'I' for Inactive)
REMARK    1  A    between atoms: C_1  and  C_2
REMARK    2  A    between atoms: C_2  and  C_3
REMARK    3  A    between atoms: C_3  and  C_4
REMARK    4  A    between atoms: C_10  and  C_12
REMARK    5  A    between atoms: N_14  and  C_15
REMARK    6  A    between atoms: C_15  and  C_21
REMARK    7  A    between atoms: C_21  and  O_23
REMARK    8  A    between atoms: O_23  and  C_24
REMARK                            x       y       z     vdW  Elec       q    Type
REMARK                         _______ _______ _______ _____ _____    ______ ____
ROOT
ATOM      1  C   UNL     1      -0.007  -4.661   2.233  0.00  0.00    +0.235 C 
ATOM      2  O   UNL     1      -0.938  -3.885   2.190  0.00  0.00    -0.274 OA
ATOM      3  N   UNL     1      -0.237  -5.989   2.252  0.00  0.00    -0.298 N 
ATOM      4  H   UNL     1       0.507  -6.610   2.286  0.00  0.00    +0.150 HD
ENDROOT
BRANCH   1  11
ATOM      5  C   UNL     1       0.762  -2.018   1.233  0.00  0.00    +0.217 C 
ATOM      6  O   UNL     1       0.237  -2.626   0.325  0.00  0.00    -0.276 OA
ATOM      7  N   UNL     1       1.365  -2.689   2.235  0.00  0.00    -0.280 N 
ATOM      8  C   UNL     1       2.012  -1.986   3.364  0.00  0.00    +0.178 C 
ATOM      9  S   UNL     1       2.001  -3.302   4.660  0.00  0.00    -0.139 S 
ATOM     10  C   UNL     1       2.126  -4.736   3.501  0.00  0.00    +0.102 C 
ATOM     11  C   UNL     1       1.407  -4.141   2.265  0.00  0.00    +0.172 C 
BRANCH   5  12
ATOM     12  C   UNL     1       0.742  -0.511   1.242  0.00  0.00    +0.096 C 
BRANCH  12  14
ATOM     13  C   UNL     1      -0.019   1.526   0.010  0.00  0.00    +0.004 C 
ATOM     14  C   UNL     1       0.002  -0.004   0.002  0.00  0.00    +0.006 C 
ENDBRANCH  12  14
ENDBRANCH   5  12
ENDBRANCH   1  11
BRANCH   3  15
ATOM     15  C   UNL     1      -1.612  -6.495   2.221  0.00  0.00    +0.132 C 
ATOM     16  C   UNL     1      -2.376  -5.970   3.438  0.00  0.00    +0.037 C 
ATOM     17  C   UNL     1      -1.687  -6.446   4.718  0.00  0.00    +0.003 C 
ATOM     18  C   UNL     1      -1.668  -7.975   4.748  0.00  0.00    +0.000 C 
ATOM     19  C   UNL     1      -0.904  -8.501   3.532  0.00  0.00    +0.003 C 
ATOM     20  C   UNL     1      -1.594  -8.024   2.252  0.00  0.00    +0.037 C 
BRANCH  15  21
ATOM     21  C   UNL     1      -2.292  -6.026   0.960  0.00  0.00    +0.331 C 
ATOM     22  O   UNL     1      -3.092  -6.739   0.404  0.00  0.00    -0.248 OA
BRANCH  21  23
ATOM     23  O   UNL     1      -2.007  -4.815   0.455  0.00  0.00    -0.466 OA
ATOM     24  C   UNL     1      -2.688  -4.435  -0.742  0.00  0.00    +0.280 C 
ENDBRANCH  21  23
ENDBRANCH  15  21
ENDBRANCH   3  15
TORSDOF 6
