REMARK  Name = ZINC40399426
REMARK  4 active torsions:
REMARK  status: ('A' for Active; 'I' for Inactive)
REMARK    1  A    between atoms: C_1  and  C_2
REMARK    2  A    between atoms: C_5  and  N_9
REMARK    3  A    between atoms: C_10  and  C_12
REMARK    4  A    between atoms: N_26  and  C_27
REMARK                            x       y       z     vdW  Elec       q    Type
REMARK                         _______ _______ _______ _____ _____    ______ ____
ROOT
ATOM      1  C   UNL     1      -0.003  -6.348  -1.012  0.00  0.00    +0.122 C 
ATOM      2  C   UNL     1      -1.282  -6.797  -0.304  0.00  0.00    +0.114 C 
ATOM      3  C   UNL     1      -1.459  -8.283  -0.474  0.00  0.00    +0.219 C 
ATOM      4  O   UNL     1      -1.909  -8.943   0.439  0.00  0.00    -0.275 OA
ATOM      5  N   UNL     1      -1.125  -8.886  -1.627  0.00  0.00    -0.270 N 
ATOM      6  C   UNL     1      -0.512  -8.180  -2.648  0.00  0.00    +0.138 A 
ATOM      7  C   UNL     1       0.038  -6.935  -2.397  0.00  0.00    +0.069 A 
ATOM      8  C   UNL     1       0.633  -6.230  -3.448  0.00  0.00    +0.258 A 
ATOM      9  O   UNL     1       1.117  -5.125  -3.261  0.00  0.00    -0.267 OA
ATOM     10  N   UNL     1       0.662  -6.796  -4.673  0.00  0.00    -0.295 N 
ATOM     11  H   UNL     1       1.056  -6.318  -5.420  0.00  0.00    +0.172 HD
ATOM     12  C   UNL     1       0.138  -8.039  -4.862  0.00  0.00    +0.202 A 
ATOM     13  N   UNL     1      -0.425  -8.704  -3.875  0.00  0.00    -0.200 NA
ATOM     14  N   UNL     1       0.198  -8.610  -6.106  0.00  0.00    -0.285 N 
ATOM     15  H   UNL     1      -1.315  -9.830  -1.746  0.00  0.00    +0.156 HD
ATOM     16  H   UNL     1       0.549  -8.104  -6.856  0.00  0.00    +0.155 HD
ENDROOT
BRANCH  14  17
ATOM     17  C   UNL     1      -0.246  -9.922  -6.296  0.00  0.00    +0.035 A 
ATOM     18  C   UNL     1      -1.337 -10.398  -5.580  0.00  0.00    +0.023 A 
ATOM     19  C   UNL     1      -1.774 -11.694  -5.769  0.00  0.00    +0.003 A 
ATOM     20  C   UNL     1      -1.127 -12.519  -6.670  0.00  0.00    +0.020 A 
ATOM     21  C   UNL     1      -0.040 -12.049  -7.385  0.00  0.00    +0.043 A 
ATOM     22  C   UNL     1       0.399 -10.751  -7.205  0.00  0.00    +0.043 A 
ATOM     23 CL   UNL     1       0.770 -13.089  -8.515  0.00  0.00    -0.083 Cl
ENDBRANCH  14  17
BRANCH   1  25
ATOM     24  N   UNL     1       1.068  -4.154  -0.616  0.00  0.00    -0.283 N 
ATOM     25  C   UNL     1       0.018  -4.844  -1.103  0.00  0.00    +0.225 C 
ATOM     26  O   UNL     1      -0.909  -4.254  -1.616  0.00  0.00    -0.275 OA
ATOM     27  H   UNL     1       1.846  -4.627  -0.280  0.00  0.00    +0.155 HD
BRANCH  24  32
ATOM     28  C   UNL     1       0.938   1.520  -0.522  0.00  0.00    +0.044 C 
ATOM     29  C   UNL     1       0.973   0.013  -0.547  0.00  0.00    -0.048 A 
ATOM     30  C   UNL     1      -0.208  -0.705  -0.545  0.00  0.00    +0.005 A 
ATOM     31  C   UNL     1      -0.180  -2.086  -0.568  0.00  0.00    +0.026 A 
ATOM     32  C   UNL     1       1.037  -2.754  -0.593  0.00  0.00    +0.069 A 
ATOM     33  C   UNL     1       2.224  -2.030  -0.595  0.00  0.00    +0.145 A 
ATOM     34  C   UNL     1       2.188  -0.647  -0.577  0.00  0.00    +0.043 A 
ATOM     35  F   UNL     1       3.410  -2.675  -0.619  0.00  0.00    -0.204 F 
ENDBRANCH  24  32
ENDBRANCH   1  25
TORSDOF 3
