REMARK  Name = ZINC12571294
REMARK  6 active torsions:
REMARK  status: ('A' for Active; 'I' for Inactive)
REMARK    1  A    between atoms: C_1  and  C_2
REMARK    2  A    between atoms: C_4  and  C_16
REMARK    3  A    between atoms: C_5  and  C_15
REMARK    4  A    between atoms: N_6  and  C_7
REMARK    5  A    between atoms: C_10  and  O_13
REMARK    6  A    between atoms: O_13  and  C_14
REMARK                            x       y       z     vdW  Elec       q    Type
REMARK                         _______ _______ _______ _____ _____    ______ ____
ROOT
ATOM      1  C   UNL     1       0.334  -3.324  -1.542  0.00  0.00    +0.211 C 
ATOM      2  N   UNL     1       1.754  -3.721  -1.572  0.00  0.00    -0.293 N 
ATOM      3  C   UNL     1       2.624  -3.076  -2.409  0.00  0.00    +0.183 C 
ATOM      4  N   UNL     1       2.219  -2.559  -3.556  0.00  0.00    -0.183 NA
ATOM      5  C   UNL     1       0.904  -2.625  -3.865  0.00  0.00    +0.236 A 
ATOM      6  N   UNL     1      -0.044  -2.999  -2.923  0.00  0.00    -0.285 N 
ATOM      7  C   UNL     1      -1.261  -2.984  -3.534  0.00  0.00    +0.072 A 
ATOM      8  C   UNL     1      -2.545  -3.281  -3.094  0.00  0.00    +0.028 A 
ATOM      9  C   UNL     1      -3.575  -3.151  -4.013  0.00  0.00    +0.002 A 
ATOM     10  C   UNL     1      -3.349  -2.744  -5.316  0.00  0.00    +0.002 A 
ATOM     11  C   UNL     1      -2.081  -2.441  -5.780  0.00  0.00    +0.030 A 
ATOM     12  C   UNL     1      -1.025  -2.566  -4.869  0.00  0.00    +0.091 A 
ATOM     13  N   UNL     1       0.305  -2.355  -5.001  0.00  0.00    -0.210 NA
ATOM     14  N   UNL     1       3.941  -2.965  -2.051  0.00  0.00    -0.331 N 
ATOM     15  H   UNL     1       4.248  -3.341  -1.212  0.00  0.00    +0.145 HD
ATOM     16  H   UNL     1       4.566  -2.511  -2.638  0.00  0.00    +0.145 HD
ATOM     17  H   UNL     1       2.070  -4.437  -0.999  0.00  0.00    +0.151 HD
ENDROOT
BRANCH   1  21
ATOM     18  C   UNL     1      -0.328   1.481   0.021  0.00  0.00    +0.064 C 
ATOM     19  C   UNL     1      -0.135  -0.014   0.007  0.00  0.00    +0.021 A 
ATOM     20  C   UNL     1      -0.007  -0.784  -1.093  0.00  0.00    +0.030 A 
ATOM     21  C   UNL     1       0.155  -2.115  -0.660  0.00  0.00    +0.014 A 
ATOM     22  C   UNL     1       0.120  -2.110   0.688  0.00  0.00    +0.028 A 
ATOM     23  N   UNL     1      -0.052  -0.821   1.105  0.00  0.00    -0.317 N 
ATOM     24  C   UNL     1       0.254  -3.317   1.581  0.00  0.00    +0.064 C 
BRANCH  23  25
ATOM     25  C   UNL     1      -0.134  -0.397   2.440  0.00  0.00    +0.047 A 
ATOM     26  C   UNL     1       0.967  -0.521   3.277  0.00  0.00    +0.030 A 
ATOM     27  C   UNL     1       0.887  -0.104   4.590  0.00  0.00    +0.047 A 
ATOM     28  C   UNL     1      -0.294   0.440   5.074  0.00  0.00    +0.120 A 
ATOM     29  C   UNL     1      -1.395   0.565   4.239  0.00  0.00    +0.047 A 
ATOM     30  C   UNL     1      -1.313   0.153   2.923  0.00  0.00    +0.030 A 
BRANCH  28  31
ATOM     31  O   UNL     1      -0.374   0.850   6.368  0.00  0.00    -0.495 OA
ATOM     32  C   UNL     1      -1.620   1.400   6.799  0.00  0.00    +0.277 C 
ENDBRANCH  28  31
ENDBRANCH  23  25
ENDBRANCH   1  21
TORSDOF 3
