REMARK  Name = ZINC35421526
REMARK  6 active torsions:
REMARK  status: ('A' for Active; 'I' for Inactive)
REMARK    1  A    between atoms: C_1  and  C_2
REMARK    2  A    between atoms: C_12  and  C_29
REMARK    3  A    between atoms: C_14  and  C_19
REMARK    4  A    between atoms: C_19  and  C_21
REMARK    5  A    between atoms: C_22  and  C_23
REMARK    6  A    between atoms: C_32  and  O_35
REMARK                            x       y       z     vdW  Elec       q    Type
REMARK                         _______ _______ _______ _____ _____    ______ ____
ROOT
ATOM      1  C   UNL     1      -0.018   1.503   0.010  0.00  0.00    +0.044 C 
ATOM      2  C   UNL     1       0.002  -0.004   0.002  0.00  0.00    -0.049 A 
ATOM      3  C   UNL     1       0.006  -0.698  -1.199  0.00  0.00    +0.005 A 
ATOM      4  C   UNL     1       0.025  -2.068  -1.235  0.00  0.00    +0.029 A 
ATOM      5  C   UNL     1       0.041  -2.822  -0.038  0.00  0.00    +0.080 A 
ATOM      6  C   UNL     1       0.036  -2.081   1.166  0.00  0.00    +0.041 A 
ATOM      7  C   UNL     1       0.023  -0.709   1.192  0.00  0.00    +0.020 A 
ATOM      8  S   UNL     1       0.060  -3.361   2.397  0.00  0.00    -0.052 S 
ATOM      9  C   UNL     1       0.074  -4.752   1.275  0.00  0.00    +0.169 A 
ATOM     10  N   UNL     1       0.060  -4.165   0.101  0.00  0.00    -0.224 NA
ATOM     11  N   UNL     1       0.094  -6.104   1.569  0.00  0.00    -0.232 N 
ATOM     12  C   UNL     1       0.111  -7.200   0.593  0.00  0.00    +0.152 C 
ATOM     13  C   UNL     1       0.130  -8.479   1.397  0.00  0.00    +0.076 C 
ATOM     14  C   UNL     1       0.125  -8.120   2.701  0.00  0.00    +0.250 C 
ATOM     15  C   UNL     1       0.109  -6.647   2.800  0.00  0.00    +0.293 C 
ATOM     16  O   UNL     1       0.106  -6.018   3.839  0.00  0.00    -0.266 OA
ATOM     17  O   UNL     1       0.138  -8.975   3.751  0.00  0.00    -0.282 OA
ENDROOT
BRANCH  12  18
ATOM     18  C   UNL     1       1.344  -7.109  -0.269  0.00  0.00    -0.022 A 
ATOM     19  C   UNL     1       2.557  -6.763   0.298  0.00  0.00    +0.009 A 
ATOM     20  C   UNL     1       3.689  -6.679  -0.490  0.00  0.00    +0.046 A 
ATOM     21  C   UNL     1       3.608  -6.941  -1.849  0.00  0.00    +0.117 A 
ATOM     22  C   UNL     1       2.390  -7.287  -2.415  0.00  0.00    +0.046 A 
ATOM     23  C   UNL     1       1.262  -7.376  -1.623  0.00  0.00    +0.009 A 
BRANCH  21  24
ATOM     24  O   UNL     1       4.720  -6.857  -2.626  0.00  0.00    -0.507 OA
ATOM     25  H   UNL     1       5.213  -7.686  -2.697  0.00  0.00    +0.292 HD
ENDBRANCH  21  24
ENDBRANCH  12  18
BRANCH  13  26
ATOM     26  C   UNL     1       0.151  -9.847   0.866  0.00  0.00    +0.188 C 
ATOM     27  O   UNL     1       0.165 -10.797   1.629  0.00  0.00    -0.287 OA
BRANCH  26  28
ATOM     28  C   UNL     1       0.153 -10.071  -0.581  0.00  0.00    +0.052 C 
ATOM     29  C   UNL     1       0.172 -11.330  -1.070  0.00  0.00    +0.011 C 
BRANCH  29  30
ATOM     30  C   UNL     1       0.174 -11.554  -2.524  0.00  0.00    -0.025 A 
ATOM     31  C   UNL     1       0.163 -10.466  -3.403  0.00  0.00    +0.008 A 
ATOM     32  C   UNL     1       0.166 -10.685  -4.764  0.00  0.00    +0.001 A 
ATOM     33  C   UNL     1       0.178 -11.977  -5.261  0.00  0.00    +0.000 A 
ATOM     34  C   UNL     1       0.190 -13.059  -4.398  0.00  0.00    +0.001 A 
ATOM     35  C   UNL     1       0.194 -12.857  -3.034  0.00  0.00    +0.008 A 
ENDBRANCH  29  30
ENDBRANCH  26  28
ENDBRANCH  13  26
TORSDOF 5
