REMARK  Name = ZINC63770212
REMARK  6 active torsions:
REMARK  status: ('A' for Active; 'I' for Inactive)
REMARK    1  A    between atoms: C_1  and  C_2
REMARK    2  A    between atoms: C_2  and  N_3
REMARK    3  A    between atoms: C_4  and  C_6
REMARK    4  A    between atoms: C_6  and  N_7
REMARK    5  A    between atoms: C_14  and  C_16
REMARK    6  A    between atoms: C_22  and  N_25
REMARK                            x       y       z     vdW  Elec       q    Type
REMARK                         _______ _______ _______ _____ _____    ______ ____
ROOT
ATOM      1  N   UNL     1       1.522  -3.849   2.477  0.00  0.00    +0.386 N 
ATOM      2  C   UNL     1       2.023  -4.232   3.795  0.00  0.00    -0.077 C 
ATOM      3  C   UNL     1       1.454  -5.581   4.173  0.00  0.00    +0.000 C 
ATOM      4  C   UNL     1       2.439  -6.688   3.756  0.00  0.00    +0.106 C 
ATOM      5  N   UNL     1       3.046  -6.392   2.443  0.00  0.00    -0.298 N 
ATOM      6  C   UNL     1       2.279  -5.856   1.338  0.00  0.00    +0.089 C 
ATOM      7  C   UNL     1       2.296  -4.310   1.388  0.00  0.00    -0.059 C 
ATOM      8  C   UNL     1       4.361  -6.629   2.267  0.00  0.00    +0.265 C 
ATOM      9  O   UNL     1       5.036  -7.032   3.195  0.00  0.00    -0.268 OA
ATOM     10  H   UNL     1       0.586  -4.211   2.377  0.00  0.00    -0.081 HD
ENDROOT
BRANCH   8  11
ATOM     11  C   UNL     1       4.980  -6.401   0.953  0.00  0.00    +0.127 A 
ATOM     12  C   UNL     1       6.256  -6.724   0.616  0.00  0.00    +0.043 A 
ATOM     13  C   UNL     1       6.456  -6.341  -0.733  0.00  0.00    +0.005 A 
ATOM     14  C   UNL     1       7.550  -6.423  -1.604  0.00  0.00    +0.010 A 
ATOM     15  C   UNL     1       7.437  -5.958  -2.881  0.00  0.00    +0.003 A 
ATOM     16  C   UNL     1       6.245  -5.401  -3.328  0.00  0.00    +0.035 A 
ATOM     17  C   UNL     1       5.156  -5.309  -2.491  0.00  0.00    +0.152 A 
ATOM     18  C   UNL     1       5.247  -5.778  -1.183  0.00  0.00    +0.102 A 
ATOM     19  N   UNL     1       4.355  -5.829  -0.139  0.00  0.00    -0.240 NA
BRANCH  17  20
ATOM     20  N   UNL     1       3.892  -4.715  -2.981  0.00  0.00    +0.059 N 
ATOM     21  O   UNL     1       3.815  -4.309  -4.117  0.00  0.00    -0.126 OA
ATOM     22  O   UNL     1       2.937  -4.635  -2.244  0.00  0.00    -0.126 OA
ENDBRANCH  17  20
ENDBRANCH   8  11
BRANCH   1  23
ATOM     23  C   UNL     1       1.460  -2.383   2.412  0.00  0.00    +0.019 C 
BRANCH  23  25
ATOM     24  N   UNL     1       0.532  -0.658   0.902  0.00  0.00    -0.317 N 
ATOM     25  C   UNL     1       0.714  -1.966   1.171  0.00  0.00    +0.196 C 
ATOM     26  O   UNL     1       0.277  -2.807   0.415  0.00  0.00    -0.278 OA
ATOM     27  H   UNL     1       0.881   0.015   1.507  0.00  0.00    +0.149 HD
BRANCH  24  29
ATOM     28  C   UNL     1      -0.259   1.275  -0.371  0.00  0.00    +0.024 C 
ATOM     29  C   UNL     1      -0.194  -0.252  -0.305  0.00  0.00    +0.101 C 
ENDBRANCH  24  29
ENDBRANCH  23  25
ENDBRANCH   1  23
TORSDOF 5
