REMARK  Name = ZINC36277834
REMARK  8 active torsions:
REMARK  status: ('A' for Active; 'I' for Inactive)
REMARK    1  A    between atoms: C_1  and  C_2
REMARK    2  A    between atoms: C_10  and  C_11
REMARK    3  A    between atoms: C_11  and  O_13
REMARK    4  A    between atoms: O_13  and  C_14
REMARK    5  A    between atoms: N_16  and  C_17
REMARK    6  A    between atoms: C_17  and  C_18
REMARK    7  A    between atoms: C_17  and  C_19
REMARK    8  A    between atoms: C_17  and  C_20
REMARK                            x       y       z     vdW  Elec       q    Type
REMARK                         _______ _______ _______ _____ _____    ______ ____
ROOT
ATOM      1  C   UNL     1      -0.074   1.502   0.015  0.00  0.00    +0.046 C 
ATOM      2  C   UNL     1      -0.049  -0.005   0.006  0.00  0.00    -0.017 A 
ATOM      3  C   UNL     1      -0.125  -0.701  -1.206  0.00  0.00    +0.051 A 
ATOM      4  C   UNL     1      -0.231  -0.191  -2.535  0.00  0.00    +0.132 A 
ATOM      5  N   UNL     1      -0.290  -1.038  -3.549  0.00  0.00    -0.202 NA
ATOM      6  C   UNL     1      -0.255  -2.348  -3.377  0.00  0.00    +0.225 A 
ATOM      7  N   UNL     1      -0.157  -2.883  -2.173  0.00  0.00    -0.210 NA
ATOM      8  C   UNL     1      -0.092  -2.114  -1.105  0.00  0.00    +0.116 A 
ATOM      9  S   UNL     1       0.041  -2.395   0.642  0.00  0.00    -0.062 S 
ATOM     10  C   UNL     1       0.054  -0.693   1.178  0.00  0.00    +0.102 A 
ATOM     11 CL   UNL     1      -0.339  -3.390  -4.763  0.00  0.00    -0.041 Cl
ATOM     12  N   UNL     1      -0.272   1.170  -2.760  0.00  0.00    -0.324 N 
ATOM     13  H   UNL     1      -0.139   1.787  -2.023  0.00  0.00    +0.148 HD
ENDROOT
BRANCH  12  14
ATOM     14  C   UNL     1      -0.516   1.683  -4.110  0.00  0.00    +0.025 C 
ATOM     15  C   UNL     1      -1.875   1.186  -4.606  0.00  0.00    +0.031 C 
ATOM     16  C   UNL     1      -0.512   3.213  -4.083  0.00  0.00    +0.031 C 
ATOM     17  C   UNL     1       0.583   1.186  -5.051  0.00  0.00    +0.031 C 
ENDBRANCH  12  14
BRANCH  10  18
ATOM     18  C   UNL     1       0.150  -0.165   2.542  0.00  0.00    +0.346 C 
ATOM     19  O   UNL     1       0.144   1.036   2.731  0.00  0.00    -0.244 OA
BRANCH  18  20
ATOM     20  O   UNL     1       0.246  -1.012   3.587  0.00  0.00    -0.464 OA
ATOM     21  C   UNL     1       0.337  -0.429   4.889  0.00  0.00    +0.280 C 
ENDBRANCH  18  20
ENDBRANCH  10  18
TORSDOF 3
