REMARK  Name = ZINC13222413
REMARK  9 active torsions:
REMARK  status: ('A' for Active; 'I' for Inactive)
REMARK    1  A    between atoms: C_1  and  C_2
REMARK    2  A    between atoms: C_3  and  C_32
REMARK    3  A    between atoms: C_4  and  C_31
REMARK    4  A    between atoms: C_9  and  S_11
REMARK    5  A    between atoms: S_11  and  C_12
REMARK    6  A    between atoms: C_12  and  C_14
REMARK    7  A    between atoms: C_12  and  C_15
REMARK    8  A    between atoms: N_20  and  C_21
REMARK    9  A    between atoms: C_32  and  C_33
REMARK                            x       y       z     vdW  Elec       q    Type
REMARK                         _______ _______ _______ _____ _____    ______ ____
ROOT
ATOM      1  C   UNL     1      -7.683  -3.655   0.986  0.00  0.00    +0.137 C 
ATOM      2  C   UNL     1      -8.457  -2.587   0.211  0.00  0.00    +0.029 C 
ENDROOT
BRANCH   1   3
ATOM      3  C   UNL     1      -8.646  -4.673   1.538  0.00  0.00    +0.234 C 
ATOM      4  O   UNL     1      -9.060  -4.564   2.673  0.00  0.00    -0.274 OA
ATOM      5  N   UNL     1      -9.048  -5.706   0.771  0.00  0.00    -0.239 N 
ATOM      6  C   UNL     1      -9.910  -6.617   1.265  0.00  0.00    +0.306 C 
ATOM      7  O   UNL     1     -10.325  -6.507   2.402  0.00  0.00    -0.252 OA
ATOM      8  N   UNL     1     -10.312  -7.650   0.498  0.00  0.00    -0.294 N 
ATOM      9  H   UNL     1      -8.717  -5.794  -0.136  0.00  0.00    +0.159 HD
ATOM     10  H   UNL     1      -9.981  -7.738  -0.409  0.00  0.00    +0.151 HD
BRANCH   8  11
ATOM     11  C   UNL     1     -11.249  -8.640   1.035  0.00  0.00    +0.037 C 
ATOM     12  C   UNL     1     -10.633  -9.310   2.265  0.00  0.00    +0.029 C 
ATOM     13  C   UNL     1     -11.612 -10.344   2.826  0.00  0.00    -0.008 C 
ATOM     14  C   UNL     1     -11.902 -11.402   1.760  0.00  0.00    +0.007 C 
ATOM     15  C   UNL     1     -12.517 -10.732   0.530  0.00  0.00    -0.008 C 
ATOM     16  C   UNL     1     -11.539  -9.698  -0.031  0.00  0.00    +0.029 C 
ATOM     17  C   UNL     1     -13.821 -10.037   0.927  0.00  0.00    +0.007 C 
ATOM     18  C   UNL     1     -13.531  -8.979   1.993  0.00  0.00    -0.008 C 
ATOM     19  C   UNL     1     -12.916  -9.649   3.223  0.00  0.00    +0.007 C 
ATOM     20  C   UNL     1     -12.553  -7.945   1.432  0.00  0.00    +0.029 C 
ENDBRANCH   8  11
ENDBRANCH   1   3
BRANCH   1  21
ATOM     21  S   UNL     1      -6.779  -2.874   2.352  0.00  0.00    -0.072 S 
BRANCH  21  30
ATOM     22  C   UNL     1      -2.452   0.995  -2.496  0.00  0.00    +0.066 C 
ATOM     23  C   UNL     1      -3.003   0.489  -1.188  0.00  0.00    +0.047 A 
ATOM     24  C   UNL     1      -2.462   0.945   0.019  0.00  0.00    +0.006 A 
ATOM     25  C   UNL     1      -2.972   0.485   1.191  0.00  0.00    +0.049 A 
ATOM     26  N   UNL     1      -3.993  -0.411   1.159  0.00  0.00    -0.200 N 
ATOM     27  C   UNL     1      -4.495  -0.841  -0.037  0.00  0.00    +0.254 A 
ATOM     28  N   UNL     1      -3.986  -0.383  -1.186  0.00  0.00    -0.216 NA
ATOM     29  N   UNL     1      -5.471  -1.702   0.230  0.00  0.00    -0.183 NA
ATOM     30  C   UNL     1      -5.606  -1.834   1.548  0.00  0.00    +0.212 A 
ATOM     31  N   UNL     1      -4.726  -1.066   2.158  0.00  0.00    -0.137 NA
ATOM     32  C   UNL     1      -2.415   0.963   2.507  0.00  0.00    +0.066 C 
BRANCH  24  33
ATOM     33  C   UNL     1      -1.329   1.940   0.019  0.00  0.00    +0.163 C 
BRANCH  33  34
ATOM     34  C   UNL     1      -0.014   1.204   0.009  0.00  0.00    +0.360 C 
ATOM     35  O   UNL     1       0.002  -0.004   0.002  0.00  0.00    -0.246 OA
ATOM     36  O   UNL     1       1.139   1.891   0.001  0.00  0.00    -0.246 OA
ENDBRANCH  33  34
ENDBRANCH  24  33
ENDBRANCH  21  30
ENDBRANCH   1  21
TORSDOF 6
