REMARK  Name = ZINC15913763
REMARK  7 active torsions:
REMARK  status: ('A' for Active; 'I' for Inactive)
REMARK    1  A    between atoms: C_1  and  C_2
REMARK    2  A    between atoms: C_3  and  C_20
REMARK    3  A    between atoms: C_4  and  C_10
REMARK    4  A    between atoms: C_13  and  O_16
REMARK    5  A    between atoms: O_16  and  C_17
REMARK    6  A    between atoms: N_22  and  C_23
REMARK    7  A    between atoms: C_26  and  N_29
REMARK                            x       y       z     vdW  Elec       q    Type
REMARK                         _______ _______ _______ _____ _____    ______ ____
ROOT
ATOM      1  C   UNL     1       0.172   4.476  -0.760  0.00  0.00    +0.061 C 
ATOM      2  C   UNL     1      -0.060   3.137  -0.108  0.00  0.00    +0.017 C 
ATOM      3  C   UNL     1      -1.308   2.795   0.279  0.00  0.00    +0.056 C 
ATOM      4  C   UNL     1      -1.498   1.437   0.925  0.00  0.00    +0.139 C 
ATOM      5  N   UNL     1      -0.297   0.602   1.089  0.00  0.00    -0.315 N 
ATOM      6  C   UNL     1       0.883   1.083   0.651  0.00  0.00    +0.135 C 
ATOM      7  S   UNL     1       2.288   0.120   0.829  0.00  0.00    -0.019 S 
ATOM      8  N   UNL     1       0.994   2.290   0.081  0.00  0.00    -0.300 N 
ATOM      9  H   UNL     1      -0.354  -0.276   1.498  0.00  0.00    +0.149 HD
ATOM     10  H   UNL     1       1.872   2.578  -0.213  0.00  0.00    +0.154 HD
ENDROOT
BRANCH   4  11
ATOM     11  C   UNL     1      -2.101   1.657   2.288  0.00  0.00    -0.022 A 
ATOM     12  C   UNL     1      -1.302   2.078   3.336  0.00  0.00    +0.009 A 
ATOM     13  C   UNL     1      -1.853   2.285   4.586  0.00  0.00    +0.046 A 
ATOM     14  C   UNL     1      -3.207   2.061   4.792  0.00  0.00    +0.127 A 
ATOM     15  C   UNL     1      -4.005   1.634   3.740  0.00  0.00    +0.046 A 
ATOM     16  C   UNL     1      -3.450   1.433   2.491  0.00  0.00    +0.009 A 
BRANCH  14  17
ATOM     17  O   UNL     1      -3.750   2.260   6.021  0.00  0.00    -0.434 OA
BRANCH  17  18
ATOM     18  C   UNL     1      -2.869   2.700   7.057  0.00  0.00    +0.541 C 
ATOM     19  F   UNL     1      -1.857   1.752   7.242  0.00  0.00    -0.166 F 
ATOM     20  F   UNL     1      -2.299   3.925   6.695  0.00  0.00    -0.166 F 
ENDBRANCH  17  18
ENDBRANCH  14  17
ENDBRANCH   4  11
BRANCH   3  21
ATOM     21  C   UNL     1      -2.401   3.673   0.083  0.00  0.00    +0.248 C 
ATOM     22  O   UNL     1      -3.201   3.460  -0.810  0.00  0.00    -0.270 OA
ATOM     23  N   UNL     1      -2.558   4.744   0.886  0.00  0.00    -0.282 N 
ATOM     24  H   UNL     1      -1.881   4.957   1.548  0.00  0.00    +0.155 HD
BRANCH  23  25
ATOM     25  C   UNL     1      -3.695   5.549   0.764  0.00  0.00    +0.034 A 
ATOM     26  C   UNL     1      -4.255   5.777  -0.486  0.00  0.00    +0.025 A 
ATOM     27  C   UNL     1      -5.382   6.568  -0.602  0.00  0.00    +0.034 A 
ATOM     28  C   UNL     1      -5.944   7.142   0.523  0.00  0.00    +0.126 A 
ATOM     29  C   UNL     1      -5.385   6.922   1.769  0.00  0.00    +0.034 A 
ATOM     30  C   UNL     1      -4.262   6.128   1.892  0.00  0.00    +0.025 A 
BRANCH  28  31
ATOM     31  N   UNL     1      -7.148   7.994   0.395  0.00  0.00    +0.056 N 
ATOM     32  O   UNL     1      -7.645   8.500   1.385  0.00  0.00    -0.126 OA
ATOM     33  O   UNL     1      -7.642   8.188  -0.702  0.00  0.00    -0.126 OA
ENDBRANCH  28  31
ENDBRANCH  23  25
ENDBRANCH   3  21
TORSDOF 6
