REMARK  Name = ZINC48945626
REMARK  5 active torsions:
REMARK  status: ('A' for Active; 'I' for Inactive)
REMARK    1  A    between atoms: C_1  and  C_2
REMARK    2  A    between atoms: C_2  and  C_19
REMARK    3  A    between atoms: N_7  and  C_8
REMARK    4  A    between atoms: C_11  and  C_15
REMARK    5  A    between atoms: N_16  and  O_17
REMARK                            x       y       z     vdW  Elec       q    Type
REMARK                         _______ _______ _______ _____ _____    ______ ____
ROOT
ATOM      1  C   UNL     1       1.956  -1.121   1.080  0.00  0.00    +0.066 A 
ATOM      2  C   UNL     1       3.120  -0.365   1.145  0.00  0.00    +0.027 A 
ATOM      3  C   UNL     1       4.349  -0.978   1.034  0.00  0.00    +0.013 A 
ATOM      4  C   UNL     1       4.425  -2.361   0.857  0.00  0.00    +0.021 A 
ATOM      5  C   UNL     1       3.255  -3.119   0.791  0.00  0.00    +0.051 A 
ATOM      6  C   UNL     1       2.027  -2.501   0.909  0.00  0.00    +0.145 A 
ATOM      7  F   UNL     1       0.894  -3.234   0.852  0.00  0.00    -0.204 F 
ENDROOT
BRANCH   1  14
ATOM      8  C   UNL     1      -0.019   1.526   0.010  0.00  0.00    +0.034 C 
ATOM      9  C   UNL     1       0.002  -0.004   0.002  0.00  0.00    +0.053 C 
ATOM     10  C   UNL     1      -1.434  -0.540   0.040  0.00  0.00    +0.185 C 
ATOM     11  O   UNL     1      -2.020  -0.226   1.305  0.00  0.00    -0.376 OA
ATOM     12  C   UNL     1      -1.365  -0.832   2.421  0.00  0.00    +0.178 C 
ATOM     13  C   UNL     1       0.075  -0.311   2.505  0.00  0.00    +0.134 C 
ATOM     14  N   UNL     1       0.713  -0.497   1.193  0.00  0.00    -0.318 N 
ATOM     15  C   UNL     1       0.706  -0.503  -1.262  0.00  0.00    +0.034 C 
ENDBRANCH   1  14
BRANCH   4  16
ATOM     16  C   UNL     1       5.743  -3.021   0.737  0.00  0.00    +0.162 C 
ATOM     17  N   UNL     1       6.833  -2.313   0.797  0.00  0.00    -0.072 NA
ATOM     18  N   UNL     1       5.817  -4.392   0.561  0.00  0.00    -0.340 N 
ATOM     19  H   UNL     1       5.004  -4.920   0.516  0.00  0.00    +0.144 HD
ATOM     20  H   UNL     1       6.681  -4.825   0.482  0.00  0.00    +0.144 HD
BRANCH  17  21
ATOM     21  O   UNL     1       8.095  -2.945   0.683  0.00  0.00    -0.408 OA
ATOM     22  H   UNL     1       8.846  -2.338   0.740  0.00  0.00    +0.328 HD
ENDBRANCH  17  21
ENDBRANCH   4  16
TORSDOF 3
