REMARK  Name = ZINC48798267
REMARK  12 active torsions:
REMARK  status: ('A' for Active; 'I' for Inactive)
REMARK    1  A    between atoms: C_1  and  C_2
REMARK    2  A    between atoms: C_2  and  C_3
REMARK    3  A    between atoms: C_3  and  N_4
REMARK    4  A    between atoms: C_5  and  C_7
REMARK    5  A    between atoms: C_7  and  C_9
REMARK    6  A    between atoms: C_7  and  O_10
REMARK    7  A    between atoms: O_10  and  C_11
REMARK    8  A    between atoms: C_12  and  C_18
REMARK    9  A    between atoms: C_18  and  C_19
REMARK   10  A    between atoms: C_19  and  C_21
REMARK   11  A    between atoms: C_19  and  N_23
REMARK   12  A    between atoms: C_21  and  C_22
REMARK                            x       y       z     vdW  Elec       q    Type
REMARK                         _______ _______ _______ _____ _____    ______ ____
ROOT
ATOM      1  C   UNL     1       1.580  -5.925   4.097  0.00  0.00    +0.139 A 
ATOM      2  C   UNL     1       0.446  -5.817   4.889  0.00  0.00    -0.006 A 
ATOM      3  C   UNL     1      -0.062  -6.935   5.521  0.00  0.00    +0.007 A 
ATOM      4  C   UNL     1       0.557  -8.161   5.366  0.00  0.00    +0.002 A 
ATOM      5  C   UNL     1       1.688  -8.272   4.577  0.00  0.00    +0.019 A 
ATOM      6  C   UNL     1       2.197  -7.158   3.938  0.00  0.00    +0.060 A 
ATOM      7 BR   UNL     1       3.739  -7.311   2.852  0.00  0.00    -0.047 Br
ENDROOT
BRANCH   1   8
ATOM      8  O   UNL     1       2.082  -4.826   3.474  0.00  0.00    -0.479 OA
BRANCH   8   9
ATOM      9  C   UNL     1       1.484  -4.455   2.230  0.00  0.00    +0.256 C 
ATOM     10  C   UNL     1       2.179  -5.199   1.088  0.00  0.00    +0.062 C 
BRANCH   9  12
ATOM     11  N   UNL     1       1.051  -2.375   0.964  0.00  0.00    -0.312 N 
ATOM     12  C   UNL     1       1.631  -2.970   2.026  0.00  0.00    +0.254 C 
ATOM     13  O   UNL     1       2.270  -2.309   2.816  0.00  0.00    -0.272 OA
ATOM     14  H   UNL     1       0.539  -2.904   0.332  0.00  0.00    +0.149 HD
BRANCH  11  15
ATOM     15  C   UNL     1       1.193  -0.931   0.765  0.00  0.00    +0.104 C 
BRANCH  15  17
ATOM     16  C   UNL     1       0.594   0.994  -0.711  0.00  0.00    +0.005 C 
ATOM     17  C   UNL     1       0.446  -0.514  -0.503  0.00  0.00    +0.015 C 
ENDBRANCH  15  17
ENDBRANCH  11  15
ENDBRANCH   9  12
ENDBRANCH   8   9
ENDBRANCH   1   8
BRANCH   2  18
ATOM     18  C   UNL     1      -0.230  -4.481   5.059  0.00  0.00    +0.022 C 
BRANCH  18  19
ATOM     19  C   UNL     1       0.530  -3.654   6.098  0.00  0.00    -0.071 C 
BRANCH  19  20
ATOM     20  N   UNL     1       0.457  -4.321   7.404  0.00  0.00    +0.380 N 
ATOM     21  H   UNL     1      -0.509  -4.420   7.678  0.00  0.00    -0.090 HD
ATOM     22  H   UNL     1       0.883  -5.234   7.340  0.00  0.00    -0.090 HD
ATOM     23  H   UNL     1       0.948  -3.769   8.092  0.00  0.00    -0.090 HD
ENDBRANCH  19  20
BRANCH  19  24
ATOM     24  C   UNL     1      -0.098  -2.262   6.201  0.00  0.00    -0.019 C 
ATOM     25  C   UNL     1       0.736  -1.395   7.146  0.00  0.00    +0.002 C 
ENDBRANCH  19  24
ENDBRANCH  18  19
ENDBRANCH   2  18
TORSDOF 9
