REMARK  Name = ZINC47146091
REMARK  3 active torsions:
REMARK  status: ('A' for Active; 'I' for Inactive)
REMARK    1  A    between atoms: C_3  and  C_9
REMARK    2  A    between atoms: N_24  and  C_27
REMARK    3  A    between atoms: C_30  and  N_33
REMARK                            x       y       z     vdW  Elec       q    Type
REMARK                         _______ _______ _______ _____ _____    ______ ____
ROOT
ATOM      1  C   UNL     1       3.671   2.186  -0.023  0.00  0.00    +0.073 C 
ATOM      2  C   UNL     1       3.699   3.062   1.173  0.00  0.00    +0.035 A 
ATOM      3  C   UNL     1       4.030   4.379   1.258  0.00  0.00    +0.113 A 
ATOM      4  N   UNL     1       4.000   4.884   2.495  0.00  0.00    -0.196 NA
ATOM      5  C   UNL     1       3.646   4.163   3.533  0.00  0.00    +0.311 A 
ATOM      6  O   UNL     1       3.565   4.541   4.832  0.00  0.00    -0.258 OA
ATOM      7  S   UNL     1       3.314   2.656   2.858  0.00  0.00    -0.028 S 
ATOM      8  S   UNL     1       4.436   5.315  -0.192  0.00  0.00    -0.091 S 
ATOM      9  C   UNL     1       4.785   4.042  -1.446  0.00  0.00    +0.152 C 
ATOM     10  C   UNL     1       3.785   2.887  -1.324  0.00  0.00    +0.110 C 
ATOM     11  C   UNL     1       2.550   3.420  -1.978  0.00  0.00    +0.232 C 
ATOM     12  O   UNL     1       1.404   3.095  -1.751  0.00  0.00    -0.274 OA
ATOM     13  N   UNL     1       2.973   4.340  -2.877  0.00  0.00    -0.209 N 
ATOM     14  C   UNL     1       4.287   4.635  -2.777  0.00  0.00    +0.240 C 
ATOM     15  O   UNL     1       4.949   5.257  -3.579  0.00  0.00    -0.274 OA
ENDROOT
BRANCH   1  18
ATOM     16  C   UNL     1       1.175  -0.622  -0.397  0.00  0.00    +0.002 A 
ATOM     17  C   UNL     1       2.362   0.088  -0.406  0.00  0.00    +0.006 A 
ATOM     18  C   UNL     1       2.378   1.413  -0.013  0.00  0.00    -0.019 A 
ATOM     19  C   UNL     1       1.206   2.030   0.388  0.00  0.00    +0.063 A 
ATOM     20  C   UNL     1       0.018   1.319   0.397  0.00  0.00    +0.060 A 
ATOM     21  C   UNL     1       0.004  -0.008   0.004  0.00  0.00    +0.021 A 
ATOM     22 CL   UNL     1      -1.452   2.091   0.901  0.00  0.00    -0.082 Cl
ATOM     23 CL   UNL     1       1.226   3.694   0.882  0.00  0.00    -0.082 Cl
ENDBRANCH   1  18
BRANCH  13  24
ATOM     24  C   UNL     1       2.127   4.926  -3.829  0.00  0.00    +0.044 A 
ATOM     25  C   UNL     1       0.786   4.573  -3.878  0.00  0.00    +0.026 A 
ATOM     26  C   UNL     1      -0.045   5.152  -4.817  0.00  0.00    +0.034 A 
ATOM     27  C   UNL     1       0.458   6.082  -5.708  0.00  0.00    +0.126 A 
ATOM     28  C   UNL     1       1.794   6.436  -5.662  0.00  0.00    +0.034 A 
ATOM     29  C   UNL     1       2.628   5.864  -4.721  0.00  0.00    +0.026 A 
BRANCH  27  30
ATOM     30  N   UNL     1      -0.436   6.701  -6.713  0.00  0.00    +0.056 N 
ATOM     31  O   UNL     1      -1.604   6.393  -6.755  0.00  0.00    -0.126 OA
ATOM     32  O   UNL     1       0.003   7.515  -7.492  0.00  0.00    -0.126 OA
ENDBRANCH  27  30
ENDBRANCH  13  24
TORSDOF 3
