REMARK  Name = ZINC52010293
REMARK  5 active torsions:
REMARK  status: ('A' for Active; 'I' for Inactive)
REMARK    1  A    between atoms: C_5  and  C_8
REMARK    2  A    between atoms: C_5  and  C_11
REMARK    3  A    between atoms: C_8  and  N_10
REMARK    4  A    between atoms: N_13  and  C_14
REMARK    5  A    between atoms: C_20  and  O_22
REMARK                            x       y       z     vdW  Elec       q    Type
REMARK                         _______ _______ _______ _____ _____    ______ ____
ROOT
ATOM      1  C   UNL     1      -0.158   1.248  -0.040  0.00  0.00    +0.000 C 
ATOM      2  C   UNL     1       1.203   1.974  -0.039  0.00  0.00    +0.000 C 
ATOM      3  C   UNL     1       1.735   1.991   1.369  0.00  0.00    +0.001 C 
ATOM      4  C   UNL     1       2.687   0.813   1.653  0.00  0.00    +0.023 C 
ATOM      5  C   UNL     1       2.188  -0.516   1.054  0.00  0.00    +0.091 C 
ATOM      6  C   UNL     1       0.707  -0.710   1.236  0.00  0.00    +0.023 C 
ATOM      7  C   UNL     1      -0.013  -0.200  -0.029  0.00  0.00    +0.001 C 
ENDROOT
BRANCH   5   8
ATOM      8  C   UNL     1       2.505  -0.536  -0.419  0.00  0.00    +0.226 C 
ATOM      9  O   UNL     1       3.207   0.327  -0.901  0.00  0.00    -0.275 OA
ATOM     10  N   UNL     1       2.007  -1.514  -1.202  0.00  0.00    -0.309 N 
ATOM     11  H   UNL     1       1.503  -2.242  -0.807  0.00  0.00    +0.149 HD
BRANCH  10  12
ATOM     12  C   UNL     1       2.228  -1.478  -2.650  0.00  0.00    +0.101 C 
ATOM     13  C   UNL     1       1.156  -0.607  -3.308  0.00  0.00    +0.025 C 
ATOM     14  C   UNL     1       1.387  -0.568  -4.820  0.00  0.00    +0.002 C 
ATOM     15  C   UNL     1       1.308  -1.988  -5.384  0.00  0.00    +0.003 C 
ATOM     16  C   UNL     1       2.380  -2.859  -4.726  0.00  0.00    +0.033 C 
ATOM     17  C   UNL     1       2.149  -2.897  -3.214  0.00  0.00    +0.135 C 
BRANCH  17  18
ATOM     18  O   UNL     1       3.151  -3.711  -2.600  0.00  0.00    -0.390 OA
ATOM     19  H   UNL     1       3.159  -4.626  -2.911  0.00  0.00    +0.210 HD
ENDBRANCH  17  18
ENDBRANCH  10  12
ENDBRANCH   5   8
BRANCH   5  20
ATOM     20  C   UNL     1       2.915  -1.655   1.722  0.00  0.00    +0.061 C 
ATOM     21  S   UNL     1       4.104  -1.353   2.747  0.00  0.00    -0.040 S 
BRANCH  20  22
ATOM     22  N   UNL     1       2.562  -2.928   1.454  0.00  0.00    -0.355 N 
ATOM     23  H   UNL     1       1.892  -3.114   0.778  0.00  0.00    +0.143 HD
ATOM     24  H   UNL     1       2.979  -3.658   1.938  0.00  0.00    +0.143 HD
ENDBRANCH  20  22
ENDBRANCH   5  20
TORSDOF 5
