REMARK  Name = ZINC39006922
REMARK  10 active torsions:
REMARK  status: ('A' for Active; 'I' for Inactive)
REMARK    1  A    between atoms: C_1  and  C_2
REMARK    2  A    between atoms: C_2  and  C_3
REMARK    3  A    between atoms: C_2  and  C_4
REMARK    4  A    between atoms: C_2  and  C_5
REMARK    5  A    between atoms: C_8  and  C_11
REMARK    6  A    between atoms: N_17  and  N_18
REMARK    7  A    between atoms: C_19  and  C_20
REMARK    8  A    between atoms: C_24  and  C_27
REMARK    9  A    between atoms: C_25  and  O_26
REMARK   10  A    between atoms: C_27  and  C_28
REMARK                            x       y       z     vdW  Elec       q    Type
REMARK                         _______ _______ _______ _____ _____    ______ ____
ROOT
ATOM      1  C   UNL     1       2.750  -1.851  -4.905  0.00  0.00    +0.264 C 
ATOM      2  N   UNL     1       2.219  -3.206  -5.120  0.00  0.00    -0.189 NA
ATOM      3  N   UNL     1       3.105  -4.015  -4.832  0.00  0.00    -0.219 N 
ATOM      4  C   UNL     1       4.260  -3.427  -4.419  0.00  0.00    +0.174 C 
ATOM      5  S   UNL     1       5.675  -4.269  -3.950  0.00  0.00    -0.015 S 
ATOM      6  N   UNL     1       4.129  -2.079  -4.435  0.00  0.00    -0.172 N 
ATOM      7  H   UNL     1       2.989  -4.976  -4.894  0.00  0.00    +0.176 HD
ENDROOT
BRANCH   1  11
ATOM      8  C   UNL     1       0.472   0.195  -1.926  0.00  0.00    -0.042 A 
ATOM      9  C   UNL     1      -0.147  -0.707  -2.771  0.00  0.00    +0.004 A 
ATOM     10  C   UNL     1       0.590  -1.369  -3.735  0.00  0.00    +0.008 A 
ATOM     11  C   UNL     1       1.946  -1.129  -3.854  0.00  0.00    -0.002 A 
ATOM     12  C   UNL     1       2.565  -0.226  -3.010  0.00  0.00    +0.008 A 
ATOM     13  C   UNL     1       1.827   0.439  -2.049  0.00  0.00    +0.004 A 
BRANCH   8  15
ATOM     14  C   UNL     1      -0.248   2.425  -1.116  0.00  0.00    +0.015 C 
ATOM     15  C   UNL     1      -0.332   0.917  -0.875  0.00  0.00    -0.013 C 
ATOM     16  C   UNL     1       0.230   0.590   0.510  0.00  0.00    +0.015 C 
ATOM     17  C   UNL     1      -1.792   0.468  -0.953  0.00  0.00    +0.015 C 
ENDBRANCH   8  15
ENDBRANCH   1  11
BRANCH   6  18
ATOM     18  N   UNL     1       5.086  -1.117  -4.085  0.00  0.00    -0.183 NA
ATOM     19  C   UNL     1       6.298  -1.483  -3.795  0.00  0.00    +0.142 C 
BRANCH  19  20
ATOM     20  C   UNL     1       7.259  -0.497  -3.270  0.00  0.00    +0.036 A 
ATOM     21  C   UNL     1       8.566  -0.884  -2.963  0.00  0.00    +0.013 A 
ATOM     22  C   UNL     1       9.460   0.044  -2.473  0.00  0.00    +0.001 A 
ATOM     23  C   UNL     1       9.069   1.358  -2.284  0.00  0.00    +0.007 A 
ATOM     24  C   UNL     1       7.779   1.754  -2.584  0.00  0.00    -0.002 A 
ATOM     25  C   UNL     1       6.869   0.837  -3.083  0.00  0.00    +0.129 A 
BRANCH  25  26
ATOM     26  O   UNL     1       5.604   1.226  -3.384  0.00  0.00    -0.506 OA
ATOM     27  H   UNL     1       4.982   1.148  -2.647  0.00  0.00    +0.292 HD
ENDBRANCH  25  26
BRANCH  24  28
ATOM     28  C   UNL     1       7.364   3.187  -2.373  0.00  0.00    +0.065 C 
BRANCH  28  29
ATOM     29  C   UNL     1       6.709   3.327  -1.023  0.00  0.00    -0.030 C 
ATOM     30  C   UNL     1       7.161   4.207  -0.164  0.00  0.00    +0.004 C 
ENDBRANCH  28  29
ENDBRANCH  24  28
ENDBRANCH  19  20
ENDBRANCH   6  18
TORSDOF 7
