REMARK  Name = ZINC11995313
REMARK  7 active torsions:
REMARK  status: ('A' for Active; 'I' for Inactive)
REMARK    1  A    between atoms: C_1  and  O_2
REMARK    2  A    between atoms: O_2  and  C_3
REMARK    3  A    between atoms: C_5  and  N_30
REMARK    4  A    between atoms: C_18  and  C_19
REMARK    5  A    between atoms: C_18  and  N_66
REMARK    6  A    between atoms: N_22  and  C_24
REMARK    7  A    between atoms: C_31  and  C_33
REMARK                            x       y       z     vdW  Elec       q    Type
REMARK                         _______ _______ _______ _____ _____    ______ ____
ROOT
ATOM      1  C   UNL     1       1.679   5.500   0.450  0.00  0.00    +0.153 C 
ATOM      2  C   UNL     1       2.303   4.160   0.001  0.00  0.00    +0.133 C 
ATOM      3  C   UNL     1       1.160   3.168   0.008  0.00  0.00    -0.021 A 
ATOM      4  C   UNL     1       1.173   1.784   0.000  0.00  0.00    +0.006 A 
ATOM      5  C   UNL     1      -0.013   1.076   0.008  0.00  0.00    +0.000 A 
ATOM      6  C   UNL     1      -1.219   1.752   0.017  0.00  0.00    +0.000 A 
ATOM      7  C   UNL     1      -1.235   3.132   0.029  0.00  0.00    +0.004 A 
ATOM      8  C   UNL     1      -0.047   3.845   0.022  0.00  0.00    -0.034 A 
ATOM      9  C   UNL     1       0.208   5.333   0.028  0.00  0.00    +0.021 C 
ATOM     10  C   UNL     1      -0.004   5.915  -1.367  0.00  0.00    -0.005 C 
ATOM     11  C   UNL     1       0.237   7.427  -1.325  0.00  0.00    -0.077 C 
ATOM     12  C   UNL     1      -0.443   7.535   0.999  0.00  0.00    -0.077 C 
ATOM     13  C   UNL     1      -0.706   6.027   1.035  0.00  0.00    -0.005 C 
ATOM     14  N   UNL     1      -0.710   8.036  -0.366  0.00  0.00    +0.382 N 
ATOM     15  H   UNL     1      -1.667   7.778  -0.634  0.00  0.00    -0.081 HD
ENDROOT
BRANCH   2  16
ATOM     16  N   UNL     1       2.860   4.285  -1.348  0.00  0.00    -0.299 N 
ATOM     17  C   UNL     1       3.817   3.433  -1.763  0.00  0.00    +0.280 C 
ATOM     18  O   UNL     1       4.219   2.559  -1.018  0.00  0.00    -0.267 OA
ATOM     19  H   UNL     1       2.540   4.982  -1.942  0.00  0.00    +0.150 HD
BRANCH  17  20
ATOM     20  C   UNL     1       4.375   3.558  -3.114  0.00  0.00    +0.189 A 
ATOM     21  C   UNL     1       5.348   2.768  -3.657  0.00  0.00    +0.054 A 
ATOM     22  C   UNL     1       5.570   3.240  -4.960  0.00  0.00    +0.042 A 
ATOM     23  C   UNL     1       4.739   4.289  -5.150  0.00  0.00    +0.196 A 
ATOM     24  O   UNL     1       4.021   4.477  -4.036  0.00  0.00    -0.458 OA
ENDBRANCH  17  20
ENDBRANCH   2  16
BRANCH   1  26
ATOM     25  C   UNL     1       2.970   6.348   2.283  0.00  0.00    +0.194 C 
ATOM     26  O   UNL     1       1.787   5.663   1.865  0.00  0.00    -0.377 OA
ENDBRANCH   1  26
BRANCH  14  27
ATOM     27  C   UNL     1      -0.583   9.507  -0.398  0.00  0.00    -0.040 C 
BRANCH  27  28
ATOM     28  C   UNL     1      -0.588   9.973  -1.831  0.00  0.00    -0.026 A 
ATOM     29  C   UNL     1      -1.718  10.303  -2.585  0.00  0.00    +0.136 A 
ATOM     30  N   UNL     1      -1.323  10.662  -3.780  0.00  0.00    -0.175 NA
ATOM     31  N   UNL     1       0.074  10.571  -3.825  0.00  0.00    -0.240 N 
ATOM     32  C   UNL     1       0.502  10.150  -2.613  0.00  0.00    +0.116 A 
BRANCH  31  33
ATOM     33  C   UNL     1       0.885  10.868  -4.929  0.00  0.00    +0.065 A 
ATOM     34  C   UNL     1       2.264  10.740  -4.833  0.00  0.00    +0.028 A 
ATOM     35  C   UNL     1       3.061  11.029  -5.924  0.00  0.00    +0.002 A 
ATOM     36  C   UNL     1       2.486  11.457  -7.107  0.00  0.00    +0.000 A 
ATOM     37  C   UNL     1       1.114  11.591  -7.204  0.00  0.00    +0.002 A 
ATOM     38  C   UNL     1       0.312  11.298  -6.118  0.00  0.00    +0.028 A 
ENDBRANCH  31  33
ENDBRANCH  27  28
ENDBRANCH  14  27
TORSDOF 6
