REMARK  Name = ZINC04372491
REMARK  4 active torsions:
REMARK  status: ('A' for Active; 'I' for Inactive)
REMARK    1  A    between atoms: C_1  and  C_2
REMARK    2  A    between atoms: C_5  and  N_8
REMARK    3  A    between atoms: C_19  and  C_20
REMARK    4  A    between atoms: C_23  and  N_26
REMARK                            x       y       z     vdW  Elec       q    Type
REMARK                         _______ _______ _______ _____ _____    ______ ____
ROOT
ATOM      1  N   UNL     1       0.058  -4.172  -0.021  0.00  0.00    -0.204 N 
ATOM      2  C   UNL     1      -0.029  -4.912  -1.140  0.00  0.00    +0.258 C 
ATOM      3  O   UNL     1       0.006  -4.465  -2.273  0.00  0.00    -0.269 OA
ATOM      4  C   UNL     1      -0.166  -6.263  -0.820  0.00  0.00    +0.081 C 
ATOM      5  H   UNL     1      -0.600  -9.225   0.180  0.00  0.00    +0.194 HD
ATOM      6  C   UNL     1       0.345  -6.337   0.626  0.00  0.00    +0.272 C 
ATOM      7  C   UNL     1       0.172  -4.925   1.096  0.00  0.00    +0.263 C 
ATOM      8  O   UNL     1       0.138  -4.538   2.244  0.00  0.00    -0.271 OA
ATOM      9  O   UNL     1      -0.573  -7.297   1.169  0.00  0.00    -0.256 OA
ATOM     10  N   UNL     1      -0.586  -8.259   0.094  0.00  0.00    -0.264 N 
ATOM     11  C   UNL     1      -0.573  -7.532  -1.088  0.00  0.00    +0.080 C 
ENDROOT
BRANCH   1  16
ATOM     12  C   UNL     1      -0.016   1.503   0.010  0.00  0.00    +0.044 C 
ATOM     13  C   UNL     1       0.004  -0.004   0.002  0.00  0.00    -0.050 A 
ATOM     14  C   UNL     1       0.253  -0.697   1.172  0.00  0.00    +0.005 A 
ATOM     15  C   UNL     1       0.272  -2.078   1.168  0.00  0.00    +0.024 A 
ATOM     16  C   UNL     1       0.040  -2.771  -0.013  0.00  0.00    +0.044 A 
ATOM     17  C   UNL     1      -0.210  -2.072  -1.187  0.00  0.00    +0.024 A 
ATOM     18  C   UNL     1      -0.233  -0.691  -1.175  0.00  0.00    +0.005 A 
ENDBRANCH   1  16
BRANCH  11  19
ATOM     19  C   UNL     1      -0.942  -8.053  -2.420  0.00  0.00    +0.001 A 
ATOM     20  C   UNL     1      -0.883  -7.220  -3.540  0.00  0.00    +0.012 A 
ATOM     21  C   UNL     1      -1.229  -7.713  -4.781  0.00  0.00    +0.033 A 
ATOM     22  C   UNL     1      -1.634  -9.028  -4.918  0.00  0.00    +0.126 A 
ATOM     23  C   UNL     1      -1.695  -9.859  -3.813  0.00  0.00    +0.033 A 
ATOM     24  C   UNL     1      -1.346  -9.382  -2.567  0.00  0.00    +0.012 A 
BRANCH  22  25
ATOM     25  N   UNL     1      -2.005  -9.550  -6.253  0.00  0.00    +0.056 N 
ATOM     26  O   UNL     1      -1.953  -8.826  -7.220  0.00  0.00    -0.126 OA
ATOM     27  O   UNL     1      -2.360 -10.699  -6.376  0.00  0.00    -0.126 OA
ENDBRANCH  22  25
ENDBRANCH  11  19
TORSDOF 3
