REMARK  Name = ZINC09067433
REMARK  5 active torsions:
REMARK  status: ('A' for Active; 'I' for Inactive)
REMARK    1  A    between atoms: C_1  and  C_2
REMARK    2  A    between atoms: C_7  and  C_8
REMARK    3  A    between atoms: N_10  and  C_11
REMARK    4  A    between atoms: C_11  and  C_12
REMARK    5  A    between atoms: N_15  and  C_19
REMARK                            x       y       z     vdW  Elec       q    Type
REMARK                         _______ _______ _______ _____ _____    ______ ____
ROOT
ATOM      1  C   UNL     1       4.641   5.590   1.812  0.00  0.00    +0.150 C 
ENDROOT
BRANCH   1   2
ATOM      2  C   UNL     1       4.232   4.665   0.664  0.00  0.00    +0.213 C 
ATOM      3  C   UNL     1       2.770   4.206   0.828  0.00  0.00    +0.163 C 
ATOM      4  N   UNL     1       2.874   2.745   0.959  0.00  0.00    -0.234 N 
ATOM      5  C   UNL     1       4.164   2.392   0.877  0.00  0.00    +0.408 C 
ATOM      6  O   UNL     1       4.543   1.240   0.949  0.00  0.00    -0.226 OA
ATOM      7  O   UNL     1       4.997   3.425   0.710  0.00  0.00    -0.444 OA
BRANCH   4   8
ATOM      8  C   UNL     1       1.799   1.865   1.133  0.00  0.00    +0.040 A 
ATOM      9  C   UNL     1       2.028   0.499   1.238  0.00  0.00    +0.023 A 
ATOM     10  C   UNL     1       0.966  -0.366   1.410  0.00  0.00    +0.002 A 
ATOM     11  C   UNL     1      -0.325   0.125   1.473  0.00  0.00    +0.000 A 
ATOM     12  C   UNL     1      -0.556   1.485   1.374  0.00  0.00    +0.002 A 
ATOM     13  C   UNL     1       0.502   2.356   1.202  0.00  0.00    +0.023 A 
ENDBRANCH   4   8
ENDBRANCH   1   2
BRANCH   1  16
ATOM     14  C   UNL     1       6.602   6.859   2.508  0.00  0.00    +0.244 C 
ATOM     15  O   UNL     1       5.975   7.239   3.478  0.00  0.00    -0.270 OA
ATOM     16  N   UNL     1       6.024   6.031   1.615  0.00  0.00    -0.308 N 
ATOM     17  H   UNL     1       6.524   5.727   0.841  0.00  0.00    +0.149 HD
BRANCH  14  24
ATOM     18  C   UNL     1       7.734   8.852   4.274  0.00  0.00    +0.044 C 
ATOM     19  C   UNL     1       8.554   8.264   3.154  0.00  0.00    -0.038 A 
ATOM     20  C   UNL     1       9.859   8.671   2.966  0.00  0.00    +0.004 A 
ATOM     21  C   UNL     1      10.612   8.137   1.936  0.00  0.00    +0.000 A 
ATOM     22  C   UNL     1      10.064   7.188   1.091  0.00  0.00    +0.001 A 
ATOM     23  C   UNL     1       8.762   6.768   1.271  0.00  0.00    +0.013 A 
ATOM     24  C   UNL     1       7.997   7.303   2.309  0.00  0.00    +0.040 A 
ENDBRANCH  14  24
ENDBRANCH   1  16
TORSDOF 4
