REMARK  Name = ZINC08654222
REMARK  7 active torsions:
REMARK  status: ('A' for Active; 'I' for Inactive)
REMARK    1  A    between atoms: C_1  and  C_2
REMARK    2  A    between atoms: C_2  and  N_3
REMARK    3  A    between atoms: C_7  and  C_8
REMARK    4  A    between atoms: C_11  and  O_15
REMARK    5  A    between atoms: N_18  and  C_19
REMARK    6  A    between atoms: C_22  and  O_25
REMARK    7  A    between atoms: O_25  and  C_26
REMARK                            x       y       z     vdW  Elec       q    Type
REMARK                         _______ _______ _______ _____ _____    ______ ____
ROOT
ATOM      1  N   UNL     1       4.519   0.720  -1.285  0.00  0.00    -0.246 N 
ATOM      2  C   UNL     1       5.405   1.344  -2.043  0.00  0.00    +0.259 C 
ATOM      3  O   UNL     1       6.548   0.938  -2.150  0.00  0.00    -0.269 OA
ATOM      4  C   UNL     1       4.947   2.554  -2.752  0.00  0.00    +0.078 C 
ATOM      5  C   UNL     1       5.634   3.377  -3.583  0.00  0.00    +0.028 C 
ATOM      6  S   UNL     1       3.241   2.640  -2.226  0.00  0.00    -0.049 S 
ATOM      7  C   UNL     1       3.229   1.196  -1.177  0.00  0.00    +0.168 C 
ATOM      8  N   UNL     1       2.234   0.703  -0.475  0.00  0.00    -0.225 NA
ENDROOT
BRANCH   5   9
ATOM      9  C   UNL     1       4.929   4.438  -4.314  0.00  0.00    -0.022 A 
ATOM     10  C   UNL     1       3.537   4.389  -4.454  0.00  0.00    +0.011 A 
ATOM     11  C   UNL     1       2.880   5.389  -5.136  0.00  0.00    +0.047 A 
ATOM     12  C   UNL     1       3.597   6.440  -5.695  0.00  0.00    +0.135 A 
ATOM     13  C   UNL     1       4.981   6.491  -5.564  0.00  0.00    +0.083 A 
ATOM     14  C   UNL     1       5.648   5.499  -4.878  0.00  0.00    +0.031 A 
ATOM     15 CL   UNL     1       5.870   7.808  -6.264  0.00  0.00    -0.080 Cl
BRANCH  12  16
ATOM     16  O   UNL     1       2.945   7.420  -6.372  0.00  0.00    -0.505 OA
ATOM     17  H   UNL     1       2.844   7.245  -7.317  0.00  0.00    +0.292 HD
ENDBRANCH  12  16
ENDBRANCH   5   9
BRANCH   8  18
ATOM     18  C   UNL     1       1.012   1.322  -0.493  0.00  0.00    +0.067 A 
ATOM     19  C   UNL     1      -0.154   0.567  -0.637  0.00  0.00    +0.031 A 
ATOM     20  C   UNL     1      -1.381   1.195  -0.659  0.00  0.00    +0.048 A 
ATOM     21  C   UNL     1      -1.460   2.575  -0.528  0.00  0.00    +0.120 A 
ATOM     22  C   UNL     1      -0.304   3.329  -0.384  0.00  0.00    +0.048 A 
ATOM     23  C   UNL     1       0.928   2.710  -0.366  0.00  0.00    +0.031 A 
BRANCH  21  24
ATOM     24  O   UNL     1      -2.673   3.189  -0.545  0.00  0.00    -0.495 OA
ATOM     25  C   UNL     1      -3.822   2.353  -0.696  0.00  0.00    +0.277 C 
ENDBRANCH  21  24
ENDBRANCH   8  18
BRANCH   1  27
ATOM     26  C   UNL     1       4.653  -1.718  -1.427  0.00  0.00    +0.025 C 
ATOM     27  C   UNL     1       4.910  -0.488  -0.555  0.00  0.00    +0.112 C 
ENDBRANCH   1  27
TORSDOF 5
