REMARK  Name = ZINC67138224
REMARK  10 active torsions:
REMARK  status: ('A' for Active; 'I' for Inactive)
REMARK    1  A    between atoms: C_1  and  C_2
REMARK    2  A    between atoms: C_5  and  C_9
REMARK    3  A    between atoms: C_6  and  O_8
REMARK    4  A    between atoms: N_11  and  N_12
REMARK    5  A    between atoms: C_13  and  C_15
REMARK    6  A    between atoms: C_15  and  C_16
REMARK    7  A    between atoms: C_16  and  N_17
REMARK    8  A    between atoms: N_20  and  C_21
REMARK    9  A    between atoms: N_20  and  C_22
REMARK   10  A    between atoms: C_22  and  C_23
REMARK                            x       y       z     vdW  Elec       q    Type
REMARK                         _______ _______ _______ _____ _____    ______ ____
ROOT
ATOM      1  N   UNL     1       0.083  -6.316  -1.222  0.00  0.00    -0.234 N 
ATOM      2  C   UNL     1       0.086  -6.979  -2.396  0.00  0.00    +0.231 C 
ATOM      3  O   UNL     1       0.072  -6.364  -3.440  0.00  0.00    -0.274 OA
ATOM      4  H   UNL     1       0.093  -6.809  -0.387  0.00  0.00    +0.173 HD
ENDROOT
BRANCH   1   7
ATOM      5  C   UNL     1       0.060  -4.252  -0.036  0.00  0.00    +0.264 C 
ATOM      6  O   UNL     1       0.074  -4.870   1.011  0.00  0.00    -0.269 OA
ATOM      7  N   UNL     1       0.064  -4.915  -1.209  0.00  0.00    -0.230 N 
ATOM      8  H   UNL     1       0.053  -4.423  -2.045  0.00  0.00    +0.173 HD
BRANCH   5  13
ATOM      9  C   UNL     1      -0.018   1.503   0.010  0.00  0.00    +0.044 C 
ATOM     10  C   UNL     1       0.002  -0.004   0.002  0.00  0.00    -0.047 A 
ATOM     11  C   UNL     1       0.006  -0.686  -1.204  0.00  0.00    +0.004 A 
ATOM     12  C   UNL     1       0.025  -2.064  -1.224  0.00  0.00    +0.017 A 
ATOM     13  C   UNL     1       0.041  -2.777  -0.022  0.00  0.00    +0.079 A 
ATOM     14  C   UNL     1       0.037  -2.084   1.195  0.00  0.00    +0.129 A 
ATOM     15  C   UNL     1       0.023  -0.697   1.196  0.00  0.00    +0.049 A 
BRANCH  14  16
ATOM     16  O   UNL     1       0.052  -2.766   2.368  0.00  0.00    -0.506 OA
ATOM     17  H   UNL     1       0.940  -2.951   2.704  0.00  0.00    +0.292 HD
ENDBRANCH  14  16
ENDBRANCH   5  13
ENDBRANCH   1   7
BRANCH   2  18
ATOM     18  C   UNL     1       0.106  -8.486  -2.409  0.00  0.00    +0.116 C 
BRANCH  18  19
ATOM     19  C   UNL     1       0.105  -8.983  -3.857  0.00  0.00    +0.115 C 
BRANCH  19  20
ATOM     20  N   UNL     1       0.125 -10.448  -3.870  0.00  0.00    -0.299 N 
ATOM     21  C   UNL     1       0.129 -11.111  -5.043  0.00  0.00    +0.302 C 
ATOM     22  O   UNL     1       0.115 -10.493  -6.091  0.00  0.00    -0.253 OA
ATOM     23  N   UNL     1       0.147 -12.459  -5.056  0.00  0.00    -0.284 N 
ATOM     24  C   UNL     1       0.163 -13.203  -3.794  0.00  0.00    +0.134 C 
ATOM     25  H   UNL     1       0.136 -10.940  -3.035  0.00  0.00    +0.150 HD
BRANCH  23  26
ATOM     26  C   UNL     1       0.150 -13.179  -6.331  0.00  0.00    +0.144 C 
BRANCH  26  27
ATOM     27  C   UNL     1       1.572 -13.407  -6.776  0.00  0.00    -0.030 A 
ATOM     28  C   UNL     1       2.209 -12.467  -7.564  0.00  0.00    +0.005 A 
ATOM     29  C   UNL     1       3.513 -12.676  -7.972  0.00  0.00    +0.000 A 
ATOM     30  C   UNL     1       4.181 -13.825  -7.591  0.00  0.00    +0.000 A 
ATOM     31  C   UNL     1       3.544 -14.765  -6.802  0.00  0.00    +0.000 A 
ATOM     32  C   UNL     1       2.241 -14.554  -6.391  0.00  0.00    +0.005 A 
ENDBRANCH  26  27
ENDBRANCH  23  26
ENDBRANCH  19  20
ENDBRANCH  18  19
ENDBRANCH   2  18
TORSDOF 8
