REMARK  Name = ZINC05320493
REMARK  9 active torsions:
REMARK  status: ('A' for Active; 'I' for Inactive)
REMARK    1  A    between atoms: C_1  and  O_2
REMARK    2  A    between atoms: O_2  and  C_3
REMARK    3  A    between atoms: C_5  and  C_13
REMARK    4  A    between atoms: C_7  and  O_11
REMARK    5  A    between atoms: C_8  and  O_9
REMARK    6  A    between atoms: O_9  and  C_10
REMARK    7  A    between atoms: O_11  and  C_12
REMARK    8  A    between atoms: N_14  and  N_15
REMARK    9  A    between atoms: C_16  and  C_17
REMARK                            x       y       z     vdW  Elec       q    Type
REMARK                         _______ _______ _______ _____ _____    ______ ____
ROOT
ATOM      1  C   UNL     1      -0.696   5.562   0.036  0.00  0.00    +0.138 C 
ATOM      2  N   UNL     1      -1.261   4.393   0.032  0.00  0.00    -0.189 NA
ENDROOT
BRANCH   1   5
ATOM      3  C   UNL     1      -1.698   9.182   0.060  0.00  0.00    +0.166 A 
ATOM      4  C   UNL     1      -0.918   8.039   0.050  0.00  0.00    +0.059 A 
ATOM      5  C   UNL     1      -1.524   6.781   0.046  0.00  0.00    +0.002 A 
ATOM      6  C   UNL     1      -2.918   6.680   0.047  0.00  0.00    +0.059 A 
ATOM      7  C   UNL     1      -3.693   7.826   0.062  0.00  0.00    +0.166 A 
ATOM      8  C   UNL     1      -3.086   9.078   0.066  0.00  0.00    +0.204 A 
BRANCH   3  10
ATOM      9  C   UNL     1       0.320  10.440   0.057  0.00  0.00    +0.277 C 
ATOM     10  O   UNL     1      -1.109  10.407   0.064  0.00  0.00    -0.491 OA
ENDBRANCH   3  10
BRANCH   8  11
ATOM     11  O   UNL     1      -3.851  10.203   0.074  0.00  0.00    -0.488 OA
ATOM     12  C   UNL     1      -4.221  10.746  -1.195  0.00  0.00    +0.277 C 
ENDBRANCH   8  11
BRANCH   7  13
ATOM     13  O   UNL     1      -5.049   7.729   0.067  0.00  0.00    -0.491 OA
ATOM     14  C   UNL     1      -5.605   6.412   0.063  0.00  0.00    +0.277 C 
ENDBRANCH   7  13
ENDBRANCH   1   5
BRANCH   2  15
ATOM     15  N   UNL     1      -0.473   3.234   0.022  0.00  0.00    -0.221 N 
ATOM     16  C   UNL     1      -1.073   1.994   0.018  0.00  0.00    +0.142 C 
ATOM     17  H   UNL     1       0.494   3.305   0.018  0.00  0.00    +0.176 HD
ATOM     18  H   UNL     1      -3.003   2.642   0.032  0.00  0.00    +0.157 HD
ATOM     19  N   UNL     1      -2.387   1.829   0.024  0.00  0.00    -0.384 N 
ATOM     20  H   UNL     1      -2.786   0.883   0.021  0.00  0.00    +0.157 HD
BRANCH  16  21
ATOM     21  C   UNL     1      -0.240   0.768   0.007  0.00  0.00    +0.187 A 
ATOM     22  C   UNL     1      -0.674  -0.648   0.002  0.00  0.00    +0.191 A 
ATOM     23  N   UNL     1       0.467  -1.296  -0.013  0.00  0.00    -0.033 NA
ATOM     24  O   UNL     1       1.380  -0.504  -0.016  0.00  0.00    -0.240 OA
ATOM     25  N   UNL     1       1.071   0.664  -0.005  0.00  0.00    -0.044 NA
ATOM     26  N   UNL     1      -1.964  -1.160   0.010  0.00  0.00    -0.339 N 
ATOM     27  H   UNL     1      -2.725  -0.559   0.021  0.00  0.00    +0.144 HD
ATOM     28  H   UNL     1      -2.105  -2.120   0.005  0.00  0.00    +0.144 HD
ENDBRANCH  16  21
ENDBRANCH   2  15
TORSDOF 6
