REMARK  Name = ZINC20700215
REMARK  4 active torsions:
REMARK  status: ('A' for Active; 'I' for Inactive)
REMARK    1  A    between atoms: C_1  and  O_2
REMARK    2  A    between atoms: O_2  and  C_3
REMARK    3  A    between atoms: C_6  and  N_26
REMARK    4  A    between atoms: C_10  and  C_19
REMARK                            x       y       z     vdW  Elec       q    Type
REMARK                         _______ _______ _______ _____ _____    ______ ____
ROOT
ATOM      1  C   UNL     1       2.239   1.499  -0.046  0.00  0.00    +0.141 A 
ATOM      2  C   UNL     1       0.995   2.090   0.072  0.00  0.00    +0.050 A 
ATOM      3  C   UNL     1      -0.120   1.302   0.295  0.00  0.00    +0.037 A 
ATOM      4  C   UNL     1       0.011  -0.068   0.398  0.00  0.00    +0.132 A 
ATOM      5  C   UNL     1       1.257  -0.673   0.279  0.00  0.00    +0.014 A 
ATOM      6  C   UNL     1       2.372   0.111   0.058  0.00  0.00    +0.076 A 
ATOM      7  N   UNL     1       3.647  -0.441  -0.099  0.00  0.00    -0.334 N 
ATOM      8  C   UNL     1       3.591  -1.807  -0.623  0.00  0.00    +0.106 C 
ATOM      9  C   UNL     1       2.769  -2.686   0.307  0.00  0.00    +0.029 C 
ATOM     10  C   UNL     1       1.318  -2.172   0.398  0.00  0.00    +0.051 C 
ATOM     11  C   UNL     1       0.885  -2.552   1.804  0.00  0.00    -0.023 C 
ATOM     12  C   UNL     1       1.928  -2.729   2.575  0.00  0.00    -0.030 C 
ATOM     13  C   UNL     1       3.210  -2.492   1.798  0.00  0.00    +0.033 C 
ATOM     14  H   UNL     1       4.620   0.025   0.118  0.00  0.00    +0.147 HD
ENDROOT
BRANCH   8  15
ATOM     15  C   UNL     1       2.955  -1.793  -1.989  0.00  0.00    -0.009 A 
ATOM     16  C   UNL     1       2.272  -0.672  -2.422  0.00  0.00    +0.007 A 
ATOM     17  C   UNL     1       1.692  -0.658  -3.677  0.00  0.00    +0.000 A 
ATOM     18  C   UNL     1       1.787  -1.768  -4.496  0.00  0.00    +0.001 A 
ATOM     19  C   UNL     1       2.465  -2.891  -4.062  0.00  0.00    +0.020 A 
ATOM     20  C   UNL     1       3.050  -2.904  -2.808  0.00  0.00    +0.046 A 
ATOM     21 CL   UNL     1       3.901  -4.315  -2.261  0.00  0.00    -0.083 Cl
ENDBRANCH   8  15
BRANCH   4  22
ATOM     22  N   UNL     1      -1.188  -0.902   0.636  0.00  0.00    +0.057 N 
ATOM     23  O   UNL     1      -1.280  -1.999   0.115  0.00  0.00    -0.126 OA
ATOM     24  O   UNL     1      -2.083  -0.491   1.353  0.00  0.00    -0.126 OA
ENDBRANCH   4  22
BRANCH   1  26
ATOM     25  C   UNL     1       3.131   3.681  -0.361  0.00  0.00    +0.277 C 
ATOM     26  O   UNL     1       3.338   2.270  -0.265  0.00  0.00    -0.493 OA
ENDBRANCH   1  26
TORSDOF 3
