REMARK  Name = ZINC02727120
REMARK  8 active torsions:
REMARK  status: ('A' for Active; 'I' for Inactive)
REMARK    1  A    between atoms: C_1  and  C_2
REMARK    2  A    between atoms: C_9  and  N_30
REMARK    3  A    between atoms: C_10  and  C_28
REMARK    4  A    between atoms: C_11  and  C_13
REMARK    5  A    between atoms: C_15  and  C_19
REMARK    6  A    between atoms: C_16  and  C_18
REMARK    7  A    between atoms: C_19  and  O_20
REMARK    8  A    between atoms: O_20  and  C_21
REMARK                            x       y       z     vdW  Elec       q    Type
REMARK                         _______ _______ _______ _____ _____    ______ ____
ROOT
ATOM      1  C   UNL     1      -2.183   5.372  -3.033  0.00  0.00    +0.068 C 
ATOM      2  C   UNL     1      -1.946   6.757  -2.488  0.00  0.00    +0.068 A 
ATOM      3  C   UNL     1      -1.735   7.083  -1.155  0.00  0.00    +0.050 A 
ATOM      4  C   UNL     1      -1.563   8.437  -1.074  0.00  0.00    +0.222 A 
ATOM      5  N   UNL     1      -1.662   8.935  -2.317  0.00  0.00    -0.246 N 
ATOM      6  H   UNL     1      -1.554  10.016  -2.487  0.00  0.00    +0.192 HD
ATOM      7  N   UNL     1      -1.904   7.864  -3.191  0.00  0.00    -0.176 NA
ATOM      8  O   UNL     1      -1.335   9.077   0.100  0.00  0.00    -0.423 OA
ATOM      9  C   UNL     1      -1.553   8.388   1.239  0.00  0.00    +0.200 C 
ATOM     10  C   UNL     1      -1.726   7.049   1.287  0.00  0.00    +0.099 C 
ATOM     11  C   UNL     1      -1.685   6.183   0.052  0.00  0.00    +0.108 C 
ENDROOT
BRANCH  11  12
ATOM     12  C   UNL     1      -0.410   5.380   0.035  0.00  0.00    +0.003 A 
ATOM     13  C   UNL     1      -0.250   4.034   0.027  0.00  0.00    +0.019 A 
ATOM     14  C   UNL     1       1.030   3.512   0.011  0.00  0.00    -0.000 A 
ATOM     15  C   UNL     1       2.087   4.362   0.011  0.00  0.00    -0.007 A 
ATOM     16  S   UNL     1       1.280   5.954   0.021  0.00  0.00    -0.097 S 
ATOM     17  C   UNL     1       3.560   4.044   0.002  0.00  0.00    +0.052 C 
BRANCH  14  18
ATOM     18  C   UNL     1       1.248   2.021   0.001  0.00  0.00    +0.265 C 
BRANCH  18  19
ATOM     19  O   UNL     1      -0.016   1.355   0.009  0.00  0.00    -0.487 OA
BRANCH  19  20
ATOM     20  C   UNL     1       0.002  -0.004   0.002  0.00  0.00    +0.121 A 
ATOM     21  C   UNL     1       1.212  -0.682  -0.019  0.00  0.00    +0.047 A 
ATOM     22  C   UNL     1       1.229  -2.063  -0.021  0.00  0.00    +0.019 A 
ATOM     23  C   UNL     1       0.040  -2.771  -0.014  0.00  0.00    +0.018 A 
ATOM     24  C   UNL     1      -1.168  -2.096   0.002  0.00  0.00    +0.019 A 
ATOM     25  C   UNL     1      -1.189  -0.715   0.010  0.00  0.00    +0.047 A 
ATOM     26 BR   UNL     1       0.065  -4.661  -0.025  0.00  0.00    -0.050 Br
ENDBRANCH  19  20
ENDBRANCH  18  19
ENDBRANCH  14  18
ENDBRANCH  11  12
BRANCH   9  27
ATOM     27  N   UNL     1      -1.602   9.088   2.419  0.00  0.00    -0.328 N 
ATOM     28  H   UNL     1      -1.778   8.558   3.366  0.00  0.00    +0.145 HD
ATOM     29  H   UNL     1      -1.466  10.180   2.417  0.00  0.00    +0.145 HD
ENDBRANCH   9  27
BRANCH  10  30
ATOM     30  C   UNL     1      -1.955   6.428   2.557  0.00  0.00    +0.101 C 
ATOM     31  N   UNL     1      -2.137   5.935   3.564  0.00  0.00    -0.191 NA
ENDBRANCH  10  30
TORSDOF 6
