REMARK  Name = ZINC21016676
REMARK  6 active torsions:
REMARK  status: ('A' for Active; 'I' for Inactive)
REMARK    1  A    between atoms: C_1  and  C_2
REMARK    2  A    between atoms: C_6  and  C_19
REMARK    3  A    between atoms: C_8  and  O_11
REMARK    4  A    between atoms: O_11  and  C_12
REMARK    5  A    between atoms: C_19  and  C_20
REMARK    6  A    between atoms: C_19  and  C_21
REMARK                            x       y       z     vdW  Elec       q    Type
REMARK                         _______ _______ _______ _____ _____    ______ ____
ROOT
ATOM      1  C   UNL     1      -1.400   1.231   0.009  0.00  0.00    +0.007 C 
ATOM      2  C   UNL     1      -1.576   1.778   1.427  0.00  0.00    -0.011 C 
ATOM      3  C   UNL     1      -0.561   1.115   2.360  0.00  0.00    +0.004 C 
ATOM      4  C   UNL     1      -0.737   1.662   3.777  0.00  0.00    +0.007 C 
ATOM      5  C   UNL     1      -0.512   3.175   3.772  0.00  0.00    +0.032 C 
ATOM      6  C   UNL     1      -1.527   3.838   2.839  0.00  0.00    +0.177 C 
ATOM      7  C   UNL     1      -1.351   3.291   1.421  0.00  0.00    +0.048 C 
ENDROOT
BRANCH   5   8
ATOM      8  C   UNL     1      -0.688   3.722   5.190  0.00  0.00    -0.011 C 
ATOM      9  C   UNL     1      -2.053   3.296   5.735  0.00  0.00    +0.007 C 
ATOM     10  C   UNL     1       0.417   3.168   6.091  0.00  0.00    +0.007 C 
ENDBRANCH   5   8
BRANCH   6  11
ATOM     11  O   UNL     1      -1.317   5.252   2.834  0.00  0.00    -0.487 OA
BRANCH  11  12
ATOM     12  C   UNL     1      -2.382   6.033   2.510  0.00  0.00    +0.139 A 
ATOM     13  C   UNL     1      -3.594   5.455   2.142  0.00  0.00    +0.050 A 
ATOM     14  C   UNL     1      -4.653   6.287   1.826  0.00  0.00    +0.047 A 
ATOM     15  C   UNL     1      -4.469   7.665   1.875  0.00  0.00    +0.116 A 
ATOM     16  N   UNL     1      -3.301   8.179   2.224  0.00  0.00    -0.237 NA
ATOM     17  C   UNL     1      -2.272   7.413   2.537  0.00  0.00    +0.158 A 
ATOM     18  N   UNL     1      -5.526   8.513   1.554  0.00  0.00    -0.343 N 
ATOM     19  H   UNL     1      -5.388   9.603   1.591  0.00  0.00    +0.144 HD
ATOM     20  H   UNL     1      -6.500   8.092   1.263  0.00  0.00    +0.144 HD
ENDBRANCH  11  12
ENDBRANCH   6  11
TORSDOF 3
