REMARK  Name = ZINC60110255
REMARK  10 active torsions:
REMARK  status: ('A' for Active; 'I' for Inactive)
REMARK    1  A    between atoms: C_1  and  C_2
REMARK    2  A    between atoms: N_5  and  S_11
REMARK    3  A    between atoms: C_7  and  C_10
REMARK    4  A    between atoms: S_11  and  C_14
REMARK    5  A    between atoms: C_18  and  C_20
REMARK    6  A    between atoms: C_20  and  N_22
REMARK    7  A    between atoms: N_31  and  C_32
REMARK    8  A    between atoms: C_32  and  C_33
REMARK    9  A    between atoms: C_32  and  C_34
REMARK   10  A    between atoms: C_32  and  C_35
REMARK                            x       y       z     vdW  Elec       q    Type
REMARK                         _______ _______ _______ _____ _____    ______ ____
ROOT
ATOM      1  C   UNL     1      -1.124  -3.384  -2.142  0.00  0.00    +0.106 A 
ATOM      2  C   UNL     1      -1.113  -2.596  -3.279  0.00  0.00    +0.028 A 
ATOM      3  C   UNL     1      -0.283  -2.914  -4.340  0.00  0.00    +0.003 A 
ATOM      4  C   UNL     1       0.539  -4.021  -4.269  0.00  0.00    +0.013 A 
ATOM      5  C   UNL     1       0.532  -4.818  -3.125  0.00  0.00    +0.041 A 
ATOM      6  C   UNL     1      -0.302  -4.489  -2.056  0.00  0.00    +0.041 A 
ENDROOT
BRANCH   1   7
ATOM      7  S   UNL     1      -2.184  -2.970  -0.796  0.00  0.00    +0.061 S 
ATOM      8  O   UNL     1      -2.401  -4.170  -0.067  0.00  0.00    -0.153 OA
ATOM      9  O   UNL     1      -3.250  -2.205  -1.340  0.00  0.00    -0.153 OA
BRANCH   7  13
ATOM     10  C   UNL     1       0.048   1.557  -0.014  0.00  0.00    +0.039 C 
ATOM     11  C   UNL     1       0.062   0.027  -0.014  0.00  0.00    +0.131 C 
ATOM     12  C   UNL     1      -1.377  -0.498   0.014  0.00  0.00    +0.140 C 
ATOM     13  N   UNL     1      -1.335  -1.957   0.202  0.00  0.00    -0.172 NA
ATOM     14  C   UNL     1      -0.518  -2.489   1.304  0.00  0.00    +0.140 C 
ATOM     15  C   UNL     1       0.880  -1.867   1.213  0.00  0.00    +0.131 C 
ATOM     16  O   UNL     1       0.759  -0.444   1.141  0.00  0.00    -0.371 OA
ATOM     17  C   UNL     1       1.589  -2.383  -0.041  0.00  0.00    +0.039 C 
ENDBRANCH   7  13
ENDBRANCH   1   7
BRANCH   5  18
ATOM     18  C   UNL     1       1.412  -6.007  -3.042  0.00  0.00    +0.270 C 
ATOM     19  O   UNL     1       1.404  -6.702  -2.041  0.00  0.00    -0.268 OA
BRANCH  18  20
ATOM     20  N   UNL     1       2.214  -6.318  -4.066  0.00  0.00    -0.142 NA
ATOM     21  C   UNL     1       3.077  -7.321  -3.953  0.00  0.00    +0.202 A 
ATOM     22  N   UNL     1       3.159  -8.175  -2.897  0.00  0.00    -0.326 N 
ATOM     23  C   UNL     1       4.182  -9.083  -3.150  0.00  0.00    +0.066 A 
ATOM     24  C   UNL     1       4.696 -10.154  -2.432  0.00  0.00    +0.028 A 
ATOM     25  C   UNL     1       5.740 -10.892  -2.951  0.00  0.00    +0.002 A 
ATOM     26  C   UNL     1       6.278 -10.569  -4.186  0.00  0.00    +0.002 A 
ATOM     27  C   UNL     1       5.774  -9.506  -4.908  0.00  0.00    +0.028 A 
ATOM     28  C   UNL     1       4.723  -8.758  -4.395  0.00  0.00    +0.068 A 
ATOM     29  N   UNL     1       4.016  -7.661  -4.877  0.00  0.00    -0.306 N 
ATOM     30  H   UNL     1       2.601  -8.153  -2.104  0.00  0.00    +0.169 HD
BRANCH  29  31
ATOM     31  C   UNL     1       4.243  -6.987  -6.157  0.00  0.00    +0.040 C 
ATOM     32  C   UNL     1       3.257  -5.827  -6.306  0.00  0.00    +0.034 C 
ATOM     33  C   UNL     1       5.675  -6.449  -6.203  0.00  0.00    +0.034 C 
ATOM     34  C   UNL     1       4.036  -7.982  -7.301  0.00  0.00    +0.034 C 
ENDBRANCH  29  31
ENDBRANCH  18  20
ENDBRANCH   5  18
TORSDOF 5
