REMARK  Name = ZINC06668074
REMARK  2 active torsions:
REMARK  status: ('A' for Active; 'I' for Inactive)
REMARK    1  A    between atoms: C_1  and  C_2
REMARK    2  A    between atoms: C_2  and  C_9
REMARK                            x       y       z     vdW  Elec       q    Type
REMARK                         _______ _______ _______ _____ _____    ______ ____
ROOT
ATOM      1  C   UNL     1       1.073   3.897   1.270  0.00  0.00    +0.051 C 
ATOM      2  C   UNL     1       0.593   3.169   0.013  0.00  0.00    +0.205 C 
ATOM      3  C   UNL     1       1.093   1.738   0.001  0.00  0.00    +0.253 C 
ATOM      4  O   UNL     1       2.247   1.366  -0.012  0.00  0.00    -0.273 OA
ATOM      5  N   UNL     1      -0.011   0.966   0.007  0.00  0.00    -0.238 N 
ATOM      6  C   UNL     1      -1.128   1.702   0.016  0.00  0.00    +0.307 C 
ATOM      7  O   UNL     1      -2.248   1.231   0.019  0.00  0.00    -0.252 OA
ATOM      8  N   UNL     1      -0.873   3.023   0.025  0.00  0.00    -0.278 N 
ATOM      9  H   UNL     1       0.002  -0.004   0.002  0.00  0.00    +0.159 HD
ATOM     10  H   UNL     1      -1.526   3.740   0.035  0.00  0.00    +0.152 HD
ENDROOT
BRANCH   2  11
ATOM     11  C   UNL     1       1.050   3.909  -1.246  0.00  0.00    +0.419 C 
ATOM     12  F   UNL     1       0.543   3.261  -2.378  0.00  0.00    -0.168 F 
ATOM     13  F   UNL     1       0.576   5.225  -1.212  0.00  0.00    -0.168 F 
ATOM     14  F   UNL     1       2.447   3.918  -1.301  0.00  0.00    -0.168 F 
ENDBRANCH   2  11
TORSDOF 1
