REMARK  Name = ZINC37193096
REMARK  6 active torsions:
REMARK  status: ('A' for Active; 'I' for Inactive)
REMARK    1  A    between atoms: C_1  and  C_2
REMARK    2  A    between atoms: C_5  and  S_9
REMARK    3  A    between atoms: C_6  and  N_8
REMARK    4  A    between atoms: S_9  and  C_10
REMARK    5  A    between atoms: C_10  and  C_11
REMARK    6  A    between atoms: C_16  and  C_21
REMARK                            x       y       z     vdW  Elec       q    Type
REMARK                         _______ _______ _______ _____ _____    ______ ____
ROOT
ATOM      1  C   UNL     1       0.058  -4.960  -1.801  0.00  0.00    +0.130 C 
ENDROOT
BRANCH   1   2
ATOM      2  C   UNL     1       0.077  -6.459  -1.958  0.00  0.00    +0.059 A 
ATOM      3  C   UNL     1      -1.061  -7.139  -2.336  0.00  0.00    +0.095 A 
ATOM      4  C   UNL     1      -1.024  -8.526  -2.477  0.00  0.00    +0.259 A 
ATOM      5  O   UNL     1      -2.029  -9.134  -2.812  0.00  0.00    -0.267 OA
ATOM      6  N   UNL     1       0.138  -9.205  -2.239  0.00  0.00    -0.259 N 
ATOM      7  C   UNL     1       0.331 -10.562  -2.335  0.00  0.00    +0.033 A 
ATOM      8  C   UNL     1       1.519 -11.108  -2.076  0.00  0.00    +0.070 A 
ATOM      9  S   UNL     1       2.497  -9.673  -1.659  0.00  0.00    -0.057 S 
ATOM     10  C   UNL     1       1.219  -8.452  -1.868  0.00  0.00    +0.180 A 
ATOM     11  N   UNL     1       1.193  -7.149  -1.739  0.00  0.00    -0.227 NA
ATOM     12  C   UNL     1      -0.819 -11.448  -2.739  0.00  0.00    +0.064 C 
ENDBRANCH   1   2
BRANCH   1  13
ATOM     13  S   UNL     1       0.062  -4.537  -0.037  0.00  0.00    -0.117 S 
BRANCH  13  18
ATOM     14  C   UNL     1      -0.018   1.503   0.010  0.00  0.00    +0.044 C 
ATOM     15  C   UNL     1       0.002  -0.004   0.002  0.00  0.00    -0.049 A 
ATOM     16  C   UNL     1       0.006  -0.687  -1.200  0.00  0.00    +0.004 A 
ATOM     17  C   UNL     1       0.024  -2.069  -1.215  0.00  0.00    +0.017 A 
ATOM     18  C   UNL     1       0.039  -2.775  -0.021  0.00  0.00    +0.029 A 
ATOM     19  C   UNL     1       0.036  -2.086   1.192  0.00  0.00    +0.038 A 
ATOM     20  C   UNL     1       0.023  -0.700   1.197  0.00  0.00    +0.027 A 
BRANCH  19  21
ATOM     21  N   UNL     1       0.051  -2.792   2.401  0.00  0.00    -0.357 N 
ATOM     22  H   UNL     1       0.063  -3.762   2.395  0.00  0.00    +0.142 HD
ATOM     23  H   UNL     1       0.049  -2.312   3.243  0.00  0.00    +0.142 HD
ENDBRANCH  19  21
ENDBRANCH  13  18
ENDBRANCH   1  13
TORSDOF 4
