REMARK  Name = ZINC30987583
REMARK  5 active torsions:
REMARK  status: ('A' for Active; 'I' for Inactive)
REMARK    1  A    between atoms: C_1  and  O_2
REMARK    2  A    between atoms: O_2  and  C_3
REMARK    3  A    between atoms: C_3  and  C_5
REMARK    4  A    between atoms: C_7  and  C_11
REMARK    5  A    between atoms: C_17  and  C_19
REMARK                            x       y       z     vdW  Elec       q    Type
REMARK                         _______ _______ _______ _____ _____    ______ ____
ROOT
ATOM      1  C   UNL     1       8.462  -4.757  -0.105  0.00  0.00    +0.082 A 
ATOM      2  C   UNL     1       9.358  -3.726  -0.109  0.00  0.00    +0.077 A 
ATOM      3  S   UNL     1       8.251  -2.324  -0.098  0.00  0.00    -0.060 S 
ATOM      4  C   UNL     1       6.758  -3.209  -0.080  0.00  0.00    +0.165 A 
ATOM      5  N   UNL     1       7.170  -4.460  -0.091  0.00  0.00    -0.225 NA
ATOM      6  N   UNL     1       5.458  -2.722  -0.065  0.00  0.00    -0.260 N 
ATOM      7  C   UNL     1       5.236  -1.393  -0.056  0.00  0.00    +0.256 C 
ATOM      8  O   UNL     1       6.176  -0.619  -0.061  0.00  0.00    -0.269 OA
ATOM      9  H   UNL     1       4.609  -3.422  -0.060  0.00  0.00    +0.157 HD
ENDROOT
BRANCH   7  10
ATOM     10  C   UNL     1       3.909  -0.896  -0.040  0.00  0.00    +0.078 A 
ATOM     11  C   UNL     1       3.476   0.417  -0.029  0.00  0.00    +0.049 A 
ATOM     12  C   UNL     1       2.116   0.682  -0.015  0.00  0.00    +0.082 A 
ATOM     13  C   UNL     1       1.260  -0.424  -0.012  0.00  0.00    +0.128 A 
ATOM     14  S   UNL     1       2.374  -1.807  -0.030  0.00  0.00    -0.063 S 
ATOM     15  N   UNL     1       0.002  -0.004   0.002  0.00  0.00    -0.214 NA
ATOM     16  C   UNL     1      -0.016   1.302   0.009  0.00  0.00    +0.179 A 
ATOM     17  N   UNL     1       1.254   1.812  -0.000  0.00  0.00    -0.293 N 
ATOM     18  C   UNL     1       1.379   3.183   0.006  0.00  0.00    +0.101 A 
ATOM     19  C   UNL     1       0.301   3.966   0.021  0.00  0.00    +0.067 A 
ATOM     20  S   UNL     1      -1.024   2.768   0.021  0.00  0.00    -0.058 S 
ENDBRANCH   7  10
BRANCH   1  23
ATOM     21  C   UNL     1       8.939  -8.406  -0.187  0.00  0.00    +0.125 A 
ATOM     22  C   UNL     1       8.103  -7.310  -0.208  0.00  0.00    +0.044 A 
ATOM     23  C   UNL     1       8.922  -6.170  -0.117  0.00  0.00    +0.019 A 
ATOM     24  C   UNL     1      10.216  -6.598  -0.035  0.00  0.00    +0.093 A 
ATOM     25  N   UNL     1      10.232  -7.946  -0.077  0.00  0.00    -0.355 N 
ATOM     26  H   UNL     1      11.068  -8.660  -0.038  0.00  0.00    +0.166 HD
BRANCH  21  27
ATOM     27  C   UNL     1       8.524  -9.810  -0.263  0.00  0.00    +0.355 C 
ATOM     28  O   UNL     1       7.345 -10.091  -0.359  0.00  0.00    -0.243 OA
BRANCH  27  30
ATOM     29  C   UNL     1       8.969 -12.156  -0.305  0.00  0.00    +0.280 C 
ATOM     30  O   UNL     1       9.451 -10.789  -0.225  0.00  0.00    -0.463 OA
ENDBRANCH  27  30
ENDBRANCH  21  27
ENDBRANCH   1  23
TORSDOF 4
