REMARK  Name = ZINC56013785
REMARK  9 active torsions:
REMARK  status: ('A' for Active; 'I' for Inactive)
REMARK    1  A    between atoms: C_1  and  C_2
REMARK    2  A    between atoms: C_2  and  C_3
REMARK    3  A    between atoms: C_9  and  C_11
REMARK    4  A    between atoms: C_15  and  N_17
REMARK    5  A    between atoms: C_18  and  C_20
REMARK    6  A    between atoms: C_20  and  C_21
REMARK    7  A    between atoms: C_20  and  C_22
REMARK    8  A    between atoms: C_20  and  N_23
REMARK    9  A    between atoms: N_26  and  C_27
REMARK                            x       y       z     vdW  Elec       q    Type
REMARK                         _______ _______ _______ _____ _____    ______ ____
ROOT
ATOM      1  C   UNL     1      -3.914  -1.425   2.538  0.00  0.00    +0.019 A 
ATOM      2  C   UNL     1      -5.274  -1.744   2.576  0.00  0.00    +0.011 A 
ATOM      3  C   UNL     1      -5.958  -1.703   3.774  0.00  0.00    +0.002 A 
ATOM      4  C   UNL     1      -5.303  -1.347   4.938  0.00  0.00    +0.023 A 
ATOM      5  C   UNL     1      -3.950  -1.028   4.910  0.00  0.00    +0.034 A 
ATOM      6  C   UNL     1      -3.252  -1.071   3.714  0.00  0.00    +0.034 A 
ENDROOT
BRANCH   1  13
ATOM      7  C   UNL     1      -1.195  -1.198   0.106  0.00  0.00    +0.048 A 
ATOM      8  C   UNL     1      -1.801  -1.538  -1.067  0.00  0.00    +0.093 A 
ATOM      9  C   UNL     1      -3.173  -1.859  -1.057  0.00  0.00    +0.252 A 
ATOM     10  O   UNL     1      -3.748  -2.169  -2.087  0.00  0.00    -0.268 OA
ATOM     11  N   UNL     1      -3.839  -1.817   0.117  0.00  0.00    -0.307 N 
ATOM     12  H   UNL     1      -4.784  -2.034   0.149  0.00  0.00    +0.170 HD
ATOM     13  C   UNL     1      -3.179  -1.469   1.257  0.00  0.00    +0.141 A 
ATOM     14  N   UNL     1      -1.895  -1.176   1.238  0.00  0.00    -0.234 NA
BRANCH   7  16
ATOM     15  C   UNL     1       0.438   0.667   0.024  0.00  0.00    +0.010 C 
ATOM     16  C   UNL     1       0.272  -0.851   0.121  0.00  0.00    +0.052 C 
ENDBRANCH   7  16
ENDBRANCH   1  13
BRANCH   5  17
ATOM     17  N   UNL     1      -3.292  -0.668   6.092  0.00  0.00    -0.284 N 
ATOM     18  C   UNL     1      -2.290   0.233   6.058  0.00  0.00    +0.240 C 
ATOM     19  O   UNL     1      -2.022   0.803   5.021  0.00  0.00    -0.273 OA
ATOM     20  H   UNL     1      -3.557  -1.067   6.935  0.00  0.00    +0.155 HD
BRANCH  18  21
ATOM     21  C   UNL     1      -1.503   0.533   7.307  0.00  0.00    +0.107 C 
ATOM     22  C   UNL     1      -0.379  -0.493   7.460  0.00  0.00    +0.041 C 
ATOM     23  C   UNL     1      -0.903   1.937   7.207  0.00  0.00    +0.041 C 
BRANCH  21  24
ATOM     24  N   UNL     1      -2.390   0.463   8.471  0.00  0.00    -0.286 N 
ATOM     25  C   UNL     1      -1.902   0.697   9.706  0.00  0.00    +0.300 C 
ATOM     26  O   UNL     1      -0.725   0.966   9.853  0.00  0.00    -0.253 OA
ATOM     27  N   UNL     1      -2.717   0.632  10.777  0.00  0.00    -0.302 N 
ATOM     28  C   UNL     1      -2.187   0.886  12.118  0.00  0.00    +0.129 C 
ATOM     29  H   UNL     1      -3.329   0.248   8.354  0.00  0.00    +0.151 HD
ATOM     30  H   UNL     1      -3.656   0.417  10.659  0.00  0.00    +0.150 HD
ENDBRANCH  21  24
ENDBRANCH  18  21
ENDBRANCH   5  17
TORSDOF 5
