REMARK  Name = ZINC39252393
REMARK  10 active torsions:
REMARK  status: ('A' for Active; 'I' for Inactive)
REMARK    1  A    between atoms: C_1  and  C_2
REMARK    2  A    between atoms: C_2  and  O_3
REMARK    3  A    between atoms: O_3  and  C_4
REMARK    4  A    between atoms: C_4  and  C_5
REMARK    5  A    between atoms: C_5  and  C_6
REMARK    6  A    between atoms: C_10  and  N_13
REMARK    7  A    between atoms: C_14  and  C_16
REMARK    8  A    between atoms: N_21  and  C_23
REMARK    9  A    between atoms: C_23  and  C_24
REMARK   10  A    between atoms: C_24  and  C_25
REMARK                            x       y       z     vdW  Elec       q    Type
REMARK                         _______ _______ _______ _____ _____    ______ ____
ROOT
ATOM      1  C   UNL     1      -2.233  -6.923  -6.520  0.00  0.00    +0.101 C 
ATOM      2  C   UNL     1      -2.700  -5.550  -7.057  0.00  0.00    +0.110 C 
ATOM      3  C   UNL     1      -4.082  -5.818  -7.610  0.00  0.00    +0.216 C 
ATOM      4  O   UNL     1      -4.682  -5.083  -8.366  0.00  0.00    -0.276 OA
ATOM      5  N   UNL     1      -4.548  -6.988  -7.142  0.00  0.00    -0.300 N 
ATOM      6  C   UNL     1      -3.580  -7.627  -6.242  0.00  0.00    +0.121 C 
ENDROOT
BRANCH   1   8
ATOM      7  N   UNL     1      -0.255  -6.115  -5.275  0.00  0.00    -0.290 N 
ATOM      8  C   UNL     1      -1.436  -6.764  -5.251  0.00  0.00    +0.220 C 
ATOM      9  O   UNL     1      -1.857  -7.219  -4.209  0.00  0.00    -0.275 OA
ATOM     10  H   UNL     1       0.082  -5.750  -6.108  0.00  0.00    +0.151 HD
BRANCH   7  14
ATOM     11  C   UNL     1       1.558  -3.789  -2.683  0.00  0.00    +0.132 C 
ATOM     12  N   UNL     1       2.274  -4.211  -3.926  0.00  0.00    -0.241 NA
ATOM     13  N   UNL     1       1.914  -5.551  -4.339  0.00  0.00    -0.227 NA
ATOM     14  C   UNL     1       0.520  -5.960  -4.041  0.00  0.00    +0.216 C 
ATOM     15  S   UNL     1      -0.096  -4.531  -3.049  0.00  0.00    -0.102 S 
ATOM     16  H   UNL     1       2.123  -3.549  -4.673  0.00  0.00    +0.142 HD
ATOM     17  H   UNL     1       2.573  -6.228  -3.985  0.00  0.00    +0.143 HD
BRANCH  11  18
ATOM     18  C   UNL     1       1.478  -2.265  -2.569  0.00  0.00    +0.059 C 
BRANCH  18  19
ATOM     19  C   UNL     1       0.746  -1.888  -1.280  0.00  0.00    +0.162 C 
BRANCH  19  20
ATOM     20  O   UNL     1       0.671  -0.465  -1.174  0.00  0.00    -0.380 OA
BRANCH  20  22
ATOM     21  C   UNL     1      -0.019   1.526   0.010  0.00  0.00    +0.034 C 
ATOM     22  C   UNL     1       0.002  -0.004   0.002  0.00  0.00    +0.156 C 
ENDBRANCH  20  22
ENDBRANCH  19  20
ENDBRANCH  18  19
ENDBRANCH  11  18
ENDBRANCH   7  14
ENDBRANCH   1   8
BRANCH   5  23
ATOM     23  C   UNL     1      -5.855  -7.555  -7.486  0.00  0.00    +0.112 C 
BRANCH  23  24
ATOM     24  C   UNL     1      -5.717  -8.437  -8.728  0.00  0.00    +0.056 C 
BRANCH  24  25
ATOM     25  C   UNL     1      -7.061  -9.020  -9.082  0.00  0.00    -0.021 A 
ATOM     26  C   UNL     1      -8.103  -8.380  -9.890  0.00  0.00    +0.004 A 
ATOM     27  C   UNL     1      -8.206  -7.150 -10.542  0.00  0.00    +0.030 A 
ATOM     28  C   UNL     1      -9.353  -6.842 -11.239  0.00  0.00    +0.042 A 
ATOM     29  C   UNL     1     -10.405  -7.748 -11.295  0.00  0.00    +0.022 A 
ATOM     30  C   UNL     1     -10.318  -8.966 -10.657  0.00  0.00    +0.027 A 
ATOM     31  C   UNL     1      -9.168  -9.297  -9.948  0.00  0.00    +0.047 A 
ATOM     32  N   UNL     1      -8.789 -10.406  -9.225  0.00  0.00    -0.360 N 
ATOM     33  C   UNL     1      -7.529 -10.225  -8.722  0.00  0.00    +0.087 A 
ATOM     34 CL   UNL     1      -9.486  -5.314 -12.051  0.00  0.00    -0.084 Cl
ATOM     35  H   UNL     1      -9.332 -11.199  -9.094  0.00  0.00    +0.165 HD
ENDBRANCH  24  25
ENDBRANCH  23  24
ENDBRANCH   5  23
TORSDOF 9
