REMARK  Name = ZINC43262365
REMARK  9 active torsions:
REMARK  status: ('A' for Active; 'I' for Inactive)
REMARK    1  A    between atoms: C_1  and  C_2
REMARK    2  A    between atoms: C_2  and  C_3
REMARK    3  A    between atoms: C_3  and  C_5
REMARK    4  A    between atoms: C_3  and  N_22
REMARK    5  A    between atoms: C_5  and  C_7
REMARK    6  A    between atoms: C_5  and  N_13
REMARK    7  A    between atoms: N_13  and  C_14
REMARK    8  A    between atoms: N_13  and  C_15
REMARK    9  A    between atoms: C_15  and  C_16
REMARK                            x       y       z     vdW  Elec       q    Type
REMARK                         _______ _______ _______ _____ _____    ______ ____
ROOT
ATOM      1  C   UNL     1       1.000  -2.289   1.167  0.00  0.00    +0.079 C 
ENDROOT
BRANCH   1   2
ATOM      2  C   UNL     1       1.673  -2.989   0.014  0.00  0.00    +0.006 A 
ATOM      3  C   UNL     1       1.143  -3.390  -1.167  0.00  0.00    +0.014 A 
ATOM      4  C   UNL     1       1.959  -4.021  -2.087  0.00  0.00    +0.023 A 
ATOM      5  C   UNL     1       3.265  -4.220  -1.781  0.00  0.00    +0.055 A 
ATOM      6  S   UNL     1       3.376  -3.496  -0.153  0.00  0.00    -0.085 S 
ATOM      7 BR   UNL     1       4.619  -5.042  -2.814  0.00  0.00    -0.043 Br
ENDBRANCH   1   2
BRANCH   1   8
ATOM      8  N   UNL     1       1.501  -2.839   2.433  0.00  0.00    -0.295 NA
ATOM      9  C   UNL     1       1.302  -4.293   2.491  0.00  0.00    +0.105 C 
BRANCH   8  10
ATOM     10  C   UNL     1       0.869  -2.175   3.582  0.00  0.00    +0.127 C 
BRANCH  10  11
ATOM     11  C   UNL     1       1.667  -2.461   4.828  0.00  0.00    +0.005 A 
ATOM     12  C   UNL     1       2.698  -1.760   5.361  0.00  0.00    +0.027 A 
ATOM     13  C   UNL     1       3.287  -2.214   6.526  0.00  0.00    +0.025 A 
ATOM     14  C   UNL     1       2.816  -3.348   7.101  0.00  0.00    +0.060 A 
ATOM     15  S   UNL     1       1.495  -3.805   5.990  0.00  0.00    -0.099 S 
ATOM     16 BR   UNL     1       4.728  -1.270   7.305  0.00  0.00    -0.050 Br
ENDBRANCH  10  11
ENDBRANCH   8  10
ENDBRANCH   1   8
BRANCH   1  17
ATOM     17  C   UNL     1       1.308  -0.791   1.104  0.00  0.00    -0.053 C 
BRANCH  17  18
ATOM     18  N   UNL     1       0.899  -0.261  -0.203  0.00  0.00    +0.381 N 
ATOM     19  H   UNL     1       1.452  -0.692  -0.929  0.00  0.00    -0.090 HD
ATOM     20  H   UNL     1      -0.077  -0.466  -0.358  0.00  0.00    -0.090 HD
ATOM     21  H   UNL     1       1.040   0.738  -0.220  0.00  0.00    -0.090 HD
ENDBRANCH  17  18
BRANCH  17  23
ATOM     22  C   UNL     1       3.102   0.929   1.358  0.00  0.00    +0.002 C 
ATOM     23  C   UNL     1       2.810  -0.571   1.296  0.00  0.00    -0.018 C 
ENDBRANCH  17  23
ENDBRANCH   1  17
TORSDOF 7
