REMARK  Name = ZINC01384155
REMARK  4 active torsions:
REMARK  status: ('A' for Active; 'I' for Inactive)
REMARK    1  A    between atoms: C_1  and  C_2
REMARK    2  A    between atoms: C_5  and  C_8
REMARK    3  A    between atoms: C_12  and  N_19
REMARK    4  A    between atoms: C_13  and  C_17
REMARK                            x       y       z     vdW  Elec       q    Type
REMARK                         _______ _______ _______ _____ _____    ______ ____
ROOT
ATOM      1  C   UNL     1      -0.813   0.605   2.530  0.00  0.00    +0.076 A 
ATOM      2  C   UNL     1      -1.296   1.092   1.303  0.00  0.00    -0.018 A 
ATOM      3  C   UNL     1      -2.054   2.215   1.277  0.00  0.00    -0.031 A 
ATOM      4  C   UNL     1      -2.346   2.890   2.495  0.00  0.00    +0.033 A 
ATOM      5  C   UNL     1      -3.129   4.100   2.689  0.00  0.00    +0.059 A 
ATOM      6  C   UNL     1      -3.282   4.581   3.970  0.00  0.00    +0.112 A 
ATOM      7  S   UNL     1      -2.374   3.414   4.961  0.00  0.00    -0.056 S 
ATOM      8  C   UNL     1      -1.815   2.325   3.675  0.00  0.00    +0.112 A 
ATOM      9  N   UNL     1      -1.086   1.232   3.663  0.00  0.00    -0.239 NA
ATOM     10  C   UNL     1      -2.618   2.800   0.010  0.00  0.00    +0.036 C 
ATOM     11  C   UNL     1      -1.889   2.239  -1.210  0.00  0.00    +0.005 C 
ATOM     12  C   UNL     1      -1.866   0.710  -1.095  0.00  0.00    +0.005 C 
ATOM     13  C   UNL     1      -0.937   0.326   0.056  0.00  0.00    +0.037 C 
ENDROOT
BRANCH   1  18
ATOM     14  C   UNL     1       2.396  -4.176   2.627  0.00  0.00    +0.044 C 
ATOM     15  C   UNL     1       1.556  -2.925   2.601  0.00  0.00    -0.050 A 
ATOM     16  C   UNL     1       1.810  -1.943   1.660  0.00  0.00    +0.004 A 
ATOM     17  C   UNL     1       1.044  -0.795   1.632  0.00  0.00    +0.010 A 
ATOM     18  C   UNL     1       0.013  -0.626   2.554  0.00  0.00    +0.001 A 
ATOM     19  C   UNL     1      -0.235  -1.616   3.504  0.00  0.00    +0.010 A 
ATOM     20  C   UNL     1       0.533  -2.762   3.519  0.00  0.00    +0.004 A 
ENDBRANCH   1  18
BRANCH   5  21
ATOM     21  N   UNL     1      -3.709   4.754   1.607  0.00  0.00    -0.356 N 
ATOM     22  H   UNL     1      -3.935   4.258   0.804  0.00  0.00    +0.142 HD
ATOM     23  H   UNL     1      -3.888   5.706   1.655  0.00  0.00    +0.142 HD
ENDBRANCH   5  21
BRANCH   6  24
ATOM     24  C   UNL     1      -4.002   5.742   4.402  0.00  0.00    +0.108 C 
ATOM     25  N   UNL     1      -4.573   6.662   4.745  0.00  0.00    -0.190 NA
ENDBRANCH   6  24
TORSDOF 3
