REMARK  Name = ZINC30831878
REMARK  6 active torsions:
REMARK  status: ('A' for Active; 'I' for Inactive)
REMARK    1  A    between atoms: C_3  and  N_20
REMARK    2  A    between atoms: C_5  and  N_7
REMARK    3  A    between atoms: C_8  and  C_10
REMARK    4  A    between atoms: C_21  and  C_23
REMARK    5  A    between atoms: C_24  and  N_35
REMARK    6  A    between atoms: C_27  and  C_33
REMARK                            x       y       z     vdW  Elec       q    Type
REMARK                         _______ _______ _______ _____ _____    ______ ____
ROOT
ATOM      1  N   UNL     1      -3.646  10.037  -2.675  0.00  0.00    -0.281 N 
ATOM      2  C   UNL     1      -4.761   9.528  -3.236  0.00  0.00    +0.257 C 
ATOM      3  O   UNL     1      -5.111   8.391  -2.974  0.00  0.00    -0.269 OA
ATOM      4  H   UNL     1      -3.288  11.034  -2.969  0.00  0.00    +0.155 HD
ENDROOT
BRANCH   2   5
ATOM      5  C   UNL     1      -5.525  10.316  -4.129  0.00  0.00    +0.097 A 
ATOM      6  C   UNL     1      -6.680   9.971  -4.798  0.00  0.00    +0.053 A 
ATOM      7  C   UNL     1      -7.296  10.960  -5.669  0.00  0.00    +0.030 A 
ATOM      8  C   UNL     1      -8.472  10.837  -6.445  0.00  0.00    +0.034 A 
ATOM      9  C   UNL     1      -8.885  11.913  -7.219  0.00  0.00    +0.092 A 
ATOM     10  C   UNL     1      -8.133  13.107  -7.223  0.00  0.00    +0.135 A 
ATOM     11  N   UNL     1      -7.036  13.201  -6.490  0.00  0.00    -0.224 NA
ATOM     12  C   UNL     1      -6.616  12.200  -5.744  0.00  0.00    +0.113 A 
ATOM     13  S   UNL     1      -5.222  11.988  -4.664  0.00  0.00    -0.062 S 
ATOM     14  N   UNL     1      -8.543  14.179  -7.994  0.00  0.00    -0.342 N 
ATOM     15  H   UNL     1      -7.957  15.110  -7.997  0.00  0.00    +0.144 HD
ATOM     16  H   UNL     1      -9.455  14.101  -8.604  0.00  0.00    +0.144 HD
BRANCH   6  17
ATOM     17  N   UNL     1      -7.243   8.713  -4.642  0.00  0.00    -0.356 N 
ATOM     18  H   UNL     1      -8.164   8.451  -5.182  0.00  0.00    +0.142 HD
ATOM     19  H   UNL     1      -6.767   7.976  -3.978  0.00  0.00    +0.142 HD
ENDBRANCH   6  17
BRANCH   9  20
ATOM     20  C   UNL     1     -10.073  11.811  -8.012  0.00  0.00    +0.103 C 
ATOM     21  N   UNL     1     -11.015  11.730  -8.641  0.00  0.00    -0.191 NA
ENDBRANCH   9  20
ENDBRANCH   2   5
BRANCH   1  24
ATOM     22  C   UNL     1      -1.633   9.208   0.289  0.00  0.00    +0.004 A 
ATOM     23  C   UNL     1      -2.326   9.940  -0.655  0.00  0.00    +0.023 A 
ATOM     24  C   UNL     1      -2.943   9.295  -1.720  0.00  0.00    +0.035 A 
ATOM     25  C   UNL     1      -2.858   7.915  -1.837  0.00  0.00    +0.046 A 
ATOM     26  C   UNL     1      -2.166   7.183  -0.883  0.00  0.00    +0.035 A 
ATOM     27  C   UNL     1      -1.550   7.834   0.179  0.00  0.00    +0.023 A 
BRANCH  26  28
ATOM     28  N   UNL     1      -2.082   5.790  -0.994  0.00  0.00    -0.285 N 
ATOM     29  C   UNL     1      -0.973   5.146  -0.581  0.00  0.00    +0.223 C 
ATOM     30  O   UNL     1      -0.011   5.779  -0.199  0.00  0.00    -0.275 OA
ATOM     31  H   UNL     1      -2.922   5.221  -1.419  0.00  0.00    +0.155 HD
BRANCH  29  32
ATOM     32  C   UNL     1      -0.927   3.640  -0.593  0.00  0.00    +0.048 C 
ATOM     33  C   UNL     1      -1.136   3.135  -2.022  0.00  0.00    +0.019 C 
ATOM     34  C   UNL     1      -1.090   1.606  -2.035  0.00  0.00    -0.009 C 
ATOM     35  C   UNL     1       0.271   1.133  -1.521  0.00  0.00    +0.007 C 
ATOM     36  C   UNL     1       0.481   1.638  -0.092  0.00  0.00    -0.009 C 
ATOM     37  C   UNL     1       0.434   3.167  -0.079  0.00  0.00    +0.019 C 
ATOM     38  C   UNL     1      -0.625   1.087   0.811  0.00  0.00    +0.007 C 
ATOM     39  C   UNL     1      -1.986   1.560   0.297  0.00  0.00    -0.009 C 
ATOM     40  C   UNL     1      -2.195   1.055  -1.132  0.00  0.00    +0.007 C 
ATOM     41  C   UNL     1      -2.033   3.089   0.310  0.00  0.00    +0.019 C 
ENDBRANCH  29  32
ENDBRANCH  26  28
ENDBRANCH   1  24
TORSDOF 6
