REMARK  Name = ZINC26855117
REMARK  5 active torsions:
REMARK  status: ('A' for Active; 'I' for Inactive)
REMARK    1  A    between atoms: C_3  and  N_8
REMARK    2  A    between atoms: N_8  and  C_9
REMARK    3  A    between atoms: C_9  and  N_11
REMARK    4  A    between atoms: N_11  and  N_12
REMARK    5  A    between atoms: C_13  and  C_15
REMARK                            x       y       z     vdW  Elec       q    Type
REMARK                         _______ _______ _______ _____ _____    ______ ____
ROOT
ATOM      1  N   UNL     1       4.888   0.015  -0.083  0.00  0.00    -0.231 N 
ATOM      2  C   UNL     1       3.754  -0.713  -0.093  0.00  0.00    +0.260 C 
ATOM      3  O   UNL     1       3.780  -1.874  -0.453  0.00  0.00    -0.269 OA
ATOM      4  H   UNL     1       4.865   1.065   0.243  0.00  0.00    +0.173 HD
ENDROOT
BRANCH   2   5
ATOM      5  C   UNL     1       2.481  -0.101   0.332  0.00  0.00    +0.040 A 
ATOM      6  C   UNL     1       2.453   1.234   0.746  0.00  0.00    +0.014 A 
ATOM      7  C   UNL     1       1.263   1.803   1.141  0.00  0.00    +0.017 A 
ATOM      8  C   UNL     1       0.095   1.053   1.128  0.00  0.00    +0.030 A 
ATOM      9  C   UNL     1       0.109  -0.286   0.720  0.00  0.00    +0.048 A 
ATOM     10  C   UNL     1       1.307  -0.856   0.321  0.00  0.00    +0.037 A 
ATOM     11  N   UNL     1      -1.051  -1.056   0.712  0.00  0.00    -0.284 N 
ATOM     12  C   UNL     1      -2.300  -0.599   0.667  0.00  0.00    +0.227 C 
ATOM     13  O   UNL     1      -3.205  -1.406   0.655  0.00  0.00    -0.275 OA
ATOM     14  C   UNL     1      -2.650   0.863   0.631  0.00  0.00    +0.170 C 
ATOM     15  S   UNL     1      -1.435   1.782   1.623  0.00  0.00    -0.114 S 
ATOM     16  H   UNL     1      -0.983  -2.154   0.745  0.00  0.00    +0.155 HD
ENDBRANCH   2   5
BRANCH   1  17
ATOM     17  N   UNL     1       6.097  -0.567  -0.486  0.00  0.00    -0.245 N 
ATOM     18  H   UNL     1       6.121  -1.617  -0.812  0.00  0.00    +0.172 HD
BRANCH  17  19
ATOM     19  C   UNL     1       7.232   0.161  -0.476  0.00  0.00    +0.151 C 
ATOM     20  S   UNL     1       8.709  -0.549  -0.970  0.00  0.00    -0.017 S 
BRANCH  19  21
ATOM     21  N   UNL     1       7.203   1.448  -0.077  0.00  0.00    -0.296 N 
ATOM     22  H   UNL     1       6.244   1.926   0.172  0.00  0.00    +0.154 HD
BRANCH  21  25
ATOM     23  C   UNL     1       9.815   3.682   1.230  0.00  0.00    +0.003 A 
ATOM     24  C   UNL     1       8.637   2.967   1.135  0.00  0.00    +0.023 A 
ATOM     25  C   UNL     1       8.393   2.177   0.019  0.00  0.00    +0.034 A 
ATOM     26  C   UNL     1       9.331   2.117  -1.004  0.00  0.00    +0.043 A 
ATOM     27  C   UNL     1      10.505   2.839  -0.905  0.00  0.00    +0.043 A 
ATOM     28  C   UNL     1      10.747   3.620   0.211  0.00  0.00    +0.020 A 
ATOM     29 CL   UNL     1      11.678   2.765  -2.183  0.00  0.00    -0.083 Cl
ENDBRANCH  21  25
ENDBRANCH  19  21
ENDBRANCH  17  19
ENDBRANCH   1  17
TORSDOF 5
