REMARK  Name = ZINC01739065
REMARK  7 active torsions:
REMARK  status: ('A' for Active; 'I' for Inactive)
REMARK    1  A    between atoms: C_1  and  C_2
REMARK    2  A    between atoms: C_2  and  C_3
REMARK    3  A    between atoms: C_3  and  C_4
REMARK    4  A    between atoms: C_5  and  C_15
REMARK    5  A    between atoms: N_17  and  N_18
REMARK    6  A    between atoms: C_19  and  C_20
REMARK    7  A    between atoms: C_25  and  O_26
REMARK                            x       y       z     vdW  Elec       q    Type
REMARK                         _______ _______ _______ _____ _____    ______ ____
ROOT
ATOM      1  C   UNL     1      -1.413  -2.041   0.005  0.00  0.00    +0.079 A 
ATOM      2  C   UNL     1      -1.406  -2.849  -1.097  0.00  0.00    +0.172 A 
ATOM      3  N   UNL     1      -1.387  -4.129  -0.685  0.00  0.00    -0.124 NA
ATOM      4  N   UNL     1      -1.380  -4.168   0.602  0.00  0.00    -0.058 NA
ATOM      5  N   UNL     1      -1.392  -2.852   1.085  0.00  0.00    -0.192 N 
ATOM      6  C   UNL     1      -1.384  -2.456   2.427  0.00  0.00    +0.240 A 
ATOM      7  C   UNL     1      -1.355  -3.352   3.586  0.00  0.00    +0.206 A 
ATOM      8  N   UNL     1      -1.356  -2.623   4.669  0.00  0.00    -0.032 NA
ATOM      9  O   UNL     1      -1.385  -1.263   4.275  0.00  0.00    -0.239 OA
ATOM     10  N   UNL     1      -1.396  -1.226   2.859  0.00  0.00    -0.027 NA
ATOM     11  N   UNL     1      -1.331  -4.742   3.541  0.00  0.00    -0.337 N 
ATOM     12  H   UNL     1      -1.333  -5.199   2.685  0.00  0.00    +0.144 HD
ATOM     13  H   UNL     1      -1.312  -5.254   4.364  0.00  0.00    +0.144 HD
ENDROOT
BRANCH   2  14
ATOM     14  C   UNL     1      -1.419  -2.395  -2.500  0.00  0.00    +0.285 C 
ATOM     15  O   UNL     1      -1.438  -1.206  -2.754  0.00  0.00    -0.267 OA
ATOM     16  N   UNL     1      -1.411  -3.298  -3.500  0.00  0.00    -0.202 N 
ATOM     17  H   UNL     1      -1.396  -4.246  -3.298  0.00  0.00    +0.178 HD
BRANCH  16  18
ATOM     18  N   UNL     1      -1.423  -2.866  -4.833  0.00  0.00    -0.187 NA
ATOM     19  C   UNL     1      -1.415  -3.736  -5.797  0.00  0.00    +0.142 C 
BRANCH  19  20
ATOM     20  C   UNL     1      -1.428  -3.282  -7.199  0.00  0.00    +0.037 A 
ATOM     21  C   UNL     1      -1.425  -4.215  -8.239  0.00  0.00    +0.033 A 
ATOM     22  C   UNL     1      -1.437  -3.783  -9.550  0.00  0.00    +0.042 A 
ATOM     23  C   UNL     1      -1.452  -2.428  -9.838  0.00  0.00    +0.023 A 
ATOM     24  C   UNL     1      -1.455  -1.496  -8.817  0.00  0.00    +0.047 A 
ATOM     25  C   UNL     1      -1.449  -1.913  -7.496  0.00  0.00    +0.126 A 
ATOM     26 CL   UNL     1      -1.434  -4.942 -10.842  0.00  0.00    -0.084 Cl
BRANCH  25  27
ATOM     27  O   UNL     1      -1.458  -0.997  -6.492  0.00  0.00    -0.506 OA
ATOM     28  H   UNL     1      -0.577  -0.720  -6.206  0.00  0.00    +0.292 HD
ENDBRANCH  25  27
ENDBRANCH  19  20
ENDBRANCH  16  18
ENDBRANCH   2  14
BRANCH   1  29
ATOM     29  C   UNL     1      -1.433  -0.534   0.013  0.00  0.00    +0.058 C 
BRANCH  29  31
ATOM     30  C   UNL     1      -0.019   1.526   0.010  0.00  0.00    +0.004 C 
ATOM     31  C   UNL     1       0.002  -0.004   0.002  0.00  0.00    +0.003 C 
ENDBRANCH  29  31
ENDBRANCH   1  29
TORSDOF 6
