REMARK  Name = ZINC66978729
REMARK  4 active torsions:
REMARK  status: ('A' for Active; 'I' for Inactive)
REMARK    1  A    between atoms: C_4  and  C_6
REMARK    2  A    between atoms: C_6  and  C_7
REMARK    3  A    between atoms: N_9  and  C_10
REMARK    4  A    between atoms: N_18  and  C_19
REMARK                            x       y       z     vdW  Elec       q    Type
REMARK                         _______ _______ _______ _____ _____    ______ ____
ROOT
ATOM      1  C   UNL     1      -0.395  -4.744  -2.130  0.00  0.00    +0.076 C 
ATOM      2  C   UNL     1       0.699  -5.741  -1.741  0.00  0.00    +0.041 C 
ATOM      3  C   UNL     1       0.054  -7.073  -1.345  0.00  0.00    +0.111 C 
ATOM      4  N   UNL     1      -0.810  -7.524  -2.444  0.00  0.00    -0.286 N 
ATOM      5  C   UNL     1      -1.838  -6.608  -2.957  0.00  0.00    +0.111 C 
ATOM      6  C   UNL     1      -1.172  -5.281  -3.335  0.00  0.00    +0.041 C 
ATOM      7  C   UNL     1      -0.663  -8.756  -2.972  0.00  0.00    +0.302 C 
ATOM      8  O   UNL     1       0.251  -9.469  -2.606  0.00  0.00    -0.253 OA
ATOM      9  N   UNL     1      -1.529  -9.196  -3.906  0.00  0.00    -0.294 N 
ATOM     10  H   UNL     1      -2.214  -8.602  -4.251  0.00  0.00    +0.151 HD
ENDROOT
BRANCH   9  11
ATOM     11  C   UNL     1      -1.436 -10.572  -4.401  0.00  0.00    +0.100 C 
ATOM     12  C   UNL     1      -2.044 -10.654  -5.804  0.00  0.00    +0.027 C 
ATOM     13  C   UNL     1      -2.011 -12.110  -6.278  0.00  0.00    +0.030 C 
ATOM     14  C   UNL     1      -2.760 -12.985  -5.269  0.00  0.00    +0.160 C 
ATOM     15  O   UNL     1      -2.163 -12.838  -3.979  0.00  0.00    -0.378 OA
ATOM     16  C   UNL     1      -2.205 -11.506  -3.463  0.00  0.00    +0.182 C 
ENDBRANCH   9  11
BRANCH   1  19
ATOM     17  C   UNL     1       0.506  -2.567  -1.509  0.00  0.00    +0.214 C 
ATOM     18  O   UNL     1       0.261  -2.829  -0.351  0.00  0.00    -0.276 OA
ATOM     19  N   UNL     1       0.216  -3.459  -2.478  0.00  0.00    -0.312 N 
ATOM     20  H   UNL     1       0.413  -3.250  -3.404  0.00  0.00    +0.149 HD
BRANCH  17  21
ATOM     21  C   UNL     1       1.135  -1.245  -1.867  0.00  0.00    +0.099 C 
BRANCH  21  25
ATOM     22  C   UNL     1      -0.012   1.536   0.016  0.00  0.00    +0.000 C 
ATOM     23  C   UNL     1       1.485   1.934   0.009  0.00  0.00    +0.000 C 
ATOM     24  C   UNL     1       2.115   0.876  -0.929  0.00  0.00    +0.004 C 
ATOM     25  C   UNL     1       1.359  -0.426  -0.594  0.00  0.00    -0.002 C 
ATOM     26  C   UNL     1       0.006  -0.006   0.007  0.00  0.00    +0.004 C 
ENDBRANCH  21  25
ENDBRANCH  17  21
ENDBRANCH   1  19
TORSDOF 4
