REMARK  Name = ZINC43658851
REMARK  4 active torsions:
REMARK  status: ('A' for Active; 'I' for Inactive)
REMARK    1  A    between atoms: C_4  and  N_18
REMARK    2  A    between atoms: C_5  and  C_7
REMARK    3  A    between atoms: C_7  and  C_8
REMARK    4  A    between atoms: C_15  and  O_17
REMARK                            x       y       z     vdW  Elec       q    Type
REMARK                         _______ _______ _______ _____ _____    ______ ____
ROOT
ATOM      1  C   UNL     1       1.473  -2.117  -0.049  0.00  0.00    +0.043 C 
ENDROOT
BRANCH   1   2
ATOM      2  C   UNL     1       1.438  -2.730   1.352  0.00  0.00    +0.022 C 
ATOM      3  C   UNL     1       2.540  -2.123   2.178  0.00  0.00    +0.006 C 
ATOM      4  C   UNL     1       2.047  -1.994   3.634  0.00  0.00    +0.000 C 
ATOM      5  C   UNL     1       2.132  -3.252   4.362  0.00  0.00    +0.000 C 
ATOM      6  C   UNL     1       1.248  -4.352   3.740  0.00  0.00    +0.003 C 
ATOM      7  C   UNL     1       1.971  -4.934   2.556  0.00  0.00    +0.031 C 
ATOM      8  C   UNL     1       1.570  -4.261   1.230  0.00  0.00    +0.118 C 
BRANCH   8   9
ATOM      9  O   UNL     1       2.559  -4.560   0.242  0.00  0.00    -0.392 OA
ATOM     10  H   UNL     1       2.703  -5.506   0.104  0.00  0.00    +0.210 HD
ENDBRANCH   8   9
ENDBRANCH   1   2
BRANCH   1  15
ATOM     11  C   UNL     1       1.964   1.626   0.033  0.00  0.00    +0.000 A 
ATOM     12  C   UNL     1       0.667   2.070   0.211  0.00  0.00    +0.002 A 
ATOM     13  C   UNL     1      -0.369   1.159   0.306  0.00  0.00    +0.033 A 
ATOM     14  C   UNL     1      -0.108  -0.196   0.222  0.00  0.00    +0.129 A 
ATOM     15  C   UNL     1       1.189  -0.640   0.042  0.00  0.00    -0.017 A 
ATOM     16  C   UNL     1       2.225   0.271  -0.051  0.00  0.00    +0.006 A 
BRANCH  14  17
ATOM     17  N   UNL     1      -1.217  -1.171   0.324  0.00  0.00    +0.057 N 
ATOM     18  O   UNL     1      -2.334  -0.790   0.583  0.00  0.00    -0.126 OA
ATOM     19  O   UNL     1      -1.005  -2.348   0.148  0.00  0.00    -0.126 OA
ENDBRANCH  14  17
ENDBRANCH   1  15
TORSDOF 4
