REMARK  Name = ZINC02568597
REMARK  5 active torsions:
REMARK  status: ('A' for Active; 'I' for Inactive)
REMARK    1  A    between atoms: C_3  and  O_9
REMARK    2  A    between atoms: O_9  and  C_10
REMARK    3  A    between atoms: C_10  and  C_11
REMARK    4  A    between atoms: C_14  and  C_16
REMARK    5  A    between atoms: N_18  and  N_19
REMARK                            x       y       z     vdW  Elec       q    Type
REMARK                         _______ _______ _______ _____ _____    ______ ____
ROOT
ATOM      1  C   UNL     1       0.633   3.196   0.013  0.00  0.00    +0.143 A 
ATOM      2  C   UNL     1       1.102   1.929   0.002  0.00  0.00    +0.049 A 
ATOM      3  C   UNL     1      -0.013   1.076   0.008  0.00  0.00    +0.055 A 
ATOM      4  C   UNL     1      -1.119   1.876   0.017  0.00  0.00    +0.191 A 
ATOM      5  O   UNL     1      -0.706   3.160   0.025  0.00  0.00    -0.452 OA
ENDROOT
BRANCH   4   6
ATOM      6  C   UNL     1      -2.513   1.419   0.020  0.00  0.00    +0.293 C 
ATOM      7  O   UNL     1      -2.763   0.228   0.015  0.00  0.00    -0.266 OA
ATOM      8  N   UNL     1      -3.517   2.318   0.029  0.00  0.00    -0.247 N 
ATOM      9  H   UNL     1      -3.317   3.268   0.033  0.00  0.00    +0.169 HD
BRANCH   8  10
ATOM     10  N   UNL     1      -4.815   1.893   0.032  0.00  0.00    -0.254 NA
ATOM     11  H   UNL     1      -5.452   2.675   0.039  0.00  0.00    +0.140 HD
ATOM     12  H   UNL     1      -4.998   1.285  -0.752  0.00  0.00    +0.140 HD
ENDBRANCH   8  10
ENDBRANCH   4   6
BRANCH   1  13
ATOM     13  C   UNL     1       1.478   4.444   0.012  0.00  0.00    +0.303 C 
BRANCH  13  14
ATOM     14  O   UNL     1       1.732   4.846  -1.336  0.00  0.00    -0.483 OA
BRANCH  14  17
ATOM     15  C   UNL     1       3.736   7.793  -0.600  0.00  0.00    +0.005 A 
ATOM     16  C   UNL     1       2.969   6.658  -0.417  0.00  0.00    +0.047 A 
ATOM     17  C   UNL     1       2.486   5.963  -1.515  0.00  0.00    +0.141 A 
ATOM     18  C   UNL     1       2.777   6.407  -2.798  0.00  0.00    +0.101 A 
ATOM     19  C   UNL     1       3.540   7.547  -2.977  0.00  0.00    +0.063 A 
ATOM     20  C   UNL     1       4.021   8.238  -1.878  0.00  0.00    +0.022 A 
ATOM     21 CL   UNL     1       3.900   8.107  -4.580  0.00  0.00    -0.082 Cl
ATOM     22 CL   UNL     1       2.179   5.536  -4.176  0.00  0.00    -0.078 Cl
ENDBRANCH  14  17
ENDBRANCH  13  14
ENDBRANCH   1  13
TORSDOF 5
