REMARK  Name = ZINC16020493
REMARK  6 active torsions:
REMARK  status: ('A' for Active; 'I' for Inactive)
REMARK    1  A    between atoms: C_1  and  O_2
REMARK    2  A    between atoms: O_2  and  C_3
REMARK    3  A    between atoms: C_6  and  C_9
REMARK    4  A    between atoms: C_9  and  N_10
REMARK    5  A    between atoms: C_15  and  C_33
REMARK    6  A    between atoms: C_33  and  C_34
REMARK                            x       y       z     vdW  Elec       q    Type
REMARK                         _______ _______ _______ _____ _____    ______ ____
ROOT
ATOM      1  N   UNL     1      -5.423  -2.855  -1.343  0.00  0.00    -0.237 N 
ATOM      2  C   UNL     1      -6.161  -1.969  -2.021  0.00  0.00    +0.227 C 
ATOM      3  O   UNL     1      -6.546  -0.903  -1.590  0.00  0.00    -0.275 OA
ATOM      4  C   UNL     1      -6.440  -2.502  -3.407  0.00  0.00    +0.107 C 
ATOM      5  C   UNL     1      -7.946  -2.811  -3.542  0.00  0.00    +0.076 C 
ATOM      6  N   UNL     1      -8.100  -4.198  -3.030  0.00  0.00    -0.295 NA
ATOM      7  C   UNL     1      -6.899  -4.899  -3.522  0.00  0.00    +0.136 C 
ATOM      8  C   UNL     1      -5.732  -3.886  -3.409  0.00  0.00    +0.122 C 
ATOM      9  C   UNL     1      -5.117  -3.962  -2.029  0.00  0.00    +0.229 C 
ATOM     10  O   UNL     1      -4.452  -4.885  -1.609  0.00  0.00    -0.275 OA
ATOM     11  C   UNL     1      -7.077  -5.370  -4.937  0.00  0.00    +0.006 A 
ATOM     12  C   UNL     1      -7.346  -4.725  -6.124  0.00  0.00    +0.046 A 
ATOM     13  C   UNL     1      -7.455  -5.452  -7.298  0.00  0.00    +0.124 A 
ATOM     14  C   UNL     1      -7.292  -6.827  -7.274  0.00  0.00    +0.040 A 
ATOM     15  C   UNL     1      -7.022  -7.475  -6.086  0.00  0.00    +0.026 A 
ATOM     16  C   UNL     1      -6.911  -6.751  -4.902  0.00  0.00    +0.039 A 
ATOM     17  N   UNL     1      -6.648  -7.173  -3.595  0.00  0.00    -0.283 N 
ATOM     18  C   UNL     1      -6.625  -6.145  -2.725  0.00  0.00    +0.243 C 
ATOM     19  O   UNL     1      -6.423  -6.212  -1.531  0.00  0.00    -0.273 OA
ATOM     20  F   UNL     1      -7.720  -4.822  -8.463  0.00  0.00    -0.205 F 
ATOM     21  H   UNL     1      -8.137  -4.209  -2.022  0.00  0.00    +0.124 HD
ATOM     22  H   UNL     1      -6.500  -8.098  -3.345  0.00  0.00    +0.155 HD
ENDROOT
BRANCH   1  23
ATOM     23  C   UNL     1      -4.981  -2.629   0.035  0.00  0.00    +0.151 C 
BRANCH  23  27
ATOM     24  C   UNL     1      -1.200  -0.637   0.010  0.00  0.00    +0.120 A 
ATOM     25  C   UNL     1      -2.375   0.101   0.019  0.00  0.00    +0.046 A 
ATOM     26  C   UNL     1      -3.596  -0.545   0.027  0.00  0.00    +0.009 A 
ATOM     27  C   UNL     1      -3.648  -1.927   0.026  0.00  0.00    -0.029 A 
ATOM     28  C   UNL     1      -2.479  -2.665   0.017  0.00  0.00    +0.009 A 
ATOM     29  C   UNL     1      -1.255  -2.024   0.003  0.00  0.00    +0.046 A 
BRANCH  24  31
ATOM     30  C   UNL     1      -0.017   1.425   0.010  0.00  0.00    +0.277 C 
ATOM     31  O   UNL     1       0.002  -0.004   0.002  0.00  0.00    -0.495 OA
ENDBRANCH  24  31
ENDBRANCH  23  27
ENDBRANCH   1  23
BRANCH   5  32
ATOM     32  C   UNL     1      -8.767  -1.835  -2.696  0.00  0.00    +0.115 C 
BRANCH  32  33
ATOM     33  C   UNL     1     -10.235  -2.073  -2.937  0.00  0.00    +0.212 C 
ATOM     34  O   UNL     1     -10.591  -2.938  -3.709  0.00  0.00    -0.276 OA
ATOM     35  N   UNL     1     -11.154  -1.325  -2.295  0.00  0.00    -0.329 N 
ATOM     36  H   UNL     1     -10.870  -0.633  -1.677  0.00  0.00    +0.145 HD
ATOM     37  H   UNL     1     -12.099  -1.478  -2.450  0.00  0.00    +0.145 HD
ENDBRANCH  32  33
ENDBRANCH   5  32
TORSDOF 5
