REMARK  Name = ZINC40116469
REMARK  4 active torsions:
REMARK  status: ('A' for Active; 'I' for Inactive)
REMARK    1  A    between atoms: C_1  and  C_2
REMARK    2  A    between atoms: C_5  and  C_7
REMARK    3  A    between atoms: C_7  and  C_9
REMARK    4  A    between atoms: C_14  and  C_16
REMARK                            x       y       z     vdW  Elec       q    Type
REMARK                         _______ _______ _______ _____ _____    ______ ____
ROOT
ATOM      1  C   UNL     1       3.137  -3.134  -0.102  0.00  0.00    +0.079 C 
ATOM      2  C   UNL     1       4.091  -4.077  -0.276  0.00  0.00    +0.249 C 
ATOM      3  C   UNL     1       5.421  -3.438  -0.224  0.00  0.00    +0.285 C 
ATOM      4  O   UNL     1       6.480  -4.021  -0.348  0.00  0.00    -0.267 OA
ATOM      5  N   UNL     1       5.287  -2.115  -0.021  0.00  0.00    -0.298 N 
ATOM      6  C   UNL     1       3.853  -1.815   0.066  0.00  0.00    +0.142 C 
ATOM      7  O   UNL     1       3.863  -5.398  -0.466  0.00  0.00    -0.282 OA
ATOM      8  H   UNL     1       6.011  -1.472   0.051  0.00  0.00    +0.150 HD
ENDROOT
BRANCH   6   9
ATOM      9  C   UNL     1       3.533  -1.218   1.412  0.00  0.00    -0.021 A 
ATOM     10  C   UNL     1       4.108  -1.742   2.555  0.00  0.00    +0.006 A 
ATOM     11  C   UNL     1       3.814  -1.195   3.790  0.00  0.00    +0.002 A 
ATOM     12  C   UNL     1       2.945  -0.125   3.883  0.00  0.00    +0.020 A 
ATOM     13  C   UNL     1       2.368   0.400   2.740  0.00  0.00    +0.041 A 
ATOM     14  C   UNL     1       2.667  -0.144   1.503  0.00  0.00    +0.025 A 
ATOM     15 CL   UNL     1       1.276   1.744   2.856  0.00  0.00    -0.084 Cl
ENDBRANCH   6   9
BRANCH   1  16
ATOM     16  C   UNL     1       1.685  -3.350  -0.085  0.00  0.00    +0.230 C 
ATOM     17  O   UNL     1       1.177  -4.009   0.805  0.00  0.00    -0.283 OA
BRANCH  16  22
ATOM     18  C   UNL     1       0.312  -0.965  -4.267  0.00  0.00    +0.086 C 
ATOM     19  C   UNL     1       0.236  -1.730  -2.971  0.00  0.00    +0.103 A 
ATOM     20  C   UNL     1      -0.903  -2.141  -2.368  0.00  0.00    +0.045 A 
ATOM     21  C   UNL     1      -0.530  -2.811  -1.194  0.00  0.00    +0.053 A 
ATOM     22  C   UNL     1       0.846  -2.774  -1.140  0.00  0.00    +0.175 A 
ATOM     23  O   UNL     1       1.285  -2.117  -2.234  0.00  0.00    -0.457 OA
ENDBRANCH  16  22
ENDBRANCH   1  16
TORSDOF 3
