REMARK  Name = ZINC34734968
REMARK  10 active torsions:
REMARK  status: ('A' for Active; 'I' for Inactive)
REMARK    1  A    between atoms: C_1  and  C_2
REMARK    2  A    between atoms: C_2  and  N_3
REMARK    3  A    between atoms: N_3  and  C_4
REMARK    4  A    between atoms: C_4  and  C_5
REMARK    5  A    between atoms: C_6  and  C_8
REMARK    6  A    between atoms: C_8  and  N_9
REMARK    7  A    between atoms: N_22  and  C_25
REMARK    8  A    between atoms: C_25  and  C_26
REMARK    9  A    between atoms: C_31  and  C_33
REMARK   10  A    between atoms: C_31  and  C_34
REMARK                            x       y       z     vdW  Elec       q    Type
REMARK                         _______ _______ _______ _____ _____    ______ ____
ROOT
ATOM      1  N   UNL     1      -2.081  -0.817   3.674  0.00  0.00    -0.271 N 
ATOM      2  C   UNL     1      -2.810   0.154   4.252  0.00  0.00    +0.264 A 
ATOM      3  O   UNL     1      -2.674   1.316   3.910  0.00  0.00    -0.267 OA
ATOM      4  C   UNL     1      -3.749  -0.195   5.274  0.00  0.00    +0.076 A 
ATOM      5  C   UNL     1      -4.637   0.684   6.033  0.00  0.00    -0.018 A 
ATOM      6  C   UNL     1      -5.437   0.104   6.953  0.00  0.00    +0.021 A 
ATOM      7  S   UNL     1      -5.061  -1.624   6.865  0.00  0.00    -0.071 S 
ATOM      8  C   UNL     1      -3.827  -1.563   5.590  0.00  0.00    +0.118 A 
ATOM      9  N   UNL     1      -3.076  -2.472   4.980  0.00  0.00    -0.208 NA
ATOM     10  C   UNL     1      -2.224  -2.123   4.039  0.00  0.00    +0.202 A 
ATOM     11  N   UNL     1      -1.466  -3.086   3.421  0.00  0.00    -0.304 N 
ATOM     12  C   UNL     1      -0.150  -3.470   3.954  0.00  0.00    +0.089 C 
ATOM     13  C   UNL     1      -0.101  -4.997   4.075  0.00  0.00    -0.059 C 
ATOM     14  N   UNL     1      -0.428  -5.600   2.776  0.00  0.00    +0.387 N 
ATOM     15  C   UNL     1      -1.813  -5.276   2.409  0.00  0.00    -0.059 C 
ATOM     16  C   UNL     1      -1.948  -3.767   2.210  0.00  0.00    +0.089 C 
ATOM     17  C   UNL     1      -6.418   0.804   7.841  0.00  0.00    +0.203 C 
ATOM     18  O   UNL     1      -6.142   2.212   7.780  0.00  0.00    -0.368 OA
ATOM     19  C   UNL     1      -6.000   2.708   6.446  0.00  0.00    +0.068 C 
ATOM     20  C   UNL     1      -4.695   2.196   5.830  0.00  0.00    +0.071 C 
ATOM     21  C   UNL     1      -7.182   2.231   5.599  0.00  0.00    +0.041 C 
ATOM     22  C   UNL     1      -5.983   4.237   6.472  0.00  0.00    +0.041 C 
ATOM     23  H   UNL     1       0.198  -5.240   2.072  0.00  0.00    -0.081 HD
ENDROOT
BRANCH   1  24
ATOM     24  C   UNL     1      -1.118  -0.466   2.627  0.00  0.00    +0.224 C 
BRANCH  24  26
ATOM     25  N   UNL     1      -1.134  -0.088   0.182  0.00  0.00    -0.301 N 
ATOM     26  C   UNL     1      -1.825  -0.397   1.297  0.00  0.00    +0.236 C 
ATOM     27  O   UNL     1      -3.015  -0.620   1.231  0.00  0.00    -0.274 OA
BRANCH  25  29
ATOM     28  C   UNL     1       0.531   1.674   0.508  0.00  0.00    +0.024 C 
ATOM     29  C   UNL     1       0.304   0.181   0.262  0.00  0.00    +0.104 C 
ENDBRANCH  25  29
BRANCH  25  30
ATOM     30  C   UNL     1      -1.820  -0.021  -1.110  0.00  0.00    +0.104 C 
ATOM     31  C   UNL     1      -1.785  -1.397  -1.778  0.00  0.00    +0.024 C 
ENDBRANCH  25  30
ENDBRANCH  24  26
ENDBRANCH   1  24
BRANCH  14  32
ATOM     32  C   UNL     1      -0.275  -7.059   2.863  0.00  0.00    +0.018 C 
BRANCH  32  33
ATOM     33  C   UNL     1      -0.491  -7.668   1.502  0.00  0.00    +0.194 C 
ATOM     34  O   UNL     1      -0.747  -6.958   0.553  0.00  0.00    -0.278 OA
ATOM     35  N   UNL     1      -0.399  -9.003   1.339  0.00  0.00    -0.331 N 
ATOM     36  H   UNL     1      -0.194  -9.571   2.098  0.00  0.00    +0.145 HD
ATOM     37  H   UNL     1      -0.537  -9.395   0.463  0.00  0.00    +0.145 HD
ENDBRANCH  32  33
ENDBRANCH  14  32
TORSDOF 6
