REMARK  Name = ZINC65371106
REMARK  9 active torsions:
REMARK  status: ('A' for Active; 'I' for Inactive)
REMARK    1  A    between atoms: C_1  and  C_2
REMARK    2  A    between atoms: C_2  and  C_3
REMARK    3  A    between atoms: C_3  and  C_4
REMARK    4  A    between atoms: C_4  and  C_6
REMARK    5  A    between atoms: C_4  and  C_7
REMARK    6  A    between atoms: C_9  and  C_26
REMARK    7  A    between atoms: N_13  and  C_14
REMARK    8  A    between atoms: C_14  and  C_15
REMARK    9  A    between atoms: C_15  and  C_16
REMARK                            x       y       z     vdW  Elec       q    Type
REMARK                         _______ _______ _______ _____ _____    ______ ____
ROOT
ATOM      1  C   UNL     1       1.452  -2.685   2.502  0.00  0.00    -0.042 C 
ATOM      2  C   UNL     1       2.668  -1.804   2.846  0.00  0.00    +0.069 C 
ATOM      3  N   UNL     1       3.725  -2.740   3.296  0.00  0.00    -0.327 NA
ATOM      4  C   UNL     1       2.984  -3.942   3.758  0.00  0.00    +0.006 C 
ATOM      5  N   UNL     1       1.877  -4.079   2.774  0.00  0.00    +0.391 N 
ATOM      6  H   UNL     1       4.351  -2.970   2.539  0.00  0.00    +0.120 HD
ATOM      7  H   UNL     1       2.210  -4.517   1.929  0.00  0.00    -0.079 HD
ENDROOT
BRANCH   2   8
ATOM      8  C   UNL     1       3.125  -1.048   1.625  0.00  0.00    -0.032 A 
ATOM      9  C   UNL     1       3.729  -1.722   0.581  0.00  0.00    +0.005 A 
ATOM     10  C   UNL     1       4.148  -1.028  -0.539  0.00  0.00    +0.000 A 
ATOM     11  C   UNL     1       3.963   0.340  -0.614  0.00  0.00    +0.000 A 
ATOM     12  C   UNL     1       3.358   1.014   0.430  0.00  0.00    +0.000 A 
ATOM     13  C   UNL     1       2.935   0.320   1.548  0.00  0.00    +0.005 A 
ENDBRANCH   2   8
BRANCH   1  14
ATOM     14  C   UNL     1       1.083  -2.524   1.026  0.00  0.00    -0.026 C 
ATOM     15  C   UNL     1       0.449  -1.148   0.806  0.00  0.00    +0.006 C 
BRANCH  14  16
ATOM     16  C   UNL     1       0.086  -3.614   0.628  0.00  0.00    +0.001 C 
BRANCH  16  18
ATOM     17  C   UNL     1      -1.185  -4.620  -1.274  0.00  0.00    +0.004 C 
ATOM     18  C   UNL     1      -0.188  -3.530  -0.875  0.00  0.00    -0.003 C 
ENDBRANCH  16  18
ENDBRANCH  14  16
ENDBRANCH   1  14
BRANCH   5  19
ATOM     19  C   UNL     1       0.768  -4.850   3.352  0.00  0.00    -0.072 C 
BRANCH  19  20
ATOM     20  C   UNL     1       1.190  -6.312   3.508  0.00  0.00    +0.023 C 
BRANCH  20  21
ATOM     21  C   UNL     1       0.052  -7.103   4.100  0.00  0.00    +0.031 A 
ATOM     22  C   UNL     1      -0.800  -7.779   3.301  0.00  0.00    +0.096 A 
ATOM     23  N   UNL     1      -1.828  -8.492   3.855  0.00  0.00    -0.314 N 
ATOM     24  H   UNL     1      -2.441  -8.977   3.281  0.00  0.00    +0.170 HD
ATOM     25  C   UNL     1      -1.997  -8.526   5.189  0.00  0.00    +0.327 A 
ATOM     26  O   UNL     1      -2.917  -9.166   5.661  0.00  0.00    -0.247 OA
ATOM     27  N   UNL     1      -1.161  -7.862   6.010  0.00  0.00    -0.275 N 
ATOM     28  H   UNL     1      -1.297  -7.898   6.969  0.00  0.00    +0.173 HD
ATOM     29  C   UNL     1      -0.133  -7.152   5.503  0.00  0.00    +0.257 A 
ATOM     30  O   UNL     1       0.626  -6.555   6.245  0.00  0.00    -0.267 OA
ENDBRANCH  20  21
ENDBRANCH  19  20
ENDBRANCH   5  19
TORSDOF 7
