REMARK  Name = ZINC65521329
REMARK  10 active torsions:
REMARK  status: ('A' for Active; 'I' for Inactive)
REMARK    1  A    between atoms: C_1  and  C_2
REMARK    2  A    between atoms: C_7  and  C_8
REMARK    3  A    between atoms: N_10  and  C_11
REMARK    4  A    between atoms: C_11  and  C_13
REMARK    5  A    between atoms: C_11  and  C_16
REMARK    6  A    between atoms: C_13  and  C_14
REMARK    7  A    between atoms: C_13  and  C_15
REMARK    8  A    between atoms: N_18  and  N_19
REMARK    9  A    between atoms: C_20  and  C_22
REMARK   10  A    between atoms: C_27  and  C_28
REMARK                            x       y       z     vdW  Elec       q    Type
REMARK                         _______ _______ _______ _____ _____    ______ ____
ROOT
ATOM      1  C   UNL     1       0.736   0.171   4.841  0.00  0.00    +0.163 C 
ENDROOT
BRANCH   1   4
ATOM      2  C   UNL     1       0.571   0.317   2.415  0.00  0.00    +0.245 C 
ATOM      3  O   UNL     1       0.299   1.496   2.534  0.00  0.00    -0.270 OA
ATOM      4  N   UNL     1       0.808  -0.434   3.509  0.00  0.00    -0.300 N 
ATOM      5  H   UNL     1       1.026  -1.374   3.414  0.00  0.00    +0.150 HD
BRANCH   2  12
ATOM      6  C   UNL     1      -0.205   1.866   0.098  0.00  0.00    +0.044 C 
ATOM      7  C   UNL     1       0.272   0.444  -0.055  0.00  0.00    -0.038 A 
ATOM      8  C   UNL     1       0.347  -0.129  -1.308  0.00  0.00    +0.004 A 
ATOM      9  C   UNL     1       0.785  -1.433  -1.450  0.00  0.00    +0.000 A 
ATOM     10  C   UNL     1       1.150  -2.172  -0.338  0.00  0.00    +0.001 A 
ATOM     11  C   UNL     1       1.080  -1.611   0.920  0.00  0.00    +0.013 A 
ATOM     12  C   UNL     1       0.644  -0.293   1.070  0.00  0.00    +0.040 A 
ENDBRANCH   2  12
ENDBRANCH   1   4
BRANCH   1  13
ATOM     13  C   UNL     1       1.592  -0.619   5.798  0.00  0.00    +0.250 C 
ATOM     14  O   UNL     1       2.203  -1.591   5.405  0.00  0.00    -0.272 OA
ATOM     15  N   UNL     1       1.680  -0.245   7.090  0.00  0.00    -0.233 N 
ATOM     16  H   UNL     1       1.192   0.532   7.404  0.00  0.00    +0.173 HD
BRANCH  15  17
ATOM     17  N   UNL     1       2.476  -0.979   7.979  0.00  0.00    -0.230 N 
ATOM     18  C   UNL     1       2.564  -0.605   9.271  0.00  0.00    +0.260 C 
ATOM     19  O   UNL     1       1.952   0.369   9.664  0.00  0.00    -0.269 OA
ATOM     20  H   UNL     1       2.964  -1.756   7.665  0.00  0.00    +0.173 HD
BRANCH  18  21
ATOM     21  C   UNL     1       3.404  -1.379  10.209  0.00  0.00    +0.041 A 
ATOM     22  C   UNL     1       4.006  -2.569   9.793  0.00  0.00    +0.013 A 
ATOM     23  C   UNL     1       4.788  -3.286  10.674  0.00  0.00    +0.001 A 
ATOM     24  C   UNL     1       4.978  -2.830  11.966  0.00  0.00    +0.000 A 
ATOM     25  C   UNL     1       4.385  -1.652  12.384  0.00  0.00    +0.004 A 
ATOM     26  C   UNL     1       3.604  -0.922  11.512  0.00  0.00    -0.038 A 
ATOM     27  C   UNL     1       2.963   0.364  11.967  0.00  0.00    +0.044 C 
ENDBRANCH  18  21
ENDBRANCH  15  17
ENDBRANCH   1  13
BRANCH   1  28
ATOM     28  C   UNL     1      -0.714   0.161   5.328  0.00  0.00    +0.012 C 
ATOM     29  C   UNL     1      -1.583   0.962   4.357  0.00  0.00    +0.009 C 
ATOM     30  C   UNL     1      -1.220  -1.281   5.394  0.00  0.00    +0.009 C 
ENDBRANCH   1  28
TORSDOF 6
