REMARK  Name = ZINC29467636
REMARK  11 active torsions:
REMARK  status: ('A' for Active; 'I' for Inactive)
REMARK    1  A    between atoms: C_1  and  C_2
REMARK    2  A    between atoms: C_3  and  C_9
REMARK    3  A    between atoms: C_6  and  N_8
REMARK    4  A    between atoms: C_9  and  N_10
REMARK    5  A    between atoms: C_11  and  C_13
REMARK    6  A    between atoms: C_13  and  N_14
REMARK    7  A    between atoms: C_15  and  C_33
REMARK    8  A    between atoms: C_18  and  N_21
REMARK    9  A    between atoms: N_21  and  S_22
REMARK   10  A    between atoms: S_22  and  C_25
REMARK   11  A    between atoms: C_25  and  C_26
REMARK                            x       y       z     vdW  Elec       q    Type
REMARK                         _______ _______ _______ _____ _____    ______ ____
ROOT
ATOM      1  N   UNL     1       2.820   2.466  -5.532  0.00  0.00    -0.302 N 
ATOM      2  C   UNL     1       3.246   1.853  -6.670  0.00  0.00    +0.026 A 
ATOM      3  C   UNL     1       3.360   2.543  -7.827  0.00  0.00    +0.024 A 
ATOM      4  C   UNL     1       3.037   3.908  -7.866  0.00  0.00    +0.031 A 
ATOM      5  C   UNL     1       2.607   4.525  -6.724  0.00  0.00    +0.112 A 
ATOM      6  C   UNL     1       2.496   3.773  -5.534  0.00  0.00    +0.274 A 
ATOM      7  O   UNL     1       2.111   4.308  -4.506  0.00  0.00    -0.266 OA
ENDROOT
BRANCH   2   8
ATOM      8  C   UNL     1       3.596   0.388  -6.640  0.00  0.00    +0.036 C 
ATOM      9  C   UNL     1       3.442  -0.402  -7.941  0.00  0.00    +0.010 C 
ATOM     10  C   UNL     1       2.451  -0.615  -6.794  0.00  0.00    +0.010 C 
ENDBRANCH   2   8
BRANCH   5  11
ATOM     11  N   UNL     1       2.279   5.886  -6.735  0.00  0.00    -0.215 N 
ATOM     12  H   UNL     1       1.975   6.319  -5.921  0.00  0.00    +0.173 HD
BRANCH  11  13
ATOM     13  S   UNL     1       2.408   6.758  -8.137  0.00  0.00    +0.047 S 
ATOM     14  O   UNL     1       2.025   8.079  -7.779  0.00  0.00    -0.155 OA
ATOM     15  O   UNL     1       3.720   6.488  -8.612  0.00  0.00    -0.155 OA
BRANCH  13  16
ATOM     16  C   UNL     1       1.177   6.031  -9.253  0.00  0.00    +0.223 C 
BRANCH  16  17
ATOM     17  C   UNL     1       1.208   6.755 -10.574  0.00  0.00    -0.025 A 
ATOM     18  C   UNL     1       0.404   7.862 -10.774  0.00  0.00    +0.007 A 
ATOM     19  C   UNL     1       0.432   8.527 -11.986  0.00  0.00    +0.020 A 
ATOM     20  C   UNL     1       1.264   8.084 -12.999  0.00  0.00    +0.041 A 
ATOM     21  C   UNL     1       2.068   6.976 -12.798  0.00  0.00    +0.020 A 
ATOM     22  C   UNL     1       2.044   6.316 -11.584  0.00  0.00    +0.007 A 
ATOM     23 CL   UNL     1       1.299   8.918 -14.521  0.00  0.00    -0.084 Cl
ENDBRANCH  16  17
ENDBRANCH  13  16
ENDBRANCH  11  13
ENDBRANCH   5  11
BRANCH   1  24
ATOM     24  C   UNL     1       2.707   1.693  -4.293  0.00  0.00    +0.220 C 
BRANCH  24  26
ATOM     25  N   UNL     1       0.951   0.456  -3.065  0.00  0.00    -0.310 N 
ATOM     26  C   UNL     1       1.292   1.195  -4.139  0.00  0.00    +0.233 C 
ATOM     27  O   UNL     1       0.461   1.461  -4.981  0.00  0.00    -0.274 OA
ATOM     28  H   UNL     1       1.616   0.244  -2.391  0.00  0.00    +0.149 HD
BRANCH  25  29
ATOM     29  C   UNL     1      -0.424  -0.027  -2.915  0.00  0.00    +0.141 C 
BRANCH  29  32
ATOM     30  C   UNL     1      -0.703   1.328  -0.383  0.00  0.00    +0.063 C 
ATOM     31  C   UNL     1      -0.674  -0.178  -0.426  0.00  0.00    +0.019 A 
ATOM     32  C   UNL     1      -0.541  -0.822  -1.640  0.00  0.00    -0.011 A 
ATOM     33  C   UNL     1      -0.515  -2.210  -1.675  0.00  0.00    +0.010 A 
ATOM     34  C   UNL     1      -0.626  -2.902  -0.482  0.00  0.00    +0.041 A 
ATOM     35  C   UNL     1      -0.758  -2.188   0.705  0.00  0.00    +0.094 A 
ATOM     36  N   UNL     1      -0.773  -0.864   0.696  0.00  0.00    -0.347 N 
ATOM     37  H   UNL     1      -0.862  -0.387   1.536  0.00  0.00    +0.167 HD
BRANCH  35  38
ATOM     38  N   UNL     1      -0.871  -2.871   1.911  0.00  0.00    -0.345 N 
ATOM     39  H   UNL     1      -0.857  -3.841   1.922  0.00  0.00    +0.144 HD
ATOM     40  H   UNL     1      -0.963  -2.377   2.740  0.00  0.00    +0.144 HD
ENDBRANCH  35  38
ENDBRANCH  29  32
ENDBRANCH  25  29
ENDBRANCH  24  26
ENDBRANCH   1  24
TORSDOF 10
