REMARK  Name = ZINC62726732
REMARK  8 active torsions:
REMARK  status: ('A' for Active; 'I' for Inactive)
REMARK    1  A    between atoms: C_1  and  C_2
REMARK    2  A    between atoms: C_2  and  C_4
REMARK    3  A    between atoms: C_2  and  O_22
REMARK    4  A    between atoms: C_8  and  O_10
REMARK    5  A    between atoms: O_10  and  C_11
REMARK    6  A    between atoms: C_11  and  C_12
REMARK    7  A    between atoms: C_12  and  C_13
REMARK    8  A    between atoms: C_18  and  N_19
REMARK                            x       y       z     vdW  Elec       q    Type
REMARK                         _______ _______ _______ _____ _____    ______ ____
ROOT
ATOM      1  O   UNL     1      -3.908  -1.811  -2.271  0.00  0.00    -0.492 OA
ENDROOT
BRANCH   1   6
ATOM      2  C   UNL     1      -1.502  -0.376   0.051  0.00  0.00    -0.016 A 
ATOM      3  C   UNL     1      -2.241  -0.377   1.220  0.00  0.00    +0.006 A 
ATOM      4  C   UNL     1      -3.537  -0.858   1.221  0.00  0.00    +0.004 A 
ATOM      5  C   UNL     1      -4.098  -1.339   0.053  0.00  0.00    +0.045 A 
ATOM      6  C   UNL     1      -3.358  -1.338  -1.121  0.00  0.00    +0.121 A 
ATOM      7  C   UNL     1      -2.060  -0.849  -1.120  0.00  0.00    +0.051 A 
BRANCH   2   9
ATOM      8  C   UNL     1      -0.114   1.678   0.003  0.00  0.00    +0.043 C 
ATOM      9  C   UNL     1      -0.090   0.149   0.054  0.00  0.00    +0.142 C 
BRANCH   9  10
ATOM     10  O   UNL     1       0.575  -0.277   1.245  0.00  0.00    -0.387 OA
ATOM     11  H   UNL     1       1.491   0.025   1.314  0.00  0.00    +0.210 HD
ENDBRANCH   9  10
ENDBRANCH   2   9
ENDBRANCH   1   6
BRANCH   1  12
ATOM     12  C   UNL     1      -5.251  -2.293  -2.198  0.00  0.00    +0.234 C 
BRANCH  12  13
ATOM     13  C   UNL     1      -5.693  -2.780  -3.580  0.00  0.00    +0.078 C 
BRANCH  13  14
ATOM     14  C   UNL     1      -7.110  -3.288  -3.503  0.00  0.00    -0.014 A 
ATOM     15  C   UNL     1      -7.355  -4.648  -3.460  0.00  0.00    +0.006 A 
ATOM     16  C   UNL     1      -8.654  -5.114  -3.389  0.00  0.00    +0.000 A 
ATOM     17  C   UNL     1      -9.709  -4.221  -3.362  0.00  0.00    +0.002 A 
ATOM     18  C   UNL     1      -9.464  -2.861  -3.405  0.00  0.00    +0.033 A 
ATOM     19  C   UNL     1      -8.164  -2.394  -3.471  0.00  0.00    +0.129 A 
BRANCH  19  20
ATOM     20  N   UNL     1      -7.901  -0.938  -3.511  0.00  0.00    +0.057 N 
ATOM     21  O   UNL     1      -8.814  -0.156  -3.385  0.00  0.00    -0.126 OA
ATOM     22  O   UNL     1      -6.774  -0.531  -3.671  0.00  0.00    -0.126 OA
ENDBRANCH  19  20
ENDBRANCH  13  14
ENDBRANCH  12  13
ENDBRANCH   1  12
TORSDOF 7
