REMARK  Name = ZINC14476222
REMARK  8 active torsions:
REMARK  status: ('A' for Active; 'I' for Inactive)
REMARK    1  A    between atoms: C_1  and  C_2
REMARK    2  A    between atoms: C_2  and  C_3
REMARK    3  A    between atoms: C_3  and  C_5
REMARK    4  A    between atoms: C_3  and  N_6
REMARK    5  A    between atoms: C_7  and  C_9
REMARK    6  A    between atoms: C_22  and  C_25
REMARK    7  A    between atoms: C_27  and  N_32
REMARK    8  A    between atoms: C_30  and  O_31
REMARK                            x       y       z     vdW  Elec       q    Type
REMARK                         _______ _______ _______ _____ _____    ______ ____
ROOT
ATOM      1  C   UNL     1       4.284   0.436   2.232  0.00  0.00    +0.037 A 
ATOM      2  C   UNL     1       4.878   0.696   0.994  0.00  0.00    +0.015 A 
ATOM      3  C   UNL     1       6.199   1.072   0.938  0.00  0.00    +0.024 A 
ATOM      4  C   UNL     1       6.946   1.197   2.110  0.00  0.00    +0.031 A 
ATOM      5  C   UNL     1       6.360   0.952   3.342  0.00  0.00    -0.019 A 
ATOM      6  C   UNL     1       5.032   0.572   3.402  0.00  0.00    +0.019 A 
ATOM      7  C   UNL     1       7.113   1.108   4.634  0.00  0.00    +0.049 C 
ATOM      8  C   UNL     1       6.282   1.988   5.554  0.00  0.00    -0.023 C 
ATOM      9  C   UNL     1       6.751   3.208   5.572  0.00  0.00    -0.030 C 
ATOM     10  C   UNL     1       7.970   3.333   4.682  0.00  0.00    +0.033 C 
ATOM     11  C   UNL     1       8.433   1.857   4.471  0.00  0.00    +0.029 C 
ATOM     12  C   UNL     1       9.152   1.647   3.172  0.00  0.00    +0.108 C 
ATOM     13  N   UNL     1       8.279   1.562   2.018  0.00  0.00    -0.336 N 
ATOM     14  H   UNL     1       8.650   1.745   1.140  0.00  0.00    +0.147 HD
ENDROOT
BRANCH  12  15
ATOM     15  C   UNL     1      10.085   2.809   2.950  0.00  0.00    +0.017 A 
ATOM     16  C   UNL     1       9.676   3.888   2.189  0.00  0.00    +0.041 A 
ATOM     17  C   UNL     1      10.532   4.955   1.985  0.00  0.00    +0.127 A 
ATOM     18  C   UNL     1      11.798   4.945   2.541  0.00  0.00    +0.036 A 
ATOM     19  C   UNL     1      12.211   3.869   3.302  0.00  0.00    +0.048 A 
ATOM     20  C   UNL     1      11.352   2.800   3.513  0.00  0.00    +0.122 A 
BRANCH  17  21
ATOM     21  N   UNL     1      10.092   6.109   1.170  0.00  0.00    +0.056 N 
ATOM     22  O   UNL     1       8.985   6.119   0.683  0.00  0.00    -0.126 OA
ATOM     23  O   UNL     1      10.839   7.043   0.991  0.00  0.00    -0.126 OA
ENDBRANCH  17  21
BRANCH  20  24
ATOM     24  O   UNL     1      11.754   1.742   4.266  0.00  0.00    -0.506 OA
ATOM     25  H   UNL     1      12.190   1.042   3.760  0.00  0.00    +0.292 HD
ENDBRANCH  20  24
ENDBRANCH  12  15
BRANCH   1  27
ATOM     26  N   UNL     1       2.148  -0.104   1.172  0.00  0.00    -0.309 N 
ATOM     27  C   UNL     1       2.869   0.026   2.303  0.00  0.00    +0.244 C 
ATOM     28  O   UNL     1       2.352  -0.194   3.382  0.00  0.00    -0.270 OA
ATOM     29  H   UNL     1       2.559   0.072   0.311  0.00  0.00    +0.149 HD
BRANCH  26  30
ATOM     30  C   UNL     1       0.742  -0.511   1.242  0.00  0.00    +0.070 C 
ATOM     31  C   UNL     1       0.655  -2.037   1.299  0.00  0.00    +0.028 C 
BRANCH  30  33
ATOM     32  C   UNL     1      -0.019   1.526   0.010  0.00  0.00    +0.005 C 
ATOM     33  C   UNL     1       0.002  -0.004   0.002  0.00  0.00    +0.018 C 
ENDBRANCH  30  33
ENDBRANCH  26  30
ENDBRANCH   1  27
TORSDOF 6
