REMARK  Name = ZINC12037323
REMARK  7 active torsions:
REMARK  status: ('A' for Active; 'I' for Inactive)
REMARK    1  A    between atoms: C_6  and  C_7
REMARK    2  A    between atoms: C_7  and  N_65
REMARK    3  A    between atoms: C_10  and  C_13
REMARK    4  A    between atoms: C_10  and  O_32
REMARK    5  A    between atoms: C_20  and  C_22
REMARK    6  A    between atoms: N_24  and  C_25
REMARK    7  A    between atoms: C_25  and  C_26
REMARK                            x       y       z     vdW  Elec       q    Type
REMARK                         _______ _______ _______ _____ _____    ______ ____
ROOT
ATOM      1  C   UNL     1       5.851  -0.305  -0.009  0.00  0.00    -0.075 C 
ATOM      2  C   UNL     1       6.753  -0.864  -1.113  0.00  0.00    +0.021 C 
ATOM      3  C   UNL     1       8.214  -0.772  -0.666  0.00  0.00    +0.088 C 
ATOM      4  C   UNL     1       8.388  -1.539   0.647  0.00  0.00    +0.021 C 
ATOM      5  C   UNL     1       7.439  -0.961   1.700  0.00  0.00    -0.075 C 
ATOM      6  N   UNL     1       6.048  -1.102   1.220  0.00  0.00    +0.383 N 
ATOM      7  H   UNL     1       5.867  -2.090   1.009  0.00  0.00    -0.081 HD
ENDROOT
BRANCH   3   8
ATOM      8  C   UNL     1       9.103  -1.375  -1.724  0.00  0.00    -0.015 A 
ATOM      9  C   UNL     1       9.413  -2.728  -1.673  0.00  0.00    +0.010 A 
ATOM     10  C   UNL     1      10.219  -3.302  -2.633  0.00  0.00    +0.047 A 
ATOM     11  C   UNL     1      10.738  -2.520  -3.658  0.00  0.00    +0.136 A 
ATOM     12  C   UNL     1      10.425  -1.148  -3.701  0.00  0.00    +0.021 A 
ATOM     13  C   UNL     1       9.602  -0.587  -2.722  0.00  0.00    +0.018 A 
ATOM     14  C   UNL     1      11.114  -0.621  -4.878  0.00  0.00    +0.063 A 
ATOM     15  C   UNL     1      11.766  -1.674  -5.436  0.00  0.00    +0.190 A 
ATOM     16  O   UNL     1      11.538  -2.788  -4.709  0.00  0.00    -0.450 OA
BRANCH  15  17
ATOM     17  C   UNL     1      12.595  -1.610  -6.648  0.00  0.00    +0.279 C 
ATOM     18  O   UNL     1      12.737  -0.552  -7.232  0.00  0.00    -0.267 OA
ATOM     19  N   UNL     1      13.197  -2.722  -7.111  0.00  0.00    -0.306 N 
ATOM     20  H   UNL     1      13.084  -3.566  -6.646  0.00  0.00    +0.149 HD
BRANCH  19  21
ATOM     21  C   UNL     1      14.024  -2.658  -8.319  0.00  0.00    +0.136 C 
BRANCH  21  22
ATOM     22  C   UNL     1      14.587  -4.048  -8.626  0.00  0.00    +0.135 C 
ATOM     23  C   UNL     1      15.562  -3.981  -9.823  0.00  0.00    +0.035 C 
ATOM     24  C   UNL     1      15.299  -5.293 -10.595  0.00  0.00    +0.031 C 
ATOM     25  C   UNL     1      14.197  -5.997  -9.774  0.00  0.00    +0.160 C 
ATOM     26  O   UNL     1      13.531  -4.933  -9.060  0.00  0.00    -0.375 OA
ENDBRANCH  21  22
ENDBRANCH  19  21
ENDBRANCH  15  17
ENDBRANCH   3   8
BRANCH   3  27
ATOM     27  O   UNL     1       8.568   0.599  -0.469  0.00  0.00    -0.384 OA
ATOM     28  H   UNL     1       8.482   1.145  -1.262  0.00  0.00    +0.211 HD
ENDBRANCH   3  27
BRANCH   6  29
ATOM     29  C   UNL     1       5.106  -0.655   2.267  0.00  0.00    -0.043 C 
BRANCH  29  35
ATOM     30  C   UNL     1       2.886  -1.646   1.677  0.00  0.00    +0.005 A 
ATOM     31  C   UNL     1       1.617  -1.552   1.135  0.00  0.00    +0.050 A 
ATOM     32  C   UNL     1       1.183  -0.356   0.589  0.00  0.00    +0.166 A 
ATOM     33  C   UNL     1       2.029   0.752   0.587  0.00  0.00    +0.166 A 
ATOM     34  C   UNL     1       3.298   0.650   1.131  0.00  0.00    +0.051 A 
ATOM     35  C   UNL     1       3.724  -0.547   1.675  0.00  0.00    -0.060 A 
ATOM     36  O   UNL     1       1.376   1.797  -0.001  0.00  0.00    -0.453 OA
ATOM     37  C   UNL     1      -0.018   1.436   0.010  0.00  0.00    +0.466 C 
ATOM     38  O   UNL     1       0.002  -0.004   0.002  0.00  0.00    -0.453 OA
ENDBRANCH  29  35
ENDBRANCH   6  29
TORSDOF 7
