REMARK  Name = ZINC12406708
REMARK  4 active torsions:
REMARK  status: ('A' for Active; 'I' for Inactive)
REMARK    1  A    between atoms: C_4  and  N_7
REMARK    2  A    between atoms: C_8  and  S_12
REMARK    3  A    between atoms: S_12  and  C_13
REMARK    4  A    between atoms: C_13  and  C_14
REMARK                            x       y       z     vdW  Elec       q    Type
REMARK                         _______ _______ _______ _____ _____    ______ ____
ROOT
ATOM      1  C   UNL     1      -0.017  -3.867   0.358  0.00  0.00    +0.060 A 
ATOM      2  C   UNL     1       0.494  -4.548   1.424  0.00  0.00    +0.094 A 
ATOM      3  C   UNL     1       1.116  -3.826   2.458  0.00  0.00    +0.253 A 
ATOM      4  O   UNL     1       1.585  -4.404   3.425  0.00  0.00    -0.268 OA
ATOM      5  N   UNL     1       1.189  -2.482   2.357  0.00  0.00    -0.295 N 
ATOM      6  H   UNL     1       1.617  -1.964   3.057  0.00  0.00    +0.172 HD
ATOM      7  C   UNL     1       0.656  -1.855   1.273  0.00  0.00    +0.198 A 
ATOM      8  N   UNL     1       0.075  -2.540   0.308  0.00  0.00    -0.220 NA
ATOM      9  N   UNL     1       0.729  -0.491   1.181  0.00  0.00    -0.301 N 
ATOM     10  C   UNL     1       0.002  -0.004   0.002  0.00  0.00    +0.108 C 
ATOM     11  C   UNL     1      -0.019   1.526   0.010  0.00  0.00    +0.019 C 
ATOM     12  C   UNL     1       1.420   2.051  -0.001  0.00  0.00    +0.003 C 
ATOM     13  C   UNL     1       2.169   1.490   1.211  0.00  0.00    +0.019 C 
ATOM     14  C   UNL     1       2.126  -0.039   1.168  0.00  0.00    +0.108 C 
ENDROOT
BRANCH   1  15
ATOM     15  C   UNL     1      -0.689  -4.617  -0.763  0.00  0.00    +0.133 C 
BRANCH  15  16
ATOM     16  S   UNL     1      -2.482  -4.406  -0.642  0.00  0.00    -0.078 S 
BRANCH  16  18
ATOM     17  N   UNL     1      -4.275  -5.566  -2.439  0.00  0.00    -0.187 N 
ATOM     18  C   UNL     1      -2.997  -5.358  -2.032  0.00  0.00    +0.214 A 
ATOM     19  N   UNL     1      -2.216  -6.008  -2.868  0.00  0.00    -0.101 NA
ATOM     20  N   UNL     1      -2.914  -6.600  -3.768  0.00  0.00    -0.022 NA
ATOM     21  N   UNL     1      -4.170  -6.379  -3.581  0.00  0.00    -0.038 NA
BRANCH  17  25
ATOM     22  C   UNL     1      -7.761  -4.101  -0.685  0.00  0.00    +0.000 A 
ATOM     23  C   UNL     1      -7.684  -4.236  -2.059  0.00  0.00    +0.002 A 
ATOM     24  C   UNL     1      -6.530  -4.721  -2.643  0.00  0.00    +0.028 A 
ATOM     25  C   UNL     1      -5.447  -5.073  -1.849  0.00  0.00    +0.070 A 
ATOM     26  C   UNL     1      -5.530  -4.941  -0.469  0.00  0.00    +0.028 A 
ATOM     27  C   UNL     1      -6.684  -4.450   0.108  0.00  0.00    +0.002 A 
ENDBRANCH  17  25
ENDBRANCH  16  18
ENDBRANCH  15  16
ENDBRANCH   1  15
TORSDOF 4
