REMARK  Name = ZINC64684139
REMARK  10 active torsions:
REMARK  status: ('A' for Active; 'I' for Inactive)
REMARK    1  A    between atoms: C_1  and  C_2
REMARK    2  A    between atoms: C_5  and  N_8
REMARK    3  A    between atoms: C_9  and  C_35
REMARK    4  A    between atoms: C_13  and  S_15
REMARK    5  A    between atoms: S_15  and  C_16
REMARK    6  A    between atoms: C_16  and  C_17
REMARK    7  A    between atoms: N_19  and  CA_20
REMARK    8  A    between atoms: CA_20  and  CB_22
REMARK    9  A    between atoms: CA_20  and  C_32
REMARK   10  A    between atoms: CB_22  and  CG_23
REMARK                            x       y       z     vdW  Elec       q    Type
REMARK                         _______ _______ _______ _____ _____    ______ ____
ROOT
ATOM      1  C   UNK A   0       3.777  -4.660  -2.445  0.00  0.00    +0.224 C 
ATOM      2  O   UNK A   0       3.554  -4.418  -3.613  0.00  0.00    -0.275 OA
ATOM      3  N   TRP A   1       5.044  -4.649  -1.985  0.00  0.00    -0.301 N 
ATOM      4  H   TRP A   1       5.222  -4.842  -1.051  0.00  0.00    +0.150 HD
ENDROOT
BRANCH   1   5
ATOM      5  C   UNK A   0       2.638  -4.973  -1.510  0.00  0.00    +0.168 C 
BRANCH   5   6
ATOM      6  S   UNK A   0       1.072  -4.910  -2.422  0.00  0.00    -0.112 S 
BRANCH   6  11
ATOM      7  N   UNK A   0      -0.138  -4.311  -0.083  0.00  0.00    -0.288 N 
ATOM      8  C   UNK A   0       0.173  -5.057   1.153  0.00  0.00    +0.155 C 
ATOM      9  N   UNK A   0      -0.256  -6.449   0.858  0.00  0.00    -0.235 NA
ATOM     10  N   UNK A   0       0.117  -6.617  -0.555  0.00  0.00    -0.226 NA
ATOM     11  C   UNK A   0      -0.181  -5.304  -1.171  0.00  0.00    +0.217 C 
ATOM     12  C   UNK A   0      -0.617  -4.489   2.334  0.00  0.00    +0.046 C 
ATOM     13  H   UNK A   0      -1.252  -6.555   0.985  0.00  0.00    +0.143 HD
ATOM     14  H   UNK A   0       1.094  -6.851  -0.646  0.00  0.00    +0.143 HD
BRANCH   7  19
ATOM     15  C   UNK A   0      -1.020   1.272  -0.548  0.00  0.00    +0.044 C 
ATOM     16  C   UNK A   0      -0.786  -0.212  -0.425  0.00  0.00    -0.050 A 
ATOM     17  C   UNK A   0      -1.820  -1.096  -0.671  0.00  0.00    +0.005 A 
ATOM     18  C   UNK A   0      -1.608  -2.456  -0.559  0.00  0.00    +0.023 A 
ATOM     19  C   UNK A   0      -0.355  -2.936  -0.198  0.00  0.00    +0.033 A 
ATOM     20  C   UNK A   0       0.681  -2.044   0.049  0.00  0.00    +0.023 A 
ATOM     21  C   UNK A   0       0.464  -0.686  -0.071  0.00  0.00    +0.005 A 
ENDBRANCH   7  19
ENDBRANCH   6  11
ENDBRANCH   5   6
ENDBRANCH   1   5
BRANCH   3  22
ATOM     22  CA  TRP A   1       6.151  -4.344  -2.894  0.00  0.00    +0.190 C 
BRANCH  22  23
ATOM     23  C   TRP A   1       6.575  -5.602  -3.608  0.00  0.00    +0.376 C 
ATOM     24  O   TRP A   1       7.044  -5.537  -4.732  0.00  0.00    -0.244 OA
ATOM     25  OXT TRP A   1       6.450  -6.685  -3.061  0.00  0.00    -0.244 OA
ENDBRANCH  22  23
BRANCH  22  26
ATOM     26  CB  TRP A   1       7.331  -3.790  -2.094  0.00  0.00    +0.067 C 
BRANCH  26  27
ATOM     27  CG  TRP A   1       6.945  -2.469  -1.480  0.00  0.00    -0.039 C 
ATOM     28  CD2 TRP A   1       6.473  -2.260  -0.230  0.00  0.00    -0.001 A 
ATOM     29  CE3 TRP A   1       6.186  -3.166   0.889  0.00  0.00    +0.010 A 
ATOM     30  CZ3 TRP A   1       5.708  -2.651   2.044  0.00  0.00    +0.001 A 
ATOM     31  CH2 TRP A   1       5.479  -1.277   2.200  0.00  0.00    +0.002 A 
ATOM     32  CZ2 TRP A   1       5.718  -0.382   1.218  0.00  0.00    +0.026 A 
ATOM     33  CE2 TRP A   1       6.223  -0.814  -0.040  0.00  0.00    +0.043 A 
ATOM     34  NE1 TRP A   1       6.529  -0.153  -1.131  0.00  0.00    -0.380 N 
ATOM     35  CD1 TRP A   1       7.014  -1.107  -2.134  0.00  0.00    +0.144 C 
ATOM     36  HE1 TRP A   1       6.452   0.806  -1.252  0.00  0.00    +0.160 HD
ENDBRANCH  26  27
ENDBRANCH  22  26
ENDBRANCH   3  22
TORSDOF 8
