REMARK  Name = ZINC00207240
REMARK  3 active torsions:
REMARK  status: ('A' for Active; 'I' for Inactive)
REMARK    1  A    between atoms: C_11  and  C_19
REMARK    2  A    between atoms: C_13  and  C_17
REMARK    3  A    between atoms: C_14  and  N_16
REMARK                            x       y       z     vdW  Elec       q    Type
REMARK                         _______ _______ _______ _____ _____    ______ ____
ROOT
ATOM      1  C   UNL     1      -0.016   1.357   0.009  0.00  0.00    +0.001 A 
ATOM      2  C   UNL     1       1.168   2.091   0.002  0.00  0.00    +0.001 A 
ATOM      3  C   UNL     1       2.378   1.468  -0.012  0.00  0.00    +0.009 A 
ATOM      4  C   UNL     1       2.438   0.064  -0.020  0.00  0.00    -0.010 A 
ATOM      5  C   UNL     1       1.233  -0.682  -0.014  0.00  0.00    -0.017 A 
ATOM      6  C   UNL     1       0.002  -0.004   0.002  0.00  0.00    +0.008 A 
ATOM      7  C   UNL     1       1.293  -2.086  -0.024  0.00  0.00    +0.012 A 
ATOM      8  C   UNL     1       2.501  -2.708  -0.040  0.00  0.00    +0.047 A 
ATOM      9  C   UNL     1       3.696  -1.975  -0.046  0.00  0.00    +0.135 A 
ATOM     10  C   UNL     1       3.671  -0.611  -0.035  0.00  0.00    +0.015 A 
ATOM     11  C   UNL     1       4.949   0.186  -0.040  0.00  0.00    +0.100 C 
ATOM     12  C   UNL     1       6.099  -0.678  -0.474  0.00  0.00    +0.098 C 
ATOM     13  C   UNL     1       5.998  -2.030  -0.462  0.00  0.00    +0.199 C 
ATOM     14  O   UNL     1       4.875  -2.648  -0.061  0.00  0.00    -0.441 OA
ENDROOT
BRANCH  11  15
ATOM     15  C   UNL     1       5.216   0.707   1.349  0.00  0.00    -0.017 A 
ATOM     16  C   UNL     1       5.300   2.071   1.583  0.00  0.00    +0.007 A 
ATOM     17  C   UNL     1       5.548   2.505   2.876  0.00  0.00    +0.020 A 
ATOM     18  C   UNL     1       5.703   1.570   3.882  0.00  0.00    +0.111 A 
ATOM     19  N   UNL     1       5.617   0.280   3.623  0.00  0.00    -0.263 NA
ATOM     20  C   UNL     1       5.376  -0.169   2.406  0.00  0.00    +0.115 A 
ENDBRANCH  11  15
BRANCH  13  21
ATOM     21  N   UNL     1       7.070  -2.785  -0.868  0.00  0.00    -0.328 N 
ATOM     22  H   UNL     1       7.887  -2.351  -1.159  0.00  0.00    +0.145 HD
ATOM     23  H   UNL     1       7.010  -3.753  -0.863  0.00  0.00    +0.145 HD
ENDBRANCH  13  21
BRANCH  12  24
ATOM     24  C   UNL     1       7.319  -0.065  -0.908  0.00  0.00    +0.101 C 
ATOM     25  N   UNL     1       8.286   0.421  -1.252  0.00  0.00    -0.191 NA
ENDBRANCH  12  24
TORSDOF 3
