REMARK  Name = ZINC60132145
REMARK  9 active torsions:
REMARK  status: ('A' for Active; 'I' for Inactive)
REMARK    1  A    between atoms: C_1  and  C_2
REMARK    2  A    between atoms: C_10  and  C_11
REMARK    3  A    between atoms: N_13  and  C_14
REMARK    4  A    between atoms: C_14  and  C_16
REMARK    5  A    between atoms: C_14  and  C_17
REMARK    6  A    between atoms: N_19  and  C_20
REMARK    7  A    between atoms: C_20  and  C_21
REMARK    8  A    between atoms: C_20  and  C_22
REMARK    9  A    between atoms: C_20  and  C_23
REMARK                            x       y       z     vdW  Elec       q    Type
REMARK                         _______ _______ _______ _____ _____    ______ ____
ROOT
ATOM      1  C   UNL     1       0.029  -0.162   2.546  0.00  0.00    +0.252 C 
ATOM      2  O   UNL     1       0.014   1.040   2.734  0.00  0.00    -0.270 OA
ATOM      3  N   UNL     1       0.051  -1.008   3.595  0.00  0.00    -0.300 N 
ATOM      4  H   UNL     1       0.063  -1.966   3.445  0.00  0.00    +0.150 HD
ENDROOT
BRANCH   1  14
ATOM      5  C   UNL     1      -0.018   1.503   0.010  0.00  0.00    +0.046 C 
ATOM      6  C   UNL     1       0.002  -0.004   0.002  0.00  0.00    -0.021 A 
ATOM      7  C   UNL     1       0.005  -0.701  -1.219  0.00  0.00    +0.028 A 
ATOM      8  C   UNL     1      -0.009  -0.167  -2.536  0.00  0.00    +0.132 A 
ATOM      9  C   UNL     1      -0.004  -0.998  -3.625  0.00  0.00    +0.039 A 
ATOM     10  C   UNL     1       0.016  -2.380  -3.483  0.00  0.00    +0.004 A 
ATOM     11  C   UNL     1       0.031  -2.934  -2.219  0.00  0.00    +0.016 A 
ATOM     12  C   UNL     1       0.025  -2.112  -1.113  0.00  0.00    +0.023 A 
ATOM     13  S   UNL     1       0.039  -2.393   0.640  0.00  0.00    -0.083 S 
ATOM     14  C   UNL     1       0.023  -0.691   1.175  0.00  0.00    +0.078 A 
ATOM     15  F   UNL     1      -0.029   1.172  -2.715  0.00  0.00    -0.205 F 
ENDBRANCH   1  14
BRANCH   3  16
ATOM     16  C   UNL     1       0.057  -0.480   4.962  0.00  0.00    +0.156 C 
ATOM     17  C   UNL     1      -1.380  -0.199   5.406  0.00  0.00    +0.038 C 
BRANCH  16  18
ATOM     18  C   UNL     1       0.681  -1.492   5.888  0.00  0.00    +0.233 C 
ATOM     19  O   UNL     1       1.081  -2.550   5.450  0.00  0.00    -0.274 OA
ATOM     20  N   UNL     1       0.794  -1.221   7.204  0.00  0.00    -0.309 N 
ATOM     21  H   UNL     1       0.474  -0.375   7.554  0.00  0.00    +0.149 HD
BRANCH  20  22
ATOM     22  C   UNL     1       1.400  -2.205   8.104  0.00  0.00    +0.026 C 
ATOM     23  C   UNL     1       2.837  -2.486   7.660  0.00  0.00    +0.031 C 
ATOM     24  C   UNL     1       1.406  -1.654   9.531  0.00  0.00    +0.031 C 
ATOM     25  C   UNL     1       0.590  -3.502   8.062  0.00  0.00    +0.031 C 
ENDBRANCH  20  22
ENDBRANCH  16  18
ENDBRANCH   3  16
TORSDOF 4
