REMARK  Name = ZINC20553286
REMARK  3 active torsions:
REMARK  status: ('A' for Active; 'I' for Inactive)
REMARK    1  A    between atoms: C_4  and  S_8
REMARK    2  A    between atoms: S_8  and  N_11
REMARK    3  A    between atoms: C_19  and  N_21
REMARK                            x       y       z     vdW  Elec       q    Type
REMARK                         _______ _______ _______ _____ _____    ______ ____
ROOT
ATOM      1  N   UNL     1       3.939  -1.723   1.351  0.00  0.00    -0.203 N 
ATOM      2  C   UNL     1       4.430  -1.147   2.610  0.00  0.00    +0.132 C 
ATOM      3  C   UNL     1       5.327  -2.192   3.286  0.00  0.00    +0.025 C 
ATOM      4  C   UNL     1       4.482  -3.418   3.631  0.00  0.00    +0.039 C 
ATOM      5  C   UNL     1       3.715  -3.887   2.423  0.00  0.00    -0.023 A 
ATOM      6  C   UNL     1       3.465  -3.044   1.350  0.00  0.00    +0.055 A 
ATOM      7  C   UNL     1       2.745  -3.502   0.253  0.00  0.00    +0.027 A 
ATOM      8  C   UNL     1       2.271  -4.798   0.227  0.00  0.00    +0.024 A 
ATOM      9  C   UNL     1       2.516  -5.644   1.299  0.00  0.00    +0.025 A 
ATOM     10  C   UNL     1       3.245  -5.189   2.393  0.00  0.00    +0.028 A 
ENDROOT
BRANCH   1  11
ATOM     11  S   UNL     1       3.938  -0.827  -0.042  0.00  0.00    +0.077 S 
ATOM     12  O   UNL     1       4.429   0.461   0.304  0.00  0.00    -0.150 OA
ATOM     13  O   UNL     1       2.668  -1.021  -0.648  0.00  0.00    -0.150 OA
BRANCH  11  17
ATOM     14  C   UNL     1       6.997  -2.673  -2.824  0.00  0.00    +0.003 A 
ATOM     15  C   UNL     1       5.657  -2.677  -3.167  0.00  0.00    +0.002 A 
ATOM     16  C   UNL     1       4.724  -2.114  -2.317  0.00  0.00    +0.032 A 
ATOM     17  C   UNL     1       5.128  -1.546  -1.124  0.00  0.00    +0.144 A 
ATOM     18  C   UNL     1       6.469  -1.542  -0.780  0.00  0.00    +0.150 A 
ATOM     19  C   UNL     1       7.404  -2.106  -1.632  0.00  0.00    +0.040 A 
ATOM     20  F   UNL     1       6.866  -0.986   0.386  0.00  0.00    -0.203 F 
ENDBRANCH  11  17
ENDBRANCH   1  11
BRANCH   9  21
ATOM     21  N   UNL     1       2.038  -6.960   1.276  0.00  0.00    -0.358 N 
ATOM     22  H   UNL     1       1.536  -7.280   0.510  0.00  0.00    +0.142 HD
ATOM     23  H   UNL     1       2.209  -7.552   2.026  0.00  0.00    +0.142 HD
ENDBRANCH   9  21
TORSDOF 3
