REMARK  Name = ZINC44877869
REMARK  8 active torsions:
REMARK  status: ('A' for Active; 'I' for Inactive)
REMARK    1  A    between atoms: C_1  and  C_2
REMARK    2  A    between atoms: C_2  and  C_3
REMARK    3  A    between atoms: C_2  and  C_4
REMARK    4  A    between atoms: C_4  and  C_6
REMARK    5  A    between atoms: C_4  and  C_10
REMARK    6  A    between atoms: N_7  and  O_8
REMARK    7  A    between atoms: C_17  and  C_19
REMARK    8  A    between atoms: N_21  and  C_22
REMARK                            x       y       z     vdW  Elec       q    Type
REMARK                         _______ _______ _______ _____ _____    ______ ____
ROOT
ATOM      1  C   UNL     1      -1.321  -2.041   0.031  0.00  0.00    +0.227 C 
ATOM      2  O   UNL     1      -1.709  -2.684  -0.921  0.00  0.00    -0.275 OA
ATOM      3  N   UNL     1      -0.769  -2.668   1.089  0.00  0.00    -0.289 N 
ATOM      4  C   UNL     1      -0.229  -1.898   2.218  0.00  0.00    +0.108 C 
ATOM      5  C   UNL     1       1.218  -2.337   2.466  0.00  0.00    +0.019 C 
ATOM      6  C   UNL     1       1.260  -3.854   2.663  0.00  0.00    +0.004 C 
ATOM      7  C   UNL     1       0.756  -4.548   1.396  0.00  0.00    +0.032 C 
ATOM      8  C   UNL     1      -0.701  -4.135   1.137  0.00  0.00    +0.162 C 
ENDROOT
BRANCH   8   9
ATOM      9  C   UNL     1      -1.165  -4.706  -0.178  0.00  0.00    +0.233 C 
ATOM     10  O   UNL     1      -0.519  -4.509  -1.186  0.00  0.00    -0.274 OA
ATOM     11  N   UNL     1      -2.296  -5.435  -0.234  0.00  0.00    -0.317 N 
ATOM     12  C   UNL     1      -2.747  -5.990  -1.513  0.00  0.00    +0.128 C 
ATOM     13  H   UNL     1      -2.813  -5.593   0.572  0.00  0.00    +0.148 HD
ENDBRANCH   8   9
BRANCH   1  14
ATOM     14  C   UNL     1      -1.457  -0.540   0.032  0.00  0.00    +0.144 C 
BRANCH  14  15
ATOM     15  C   UNL     1      -2.733  -0.151   0.732  0.00  0.00    +0.144 C 
ATOM     16  N   UNL     1      -3.807   0.061   0.046  0.00  0.00    -0.076 NA
ATOM     17  N   UNL     1      -2.755  -0.021   2.103  0.00  0.00    -0.343 N 
ATOM     18  H   UNL     1      -1.948  -0.180   2.618  0.00  0.00    +0.144 HD
ATOM     19  H   UNL     1      -3.576   0.229   2.554  0.00  0.00    +0.144 HD
BRANCH  16  20
ATOM     20  O   UNL     1      -5.007   0.426   0.705  0.00  0.00    -0.408 OA
ATOM     21  H   UNL     1      -5.756   0.564   0.109  0.00  0.00    +0.328 HD
ENDBRANCH  16  20
ENDBRANCH  14  15
BRANCH  14  23
ATOM     22  C   UNL     1      -1.520   1.500  -1.410  0.00  0.00    +0.008 C 
ATOM     23  C   UNL     1      -1.490  -0.030  -1.410  0.00  0.00    +0.002 C 
ATOM     24  C   UNL     1      -0.244  -0.516  -2.152  0.00  0.00    +0.008 C 
ENDBRANCH  14  23
ENDBRANCH   1  14
TORSDOF 5
