REMARK  Name = ZINC33923716
REMARK  2 active torsions:
REMARK  status: ('A' for Active; 'I' for Inactive)
REMARK    1  A    between atoms: C_1  and  C_2
REMARK    2  A    between atoms: N_24  and  C_27
REMARK                            x       y       z     vdW  Elec       q    Type
REMARK                         _______ _______ _______ _____ _____    ______ ____
ROOT
ATOM      1  C   UNL     1      -0.018   1.503   0.010  0.00  0.00    +0.045 C 
ATOM      2  C   UNL     1       0.002  -0.004   0.002  0.00  0.00    -0.029 A 
ATOM      3  C   UNL     1       0.006  -0.685  -1.198  0.00  0.00    +0.005 A 
ATOM      4  C   UNL     1       0.024  -2.068  -1.216  0.00  0.00    +0.001 A 
ATOM      5  C   UNL     1       0.040  -2.772  -0.025  0.00  0.00    +0.008 A 
ATOM      6  C   UNL     1       0.038  -2.096   1.175  0.00  0.00    +0.004 A 
ATOM      7  C   UNL     1       0.023  -0.705   1.205  0.00  0.00    +0.042 A 
ATOM      8  N   UNL     1       0.027  -0.251   2.526  0.00  0.00    -0.283 N 
ATOM      9  C   UNL     1       0.053  -1.265   3.412  0.00  0.00    +0.243 C 
ATOM     10  O   UNL     1       0.061  -1.169   4.621  0.00  0.00    -0.273 OA
ATOM     11  C   UNL     1       0.055  -2.539   2.611  0.00  0.00    +0.138 C 
ATOM     12  C   UNL     1       1.304  -3.372   2.923  0.00  0.00    +0.123 C 
ATOM     13  C   UNL     1       0.821  -4.846   2.855  0.00  0.00    +0.107 C 
ATOM     14  C   UNL     1      -0.680  -4.764   2.526  0.00  0.00    +0.071 C 
ATOM     15  N   UNL     1      -1.101  -3.393   2.929  0.00  0.00    -0.281 NA
ATOM     16  C   UNL     1      -1.269  -3.485   4.399  0.00  0.00    +0.086 C 
ATOM     17  C   UNL     1      -1.867  -4.884   4.652  0.00  0.00    +0.017 C 
ATOM     18  C   UNL     1      -1.453  -5.744   3.426  0.00  0.00    +0.021 C 
ATOM     19  C   UNL     1       1.578  -5.407   1.672  0.00  0.00    +0.232 C 
ATOM     20  O   UNL     1       1.493  -6.545   1.261  0.00  0.00    -0.274 OA
ATOM     21  N   UNL     1       2.356  -4.453   1.149  0.00  0.00    -0.207 N 
ATOM     22  C   UNL     1       2.289  -3.258   1.780  0.00  0.00    +0.233 C 
ATOM     23  O   UNL     1       2.909  -2.259   1.486  0.00  0.00    -0.274 OA
ATOM     24  H   UNL     1       0.013   0.686   2.776  0.00  0.00    +0.155 HD
ENDROOT
BRANCH  21  25
ATOM     25  C   UNL     1       3.183  -4.672   0.036  0.00  0.00    +0.079 A 
ATOM     26  C   UNL     1       2.699  -4.445  -1.244  0.00  0.00    +0.027 A 
ATOM     27  C   UNL     1       3.515  -4.662  -2.338  0.00  0.00    +0.002 A 
ATOM     28  C   UNL     1       4.812  -5.105  -2.159  0.00  0.00    +0.003 A 
ATOM     29  C   UNL     1       5.299  -5.332  -0.885  0.00  0.00    +0.040 A 
ATOM     30  C   UNL     1       4.489  -5.112   0.215  0.00  0.00    +0.145 A 
ATOM     31  F   UNL     1       4.966  -5.329   1.460  0.00  0.00    -0.204 F 
ENDBRANCH  21  25
TORSDOF 1
