REMARK  Name = ZINC04820559
REMARK  8 active torsions:
REMARK  status: ('A' for Active; 'I' for Inactive)
REMARK    1  A    between atoms: C_4  and  S_10
REMARK    2  A    between atoms: C_5  and  N_7
REMARK    3  A    between atoms: S_10  and  C_11
REMARK    4  A    between atoms: C_13  and  O_26
REMARK    5  A    between atoms: C_15  and  O_25
REMARK    6  A    between atoms: C_17  and  O_24
REMARK    7  A    between atoms: C_19  and  C_22
REMARK    8  A    between atoms: C_22  and  O_23
REMARK                            x       y       z     vdW  Elec       q    Type
REMARK                         _______ _______ _______ _____ _____    ______ ____
ROOT
ATOM      1  C   UNL     1       1.697   2.097   0.046  0.00  0.00    +0.212 C 
ATOM      2  C   UNL     1       1.753   3.619  -0.117  0.00  0.00    +0.185 C 
ATOM      3  C   UNL     1       3.216   4.071  -0.116  0.00  0.00    +0.177 C 
ATOM      4  C   UNL     1       3.884   3.600   1.180  0.00  0.00    +0.176 C 
ATOM      5  C   UNL     1       3.746   2.079   1.292  0.00  0.00    +0.176 C 
ATOM      6  O   UNL     1       2.362   1.724   1.254  0.00  0.00    -0.355 OA
ENDROOT
BRANCH   4   7
ATOM      7  O   UNL     1       5.268   3.954   1.161  0.00  0.00    -0.386 OA
ATOM      8  H   UNL     1       5.430   4.905   1.086  0.00  0.00    +0.210 HD
ENDBRANCH   4   7
BRANCH   3   9
ATOM      9  O   UNL     1       3.894   3.501  -1.237  0.00  0.00    -0.386 OA
ATOM     10  H   UNL     1       3.519   3.752  -2.092  0.00  0.00    +0.210 HD
ENDBRANCH   3   9
BRANCH   2  11
ATOM     11  O   UNL     1       1.060   4.241   0.967  0.00  0.00    -0.386 OA
ATOM     12  H   UNL     1       0.127   3.995   1.030  0.00  0.00    +0.210 HD
ENDBRANCH   2  11
BRANCH   1  13
ATOM     13  S   UNL     1      -0.034   1.560   0.117  0.00  0.00    -0.089 S 
BRANCH  13  17
ATOM     14  C   UNL     1       0.225  -2.961   0.211  0.00  0.00    +0.002 A 
ATOM     15  C   UNL     1       1.382  -2.204   0.155  0.00  0.00    +0.001 A 
ATOM     16  C   UNL     1       1.307  -0.826   0.120  0.00  0.00    +0.017 A 
ATOM     17  C   UNL     1       0.067  -0.199   0.154  0.00  0.00    +0.041 A 
ATOM     18  C   UNL     1      -1.093  -0.962   0.211  0.00  0.00    +0.140 A 
ATOM     19  C   UNL     1      -1.010  -2.340   0.239  0.00  0.00    +0.034 A 
BRANCH  18  20
ATOM     20  N   UNL     1      -2.416  -0.298   0.240  0.00  0.00    +0.058 N 
ATOM     21  O   UNL     1      -3.432  -0.968   0.290  0.00  0.00    -0.126 OA
ATOM     22  O   UNL     1      -2.488   0.917   0.214  0.00  0.00    -0.126 OA
ENDBRANCH  18  20
ENDBRANCH  13  17
ENDBRANCH   1  13
BRANCH   5  23
ATOM     23  C   UNL     1       4.476   1.413   0.125  0.00  0.00    +0.190 C 
BRANCH  23  24
ATOM     24  O   UNL     1       4.482  -0.004   0.313  0.00  0.00    -0.392 OA
ATOM     25  H   UNL     1       4.930  -0.492  -0.391  0.00  0.00    +0.210 HD
ENDBRANCH  23  24
ENDBRANCH   5  23
TORSDOF 8
