REMARK  Name = ZINC40661802
REMARK  6 active torsions:
REMARK  status: ('A' for Active; 'I' for Inactive)
REMARK    1  A    between atoms: C_1  and  C_2
REMARK    2  A    between atoms: C_2  and  N_3
REMARK    3  A    between atoms: N_3  and  C_4
REMARK    4  A    between atoms: C_8  and  C_10
REMARK    5  A    between atoms: C_12  and  N_25
REMARK    6  A    between atoms: C_13  and  N_17
REMARK                            x       y       z     vdW  Elec       q    Type
REMARK                         _______ _______ _______ _____ _____    ______ ____
ROOT
ATOM      1  N   UNL     1      -1.460  -0.547   0.017  0.00  0.00    -0.285 N 
ATOM      2  C   UNL     1      -1.946  -0.768   1.301  0.00  0.00    +0.129 A 
ATOM      3  C   UNL     1      -1.162  -0.471   2.418  0.00  0.00    +0.104 A 
ATOM      4  C   UNL     1      -1.699  -0.712   3.683  0.00  0.00    +0.150 A 
ATOM      5  N   UNL     1      -2.929  -1.211   3.777  0.00  0.00    -0.221 NA
ATOM      6  C   UNL     1      -3.636  -1.477   2.698  0.00  0.00    +0.200 A 
ATOM      7  N   UNL     1      -3.169  -1.260   1.485  0.00  0.00    -0.332 N 
ATOM      8  H   UNL     1      -3.722  -1.466   0.715  0.00  0.00    +0.168 HD
ENDROOT
BRANCH   4   9
ATOM      9  N   UNL     1      -0.960  -0.434   4.829  0.00  0.00    -0.283 N 
ATOM     10  C   UNL     1      -1.460  -0.781   6.080  0.00  0.00    +0.124 A 
ATOM     11  C   UNL     1      -0.770  -0.402   7.227  0.00  0.00    +0.045 A 
ATOM     12  C   UNL     1      -1.278  -0.754   8.465  0.00  0.00    +0.020 A 
ATOM     13  C   UNL     1      -2.464  -1.476   8.514  0.00  0.00    +0.036 A 
ATOM     14  C   UNL     1      -3.096  -1.818   7.335  0.00  0.00    +0.128 A 
ATOM     15  N   UNL     1      -2.591  -1.464   6.168  0.00  0.00    -0.239 NA
ATOM     16 BR   UNL     1      -3.205  -1.984  10.178  0.00  0.00    -0.049 Br
ATOM     17  H   UNL     1      -0.096   0.001   4.755  0.00  0.00    +0.155 HD
ENDBRANCH   4   9
BRANCH   1  18
ATOM     18  C   UNL     1      -0.856  -1.590  -0.690  0.00  0.00    +0.035 A 
ATOM     19  C   UNL     1      -0.838  -2.873  -0.158  0.00  0.00    +0.023 A 
ATOM     20  C   UNL     1      -0.241  -3.902  -0.860  0.00  0.00    +0.002 A 
ATOM     21  C   UNL     1       0.339  -3.655  -2.091  0.00  0.00    +0.003 A 
ATOM     22  C   UNL     1       0.323  -2.379  -2.624  0.00  0.00    -0.049 A 
ATOM     23  C   UNL     1      -0.278  -1.347  -1.930  0.00  0.00    +0.026 A 
ATOM     24  C   UNL     1       0.957  -2.115  -3.965  0.00  0.00    +0.044 C 
ENDBRANCH   1  18
BRANCH   3  25
ATOM     25  N   UNL     1       0.132   0.054   2.271  0.00  0.00    -0.353 N 
ATOM     26  H   UNL     1       0.520   0.147   1.387  0.00  0.00    +0.143 HD
ATOM     27  H   UNL     1       0.637   0.324   3.054  0.00  0.00    +0.143 HD
ENDBRANCH   3  25
BRANCH   1  29
ATOM     28  C   UNL     1      -2.836   0.828  -1.465  0.00  0.00    +0.025 C 
ATOM     29  C   UNL     1      -1.579   0.779  -0.593  0.00  0.00    +0.109 C 
ENDBRANCH   1  29
TORSDOF 4
