REMARK  Name = ZINC04741798
REMARK  3 active torsions:
REMARK  status: ('A' for Active; 'I' for Inactive)
REMARK    1  A    between atoms: C_4  and  C_7
REMARK    2  A    between atoms: C_7  and  N_8
REMARK    3  A    between atoms: C_16  and  C_17
REMARK                            x       y       z     vdW  Elec       q    Type
REMARK                         _______ _______ _______ _____ _____    ______ ____
ROOT
ATOM      1  C   UNL     1      -1.383  -2.147   0.539  0.00  0.00    +0.254 C 
ATOM      2  C   UNL     1      -0.516   0.133   0.553  0.00  0.00    +0.159 C 
ATOM      3  N   UNL     1       0.753  -0.265   0.931  0.00  0.00    -0.259 N 
ATOM      4  C   UNL     1       0.893  -1.572   1.378  0.00  0.00    +0.205 A 
ATOM      5  N   UNL     1      -0.124  -2.486   1.203  0.00  0.00    -0.284 N 
ATOM      6  C   UNL     1       0.298  -3.665   1.744  0.00  0.00    +0.072 A 
ATOM      7  C   UNL     1      -0.293  -4.918   1.862  0.00  0.00    +0.028 A 
ATOM      8  C   UNL     1       0.447  -5.909   2.485  0.00  0.00    +0.002 A 
ATOM      9  C   UNL     1       1.722  -5.677   2.973  0.00  0.00    +0.002 A 
ATOM     10  C   UNL     1       2.332  -4.441   2.868  0.00  0.00    +0.030 A 
ATOM     11  C   UNL     1       1.603  -3.423   2.243  0.00  0.00    +0.091 A 
ATOM     12  N   UNL     1       1.900  -2.133   1.986  0.00  0.00    -0.214 NA
ATOM     13  N   UNL     1      -0.753   1.472   0.353  0.00  0.00    -0.332 N 
ATOM     14  H   UNL     1       1.510   0.341   0.887  0.00  0.00    +0.158 HD
ATOM     15  H   UNL     1      -0.037   2.115   0.477  0.00  0.00    +0.145 HD
ATOM     16  H   UNL     1      -1.635   1.774   0.084  0.00  0.00    +0.145 HD
ATOM     17  N   UNL     1      -1.580  -0.657   0.358  0.00  0.00    -0.335 N 
ATOM     18  H   UNL     1      -2.493  -0.267   0.097  0.00  0.00    +0.164 HD
ENDROOT
BRANCH   1  27
ATOM     19  N   UNL     1      -3.537  -3.446   0.916  0.00  0.00    -0.320 N 
ATOM     20  C   UNL     1      -4.393  -3.675   1.974  0.00  0.00    +0.069 A 
ATOM     21  C   UNL     1      -5.567  -4.400   2.129  0.00  0.00    +0.028 A 
ATOM     22  C   UNL     1      -6.196  -4.427   3.355  0.00  0.00    +0.002 A 
ATOM     23  C   UNL     1      -5.664  -3.736   4.434  0.00  0.00    +0.002 A 
ATOM     24  C   UNL     1      -4.510  -3.018   4.301  0.00  0.00    +0.030 A 
ATOM     25  C   UNL     1      -3.854  -2.976   3.067  0.00  0.00    +0.089 A 
ATOM     26  N   UNL     1      -2.719  -2.373   2.630  0.00  0.00    -0.228 NA
ATOM     27  C   UNL     1      -2.537  -2.644   1.371  0.00  0.00    +0.155 A 
BRANCH  19  28
ATOM     28  C   UNL     1      -3.679  -3.969  -0.445  0.00  0.00    +0.158 C 
BRANCH  28  32
ATOM     29  C   UNL     1      -2.011  -7.896  -0.645  0.00  0.00    +0.000 A 
ATOM     30  C   UNL     1      -3.309  -7.718  -0.202  0.00  0.00    +0.000 A 
ATOM     31  C   UNL     1      -3.848  -6.447  -0.137  0.00  0.00    +0.005 A 
ATOM     32  C   UNL     1      -3.091  -5.354  -0.515  0.00  0.00    -0.028 A 
ATOM     33  C   UNL     1      -1.796  -5.533  -0.964  0.00  0.00    +0.005 A 
ATOM     34  C   UNL     1      -1.254  -6.803  -1.023  0.00  0.00    +0.000 A 
ENDBRANCH  28  32
ENDBRANCH  19  28
ENDBRANCH   1  27
TORSDOF 3
