REMARK  Name = ZINC20852275
REMARK  5 active torsions:
REMARK  status: ('A' for Active; 'I' for Inactive)
REMARK    1  A    between atoms: C_1  and  C_2
REMARK    2  A    between atoms: C_5  and  C_25
REMARK    3  A    between atoms: C_6  and  N_8
REMARK    4  A    between atoms: C_9  and  C_11
REMARK    5  A    between atoms: C_13  and  C_19
REMARK                            x       y       z     vdW  Elec       q    Type
REMARK                         _______ _______ _______ _____ _____    ______ ____
ROOT
ATOM      1  C   UNL     1      -1.121  -2.197   0.216  0.00  0.00    +0.167 C 
ATOM      2  C   UNL     1      -0.816  -2.626   1.669  0.00  0.00    +0.057 C 
ATOM      3  C   UNL     1      -2.238  -2.811   2.248  0.00  0.00    +0.106 C 
ATOM      4  C   UNL     1      -3.097  -3.101   1.037  0.00  0.00    +0.214 C 
ATOM      5  O   UNL     1      -4.211  -3.579   1.075  0.00  0.00    -0.276 OA
ATOM      6  N   UNL     1      -2.445  -2.753  -0.088  0.00  0.00    -0.303 N 
ATOM      7  H   UNL     1      -2.780  -2.837  -1.133  0.00  0.00    +0.149 HD
ENDROOT
BRANCH   2   8
ATOM      8  C   UNL     1      -0.049  -3.922   1.698  0.00  0.00    -0.042 A 
ATOM      9  C   UNL     1      -0.601  -5.065   1.151  0.00  0.00    +0.004 A 
ATOM     10  C   UNL     1       0.105  -6.253   1.174  0.00  0.00    +0.000 A 
ATOM     11  C   UNL     1       1.360  -6.301   1.754  0.00  0.00    +0.000 A 
ATOM     12  C   UNL     1       1.909  -5.159   2.306  0.00  0.00    +0.000 A 
ATOM     13  C   UNL     1       1.205  -3.970   2.279  0.00  0.00    +0.004 A 
ENDBRANCH   2   8
BRANCH   1  15
ATOM     14  N   UNL     1       0.002  -0.004   0.002  0.00  0.00    -0.284 N 
ATOM     15  C   UNL     1      -1.150  -0.694   0.111  0.00  0.00    +0.238 C 
ATOM     16  O   UNL     1      -2.211  -0.106   0.124  0.00  0.00    -0.273 OA
ATOM     17  H   UNL     1       0.958  -0.541  -0.085  0.00  0.00    +0.155 HD
BRANCH  14  23
ATOM     18  C   UNL     1      -2.243   4.194  -1.226  0.00  0.00    +0.044 C 
ATOM     19  C   UNL     1      -1.094   3.455  -0.589  0.00  0.00    -0.049 A 
ATOM     20  C   UNL     1      -0.057   4.162  -0.007  0.00  0.00    +0.004 A 
ATOM     21  C   UNL     1       0.999   3.488   0.578  0.00  0.00    +0.005 A 
ATOM     22  C   UNL     1       1.022   2.107   0.583  0.00  0.00    -0.029 A 
ATOM     23  C   UNL     1      -0.018   1.395  -0.001  0.00  0.00    +0.037 A 
ATOM     24  C   UNL     1      -1.075   2.075  -0.593  0.00  0.00    +0.027 A 
ATOM     25  C   UNL     1       2.173   1.373   1.221  0.00  0.00    +0.045 C 
ENDBRANCH  14  23
ENDBRANCH   1  15
TORSDOF 3
