REMARK  Name = ZINC20362459
REMARK  3 active torsions:
REMARK  status: ('A' for Active; 'I' for Inactive)
REMARK    1  A    between atoms: C_2  and  N_19
REMARK    2  A    between atoms: C_4  and  S_9
REMARK    3  A    between atoms: S_9  and  C_10
REMARK                            x       y       z     vdW  Elec       q    Type
REMARK                         _______ _______ _______ _____ _____    ______ ____
ROOT
ATOM      1  C   UNL     1       1.104   3.053   0.008  0.00  0.00    +0.113 A 
ATOM      2  C   UNL     1      -0.133   3.681   0.023  0.00  0.00    +0.124 A 
ATOM      3  N   UNL     1      -1.251   2.946   0.030  0.00  0.00    -0.209 NA
ATOM      4  C   UNL     1      -1.201   1.629   0.017  0.00  0.00    +0.171 A 
ATOM      5  N   UNL     1      -0.011   0.966   0.007  0.00  0.00    -0.302 N 
ATOM      6  H   UNL     1       0.005  -0.134   0.006  0.00  0.00    +0.171 HD
ATOM      7  C   UNL     1       1.149   1.655   0.000  0.00  0.00    +0.254 A 
ATOM      8  O   UNL     1       2.220   1.068  -0.014  0.00  0.00    -0.268 OA
ENDROOT
BRANCH   2   9
ATOM      9  N   UNL     1      -0.210   5.059   0.032  0.00  0.00    -0.343 N 
ATOM     10  H   UNL     1      -1.192   5.555   0.044  0.00  0.00    +0.144 HD
ATOM     11  H   UNL     1       0.710   5.662   0.026  0.00  0.00    +0.144 HD
ENDBRANCH   2   9
BRANCH   4  12
ATOM     12  S   UNL     1      -2.703   0.709   0.019  0.00  0.00    -0.075 S 
BRANCH  12  13
ATOM     13  C   UNL     1      -3.902   2.064   0.032  0.00  0.00    +0.140 C 
ATOM     14  C   UNL     1      -5.320   1.495   0.136  0.00  0.00    +0.024 C 
ATOM     15  C   UNL     1      -5.428   0.181  -0.617  0.00  0.00    +0.003 C 
ATOM     16  C   UNL     1      -5.277   0.321  -2.120  0.00  0.00    +0.019 C 
ATOM     17  C   UNL     1      -3.855   0.750  -2.487  0.00  0.00    +0.104 C 
ATOM     18  N   UNL     1      -3.776   2.218  -2.431  0.00  0.00    -0.314 N 
ATOM     19  C   UNL     1      -3.794   2.851  -1.257  0.00  0.00    +0.226 C 
ATOM     20  O   UNL     1      -3.724   4.062  -1.222  0.00  0.00    -0.275 OA
ATOM     21  H   UNL     1      -3.703   2.801  -3.361  0.00  0.00    +0.149 HD
ENDBRANCH  12  13
ENDBRANCH   4  12
TORSDOF 3
