REMARK  Name = ZINC21775519
REMARK  5 active torsions:
REMARK  status: ('A' for Active; 'I' for Inactive)
REMARK    1  A    between atoms: C_1  and  C_2
REMARK    2  A    between atoms: C_5  and  C_8
REMARK    3  A    between atoms: C_13  and  C_18
REMARK    4  A    between atoms: C_21  and  O_24
REMARK    5  A    between atoms: O_24  and  C_25
REMARK                            x       y       z     vdW  Elec       q    Type
REMARK                         _______ _______ _______ _____ _____    ______ ____
ROOT
ATOM      1  C   UNL     1      -4.590   4.920   0.037  0.00  0.00    +0.177 C 
ATOM      2  C   UNL     1      -3.297   4.135   0.082  0.00  0.00    +0.041 C 
ATOM      3  C   UNL     1      -2.717   3.772   1.246  0.00  0.00    +0.020 C 
ATOM      4  C   UNL     1      -1.414   3.008   1.258  0.00  0.00    +0.060 C 
ATOM      5  C   UNL     1      -1.333   2.113   0.020  0.00  0.00    +0.032 C 
ATOM      6  C   UNL     1      -1.438   3.001  -1.224  0.00  0.00    +0.088 C 
ATOM      7  C   UNL     1      -2.712   3.795  -1.151  0.00  0.00    +0.164 C 
ATOM      8  O   UNL     1      -3.249   4.152  -2.182  0.00  0.00    -0.292 OA
ATOM      9  N   UNL     1      -3.281   4.074   2.463  0.00  0.00    -0.286 N 
ATOM     10  C   UNL     1      -4.595   4.508   2.482  0.00  0.00    +0.240 A 
ATOM     11  N   UNL     1      -5.225   4.905   1.346  0.00  0.00    -0.201 N 
ATOM     12  N   UNL     1      -6.514   5.261   1.739  0.00  0.00    -0.042 NA
ATOM     13  N   UNL     1      -6.574   5.071   3.018  0.00  0.00    -0.021 NA
ATOM     14  N   UNL     1      -5.447   4.629   3.459  0.00  0.00    -0.092 NA
ATOM     15  H   UNL     1      -2.689   3.967   3.385  0.00  0.00    +0.155 HD
ENDROOT
BRANCH   1  20
ATOM     16  C   UNL     1      -3.466  10.381  -1.486  0.00  0.00    +0.044 C 
ATOM     17  C   UNL     1      -3.759   8.957  -1.089  0.00  0.00    -0.050 A 
ATOM     18  C   UNL     1      -4.596   8.180  -1.868  0.00  0.00    +0.004 A 
ATOM     19  C   UNL     1      -4.864   6.874  -1.504  0.00  0.00    +0.006 A 
ATOM     20  C   UNL     1      -4.296   6.344  -0.360  0.00  0.00    -0.018 A 
ATOM     21  C   UNL     1      -3.464   7.123   0.422  0.00  0.00    +0.006 A 
ATOM     22  C   UNL     1      -3.191   8.427   0.055  0.00  0.00    +0.004 A 
ENDBRANCH   1  20
BRANCH   5  23
ATOM     23  C   UNL     1      -0.017   1.378   0.010  0.00  0.00    -0.043 A 
ATOM     24  C   UNL     1       1.170   2.088   0.002  0.00  0.00    +0.007 A 
ATOM     25  C   UNL     1       2.377   1.417  -0.013  0.00  0.00    +0.046 A 
ATOM     26  C   UNL     1       2.399   0.030  -0.021  0.00  0.00    +0.120 A 
ATOM     27  C   UNL     1       1.207  -0.680  -0.013  0.00  0.00    +0.046 A 
ATOM     28  C   UNL     1       0.002  -0.004   0.002  0.00  0.00    +0.007 A 
BRANCH  26  29
ATOM     29  O   UNL     1       3.586  -0.632  -0.035  0.00  0.00    -0.495 OA
ATOM     30  C   UNL     1       4.772   0.164  -0.042  0.00  0.00    +0.277 C 
ENDBRANCH  26  29
ENDBRANCH   5  23
TORSDOF 3
