REMARK  Name = ZINC28059782
REMARK  9 active torsions:
REMARK  status: ('A' for Active; 'I' for Inactive)
REMARK    1  A    between atoms: C_1  and  C_2
REMARK    2  A    between atoms: C_10  and  C_13
REMARK    3  A    between atoms: C_16  and  N_19
REMARK    4  A    between atoms: C_20  and  C_22
REMARK    5  A    between atoms: C_23  and  C_31
REMARK    6  A    between atoms: C_34  and  O_39
REMARK    7  A    between atoms: C_35  and  O_37
REMARK    8  A    between atoms: O_37  and  C_38
REMARK    9  A    between atoms: O_39  and  C_40
REMARK                            x       y       z     vdW  Elec       q    Type
REMARK                         _______ _______ _______ _____ _____    ______ ____
ROOT
ATOM      1  C   UNL     1      -6.420   0.189   0.460  0.00  0.00    +0.044 C 
ATOM      2  C   UNL     1      -4.934   0.009   0.633  0.00  0.00    -0.050 A 
ATOM      3  C   UNL     1      -4.372   0.100   1.895  0.00  0.00    +0.007 A 
ATOM      4  C   UNL     1      -3.009  -0.062   2.071  0.00  0.00    +0.046 A 
ATOM      5  C   UNL     1      -2.202  -0.317   0.978  0.00  0.00    +0.131 A 
ATOM      6  C   UNL     1      -2.769  -0.412  -0.299  0.00  0.00    +0.038 A 
ATOM      7  C   UNL     1      -4.138  -0.247  -0.467  0.00  0.00    +0.016 A 
ATOM      8  C   UNL     1      -1.875  -0.689  -1.448  0.00  0.00    +0.050 C 
ATOM      9  C   UNL     1      -0.562  -0.507  -1.290  0.00  0.00    +0.025 C 
ATOM     10  C   UNL     1      -0.043  -0.005   0.039  0.00  0.00    +0.234 C 
ATOM     11  O   UNL     1      -0.861  -0.479   1.108  0.00  0.00    -0.479 OA
ATOM     12  C   UNL     1       0.431  -0.781  -2.393  0.00  0.00    +0.174 C 
ATOM     13  N   UNL     1      -0.210  -1.517  -3.473  0.00  0.00    -0.201 N 
ATOM     14  C   UNL     1      -1.555  -1.676  -3.588  0.00  0.00    +0.240 A 
ATOM     15  N   UNL     1      -1.772  -2.373  -4.666  0.00  0.00    -0.092 NA
ATOM     16  N   UNL     1      -0.656  -2.671  -5.238  0.00  0.00    -0.021 NA
ATOM     17  N   UNL     1       0.338  -2.185  -4.567  0.00  0.00    -0.042 NA
ATOM     18  N   UNL     1      -2.426  -1.145  -2.652  0.00  0.00    -0.282 N 
ATOM     19  H   UNL     1      -3.510  -1.073  -2.822  0.00  0.00    +0.155 HD
ENDROOT
BRANCH  10  20
ATOM     20  C   UNL     1      -0.052   1.502   0.037  0.00  0.00    -0.003 A 
ATOM     21  C   UNL     1       1.138   2.199  -0.066  0.00  0.00    +0.009 A 
ATOM     22  C   UNL     1       1.134   3.580  -0.072  0.00  0.00    +0.024 A 
ATOM     23  C   UNL     1      -0.067   4.269   0.035  0.00  0.00    +0.033 A 
ATOM     24  C   UNL     1      -1.260   3.567   0.144  0.00  0.00    +0.024 A 
ATOM     25  C   UNL     1      -1.249   2.186   0.145  0.00  0.00    +0.009 A 
BRANCH  23  26
ATOM     26  N   UNL     1      -0.075   5.668   0.035  0.00  0.00    -0.286 N 
ATOM     27  C   UNL     1      -1.083   6.337  -0.560  0.00  0.00    +0.214 C 
ATOM     28  O   UNL     1      -2.024   5.728  -1.023  0.00  0.00    -0.276 OA
ATOM     29  C   UNL     1      -1.040   7.840  -0.650  0.00  0.00    +0.109 C 
ATOM     30  H   UNL     1       0.741   6.223   0.520  0.00  0.00    +0.155 HD
ENDBRANCH  23  26
ENDBRANCH  10  20
BRANCH  12  31
ATOM     31  C   UNL     1       0.959   0.526  -2.924  0.00  0.00    -0.015 A 
ATOM     32  C   UNL     1       0.090   1.447  -3.480  0.00  0.00    +0.010 A 
ATOM     33  C   UNL     1       0.570   2.650  -3.964  0.00  0.00    +0.050 A 
ATOM     34  C   UNL     1       1.925   2.931  -3.903  0.00  0.00    +0.162 A 
ATOM     35  C   UNL     1       2.800   2.002  -3.348  0.00  0.00    +0.162 A 
ATOM     36  C   UNL     1       2.313   0.800  -2.860  0.00  0.00    +0.055 A 
BRANCH  35  37
ATOM     37  O   UNL     1       4.132   2.273  -3.285  0.00  0.00    -0.491 OA
ATOM     38  C   UNL     1       4.971   1.273  -2.703  0.00  0.00    +0.277 C 
ENDBRANCH  35  37
BRANCH  34  39
ATOM     39  O   UNL     1       2.399   4.112  -4.383  0.00  0.00    -0.491 OA
ATOM     40  C   UNL     1       1.443   5.017  -4.938  0.00  0.00    +0.277 C 
ENDBRANCH  34  39
ENDBRANCH  12  31
TORSDOF 5
