REMARK  Name = ZINC23590864
REMARK  9 active torsions:
REMARK  status: ('A' for Active; 'I' for Inactive)
REMARK    1  A    between atoms: C_1  and  C_2
REMARK    2  A    between atoms: C_2  and  C_3
REMARK    3  A    between atoms: C_3  and  C_4
REMARK    4  A    between atoms: C_3  and  N_6
REMARK    5  A    between atoms: C_4  and  C_5
REMARK    6  A    between atoms: C_7  and  C_9
REMARK    7  A    between atoms: C_9  and  S_10
REMARK    8  A    between atoms: S_10  and  C_11
REMARK    9  A    between atoms: C_21  and  C_25
REMARK                            x       y       z     vdW  Elec       q    Type
REMARK                         _______ _______ _______ _____ _____    ______ ____
ROOT
ATOM      1  C   UNL     1       5.913   3.670   0.118  0.00  0.00    +0.191 A 
ATOM      2  N   UNL     1       6.066   2.393   0.437  0.00  0.00    -0.207 NA
ATOM      3  C   UNL     1       5.080   1.499   0.412  0.00  0.00    +0.129 A 
ATOM      4  C   UNL     1       3.802   1.990   0.015  0.00  0.00    +0.051 A 
ATOM      5  C   UNL     1       2.567   1.230  -0.095  0.00  0.00    -0.025 A 
ATOM      6  C   UNL     1       1.470   1.909  -0.496  0.00  0.00    -0.004 A 
ATOM      7  S   UNL     1       2.019   3.580  -0.742  0.00  0.00    -0.073 S 
ATOM      8  C   UNL     1       3.715   3.367  -0.310  0.00  0.00    +0.115 A 
ATOM      9  N   UNL     1       4.744   4.190  -0.261  0.00  0.00    -0.214 NA
ATOM     10  C   UNL     1       0.087   1.367  -0.690  0.00  0.00    +0.046 C 
ATOM     11  C   UNL     1       0.166  -0.166  -0.724  0.00  0.00    -0.009 C 
ATOM     12  C   UNL     1       1.021  -0.638   0.455  0.00  0.00    +0.008 C 
ATOM     13  C   UNL     1       2.484  -0.262   0.218  0.00  0.00    +0.037 C 
ATOM     14  C   UNL     1      -1.242  -0.754  -0.610  0.00  0.00    +0.008 C 
ATOM     15  N   UNL     1       5.283   0.174   0.753  0.00  0.00    -0.343 N 
ATOM     16  H   UNL     1       4.444  -0.537   0.721  0.00  0.00    +0.144 HD
ATOM     17  H   UNL     1       6.284  -0.169   1.056  0.00  0.00    +0.144 HD
ENDROOT
BRANCH   1  18
ATOM     18  S   UNL     1       7.318   4.730   0.200  0.00  0.00    -0.077 S 
BRANCH  18  19
ATOM     19  C   UNL     1       8.573   3.546   0.746  0.00  0.00    +0.173 C 
BRANCH  19  21
ATOM     20  N   UNL     1      10.987   3.562   1.287  0.00  0.00    -0.312 N 
ATOM     21  C   UNL     1       9.899   4.249   0.888  0.00  0.00    +0.224 C 
ATOM     22  O   UNL     1       9.986   5.434   0.645  0.00  0.00    -0.275 OA
ATOM     23  H   UNL     1      10.908   2.487   1.508  0.00  0.00    +0.149 HD
BRANCH  20  24
ATOM     24  C   UNL     1      12.275   4.245   1.425  0.00  0.00    +0.072 C 
BRANCH  24  26
ATOM     25  C   UNL     1      11.305   5.997   2.920  0.00  0.00    +0.006 C 
ATOM     26  C   UNL     1      12.361   4.896   2.808  0.00  0.00    +0.019 C 
ENDBRANCH  24  26
BRANCH  24  27
ATOM     27  C   UNL     1      13.410   3.232   1.267  0.00  0.00    +0.019 C 
ATOM     28  C   UNL     1      13.400   2.673  -0.157  0.00  0.00    +0.006 C 
ENDBRANCH  24  27
ENDBRANCH  20  24
ENDBRANCH  19  21
ENDBRANCH  18  19
ENDBRANCH   1  18
TORSDOF 6
