REMARK  Name = ZINC08817192
REMARK  8 active torsions:
REMARK  status: ('A' for Active; 'I' for Inactive)
REMARK    1  A    between atoms: C_1  and  C_2
REMARK    2  A    between atoms: C_5  and  C_7
REMARK    3  A    between atoms: C_10  and  C_11
REMARK    4  A    between atoms: C_10  and  O_18
REMARK    5  A    between atoms: N_23  and  C_24
REMARK    6  A    between atoms: C_24  and  C_25
REMARK    7  A    between atoms: C_25  and  C_26
REMARK    8  A    between atoms: C_26  and  N_56
REMARK                            x       y       z     vdW  Elec       q    Type
REMARK                         _______ _______ _______ _____ _____    ______ ____
ROOT
ATOM      1  C   UNL     1       2.657  -4.315  -0.271  0.00  0.00    +0.180 C 
ATOM      2  C   UNL     1       2.455  -2.823  -0.140  0.00  0.00    +0.074 C 
ATOM      3  C   UNL     1       1.253  -2.156  -0.021  0.00  0.00    +0.133 C 
ATOM      4  C   UNL     1       3.737  -2.251  -0.171  0.00  0.00    +0.249 C 
ATOM      5  O   UNL     1       3.992  -1.063  -0.096  0.00  0.00    -0.282 OA
ATOM      6  C   UNL     1       4.732  -3.350  -0.307  0.00  0.00    +0.288 C 
ATOM      7  O   UNL     1       5.935  -3.197  -0.361  0.00  0.00    -0.266 OA
ATOM      8  N   UNL     1       4.103  -4.536  -0.368  0.00  0.00    -0.281 N 
ENDROOT
BRANCH   3   9
ATOM      9  C   UNL     1       1.237  -0.705   0.232  0.00  0.00    +0.017 A 
ATOM     10  C   UNL     1       0.468   0.141  -0.574  0.00  0.00    +0.013 A 
ATOM     11  C   UNL     1       0.457   1.497  -0.330  0.00  0.00    +0.021 A 
ATOM     12  C   UNL     1       1.207   2.023   0.710  0.00  0.00    +0.041 A 
ATOM     13  C   UNL     1       1.971   1.192   1.512  0.00  0.00    +0.021 A 
ATOM     14  C   UNL     1       1.991  -0.167   1.280  0.00  0.00    +0.013 A 
ATOM     15 CL   UNL     1       1.188   3.733   1.008  0.00  0.00    -0.084 Cl
ENDBRANCH   3   9
BRANCH   1  20
ATOM     16  C   UNL     1       1.731  -5.363  -5.117  0.00  0.00    +0.086 C 
ATOM     17  C   UNL     1       1.570  -5.277  -3.621  0.00  0.00    +0.102 A 
ATOM     18  C   UNL     1       0.528  -5.751  -2.914  0.00  0.00    +0.045 A 
ATOM     19  C   UNL     1       0.790  -5.462  -1.555  0.00  0.00    +0.047 A 
ATOM     20  C   UNL     1       1.972  -4.821  -1.514  0.00  0.00    +0.130 A 
ATOM     21  O   UNL     1       2.441  -4.715  -2.768  0.00  0.00    -0.463 OA
ENDBRANCH   1  20
BRANCH   3  22
ATOM     22  O   UNL     1       0.091  -2.834  -0.137  0.00  0.00    -0.506 OA
ATOM     23  H   UNL     1      -0.676  -2.202  -0.025  0.00  0.00    +0.292 HD
ENDBRANCH   3  22
BRANCH   8  24
ATOM     24  C   UNL     1       4.757  -5.839  -0.509  0.00  0.00    +0.107 C 
BRANCH  24  25
ATOM     25  C   UNL     1       4.906  -6.177  -1.993  0.00  0.00    +0.000 C 
BRANCH  25  26
ATOM     26  C   UNL     1       5.589  -7.538  -2.140  0.00  0.00    -0.077 C 
BRANCH  26  32
ATOM     27  C   UNL     1       4.419  -8.068  -4.194  0.00  0.00    -0.050 C 
ATOM     28  C   UNL     1       4.611  -8.344  -5.688  0.00  0.00    +0.141 C 
ATOM     29  O   UNL     1       5.472  -9.474  -5.852  0.00  0.00    -0.383 OA
ATOM     30  C   UNL     1       6.760  -9.308  -5.253  0.00  0.00    +0.141 C 
ATOM     31  C   UNL     1       6.589  -9.042  -3.755  0.00  0.00    -0.050 C 
ATOM     32  N   UNL     1       5.744  -7.843  -3.579  0.00  0.00    +0.383 N 
ATOM     33  H   UNL     1       6.196  -7.045  -4.042  0.00  0.00    -0.082 HD
ENDBRANCH  26  32
ENDBRANCH  25  26
ENDBRANCH  24  25
ENDBRANCH   8  24
TORSDOF 7
