REMARK  Name = ZINC32818934
REMARK  5 active torsions:
REMARK  status: ('A' for Active; 'I' for Inactive)
REMARK    1  A    between atoms: C_1  and  C_2
REMARK    2  A    between atoms: C_2  and  C_9
REMARK    3  A    between atoms: C_12  and  N_15
REMARK    4  A    between atoms: N_15  and  S_16
REMARK    5  A    between atoms: S_16  and  C_19
REMARK                            x       y       z     vdW  Elec       q    Type
REMARK                         _______ _______ _______ _____ _____    ______ ____
ROOT
ATOM      1  C   UNL     1       3.307   3.570  -0.505  0.00  0.00    -0.015 A 
ATOM      2  C   UNL     1       3.320   2.568   0.448  0.00  0.00    +0.008 A 
ATOM      3  C   UNL     1       2.231   1.730   0.586  0.00  0.00    +0.025 A 
ATOM      4  C   UNL     1       1.122   1.894  -0.233  0.00  0.00    +0.048 A 
ATOM      5  C   UNL     1       1.114   2.899  -1.193  0.00  0.00    +0.025 A 
ATOM      6  C   UNL     1       2.204   3.736  -1.322  0.00  0.00    +0.008 A 
ENDROOT
BRANCH   1   8
ATOM      7  C   UNL     1       4.803   5.185   0.670  0.00  0.00    +0.047 C 
ATOM      8  C   UNL     1       4.497   4.482  -0.654  0.00  0.00    +0.135 C 
ATOM      9  C   UNL     1       5.705   3.707  -1.141  0.00  0.00    +0.248 C 
ATOM     10  O   UNL     1       6.261   2.787  -0.580  0.00  0.00    -0.273 OA
ATOM     11  N   UNL     1       6.035   4.254  -2.328  0.00  0.00    -0.238 N 
ATOM     12  C   UNL     1       5.211   5.256  -2.655  0.00  0.00    +0.307 C 
ATOM     13  O   UNL     1       5.308   5.903  -3.679  0.00  0.00    -0.252 OA
ATOM     14  N   UNL     1       4.264   5.468  -1.723  0.00  0.00    -0.282 N 
ATOM     15  H   UNL     1       6.893   3.862  -2.895  0.00  0.00    +0.159 HD
ATOM     16  H   UNL     1       3.433   6.183  -1.640  0.00  0.00    +0.152 HD
ENDBRANCH   1   8
BRANCH   4  17
ATOM     17  N   UNL     1       0.019   1.048  -0.096  0.00  0.00    -0.216 N 
ATOM     18  H   UNL     1       0.166  -0.039  -0.014  0.00  0.00    +0.174 HD
BRANCH  17  19
ATOM     19  S   UNL     1      -1.511   1.682  -0.057  0.00  0.00    +0.073 S 
ATOM     20  O   UNL     1      -1.637   2.510  -1.205  0.00  0.00    -0.150 OA
ATOM     21  O   UNL     1      -2.393   0.598   0.202  0.00  0.00    -0.150 OA
BRANCH  19  22
ATOM     22  C   UNL     1      -1.598   2.747   1.344  0.00  0.00    +0.122 A 
ATOM     23  C   UNL     1      -1.804   4.103   1.170  0.00  0.00    +0.030 A 
ATOM     24  C   UNL     1      -1.873   4.938   2.269  0.00  0.00    +0.002 A 
ATOM     25  C   UNL     1      -1.736   4.418   3.543  0.00  0.00    +0.001 A 
ATOM     26  C   UNL     1      -1.530   3.063   3.718  0.00  0.00    +0.017 A 
ATOM     27  C   UNL     1      -1.466   2.226   2.619  0.00  0.00    +0.044 A 
ATOM     28 BR   UNL     1      -1.192   0.370   2.858  0.00  0.00    -0.048 Br
ENDBRANCH  19  22
ENDBRANCH  17  19
ENDBRANCH   4  17
TORSDOF 4
