REMARK  Name = ZINC01249394
REMARK  6 active torsions:
REMARK  status: ('A' for Active; 'I' for Inactive)
REMARK    1  A    between atoms: C_3  and  C_9
REMARK    2  A    between atoms: C_4  and  O_8
REMARK    3  A    between atoms: C_6  and  O_7
REMARK    4  A    between atoms: N_11  and  N_12
REMARK    5  A    between atoms: C_13  and  C_14
REMARK    6  A    between atoms: C_15  and  O_27
REMARK                            x       y       z     vdW  Elec       q    Type
REMARK                         _______ _______ _______ _____ _____    ______ ____
ROOT
ATOM      1  N   UNL     1      -2.416   1.462   0.021  0.00  0.00    -0.187 NA
ATOM      2  C   UNL     1      -1.296   2.120   0.020  0.00  0.00    +0.142 C 
ENDROOT
BRANCH   2   3
ATOM      3  C   UNL     1      -0.017   1.394   0.010  0.00  0.00    +0.047 A 
ATOM      4  C   UNL     1       0.002  -0.004   0.002  0.00  0.00    +0.126 A 
ATOM      5  C   UNL     1       1.214  -0.681  -0.013  0.00  0.00    +0.049 A 
ATOM      6  C   UNL     1       2.408   0.009  -0.020  0.00  0.00    +0.050 A 
ATOM      7  C   UNL     1       2.419   1.399  -0.013  0.00  0.00    +0.136 A 
ATOM      8  C   UNL     1       1.202   2.100   0.002  0.00  0.00    +0.036 A 
ATOM      9  C   UNL     1       1.569   3.511   0.005  0.00  0.00    +0.002 A 
ATOM     10  C   UNL     1       2.914   3.561  -0.007  0.00  0.00    +0.109 A 
ATOM     11  O   UNL     1       3.412   2.315  -0.017  0.00  0.00    -0.459 OA
ATOM     12  C   UNL     1       3.701   4.852  -0.009  0.00  0.00    +0.075 C 
ATOM     13  C   UNL     1       2.765   5.993  -0.421  0.00  0.00    +0.008 C 
ATOM     14  C   UNL     1       1.489   5.940   0.425  0.00  0.00    +0.005 C 
ATOM     15  C   UNL     1       0.662   4.713   0.019  0.00  0.00    +0.039 C 
BRANCH   4  16
ATOM     16  O   UNL     1      -1.165  -0.700   0.010  0.00  0.00    -0.506 OA
ATOM     17  H   UNL     1      -1.512  -0.896  -0.871  0.00  0.00    +0.292 HD
ENDBRANCH   4  16
ENDBRANCH   2   3
BRANCH   1  20
ATOM     18  C   UNL     1      -4.797   1.470   0.033  0.00  0.00    +0.267 C 
ATOM     19  O   UNL     1      -4.788   0.253   0.026  0.00  0.00    -0.268 OA
ATOM     20  N   UNL     1      -3.635   2.153   0.031  0.00  0.00    -0.203 N 
ATOM     21  H   UNL     1      -3.642   3.123   0.036  0.00  0.00    +0.178 HD
BRANCH  18  24
ATOM     22  C   UNL     1      -7.290   4.270   0.060  0.00  0.00    +0.046 A 
ATOM     23  C   UNL     1      -6.092   3.595   0.051  0.00  0.00    +0.020 A 
ATOM     24  C   UNL     1      -6.078   2.197   0.043  0.00  0.00    +0.080 A 
ATOM     25  C   UNL     1      -7.290   1.489   0.039  0.00  0.00    +0.132 A 
ATOM     26  C   UNL     1      -8.489   2.179   0.054  0.00  0.00    +0.091 A 
ATOM     27  C   UNL     1      -8.491   3.567   0.061  0.00  0.00    +0.120 A 
BRANCH  27  28
ATOM     28  O   UNL     1      -9.669   4.240   0.070  0.00  0.00    -0.507 OA
ATOM     29  H   UNL     1     -10.014   4.440  -0.811  0.00  0.00    +0.292 HD
ENDBRANCH  27  28
BRANCH  25  30
ATOM     30  O   UNL     1      -7.285   0.132   0.026  0.00  0.00    -0.506 OA
ATOM     31  H   UNL     1      -7.282  -0.270   0.905  0.00  0.00    +0.292 HD
ENDBRANCH  25  30
ENDBRANCH  18  24
ENDBRANCH   1  20
TORSDOF 6
