REMARK  Name = ZINC61844575
REMARK  3 active torsions:
REMARK  status: ('A' for Active; 'I' for Inactive)
REMARK    1  A    between atoms: C_5  and  C_6
REMARK    2  A    between atoms: C_6  and  C_7
REMARK    3  A    between atoms: C_9  and  C_12
REMARK                            x       y       z     vdW  Elec       q    Type
REMARK                         _______ _______ _______ _____ _____    ______ ____
ROOT
ATOM      1  C   UNL     1      -1.729  -1.040  -1.407  0.00  0.00    +0.232 A 
ATOM      2  N   UNL     1      -1.409  -2.073  -2.132  0.00  0.00    -0.188 NA
ATOM      3  C   UNL     1      -1.978  -1.978  -3.347  0.00  0.00    +0.241 A 
ATOM      4  N   UNL     1      -2.672  -0.868  -3.399  0.00  0.00    -0.053 NA
ATOM      5  O   UNL     1      -2.524  -0.242  -2.133  0.00  0.00    -0.337 OA
ENDROOT
BRANCH   3   6
ATOM      6  C   UNL     1      -1.843  -2.967  -4.446  0.00  0.00    +0.222 A 
ATOM      7  N   UNL     1      -2.410  -2.872  -5.656  0.00  0.00    -0.212 NA
ATOM      8  H   UNL     1      -0.899  -5.550  -5.917  0.00  0.00    +0.190 HD
ATOM      9  C   UNL     1      -2.086  -3.910  -6.379  0.00  0.00    +0.216 A 
ATOM     10  N   UNL     1      -1.293  -4.708  -5.641  0.00  0.00    -0.265 N 
ATOM     11  N   UNL     1      -1.142  -4.078  -4.395  0.00  0.00    -0.149 NA
ENDBRANCH   3   6
BRANCH   1  12
ATOM     12  C   UNL     1      -1.286  -0.786   0.011  0.00  0.00    +0.134 C 
BRANCH  12  17
ATOM     13  C   UNL     1      -0.017   1.378   0.010  0.00  0.00    +0.011 A 
ATOM     14  C   UNL     1       1.160   2.051   0.002  0.00  0.00    +0.045 A 
ATOM     15  S   UNL     1       2.348   0.719  -0.017  0.00  0.00    -0.105 S 
ATOM     16  C   UNL     1       1.196  -0.645  -0.013  0.00  0.00    +0.049 A 
ATOM     17  C   UNL     1       0.002  -0.004   0.002  0.00  0.00    -0.031 A 
ENDBRANCH  12  17
ENDBRANCH   1  12
TORSDOF 3
