REMARK  Name = ZINC26083067
REMARK  4 active torsions:
REMARK  status: ('A' for Active; 'I' for Inactive)
REMARK    1  A    between atoms: C_4  and  C_18
REMARK    2  A    between atoms: C_5  and  C_7
REMARK    3  A    between atoms: C_7  and  N_8
REMARK    4  A    between atoms: C_18  and  N_19
REMARK                            x       y       z     vdW  Elec       q    Type
REMARK                         _______ _______ _______ _____ _____    ______ ____
ROOT
ATOM      1  C   UNL     1       4.877   3.089  -3.327  0.00  0.00    +0.000 A 
ATOM      2  C   UNL     1       4.772   1.717  -3.455  0.00  0.00    +0.000 A 
ATOM      3  C   UNL     1       4.336   0.955  -2.388  0.00  0.00    +0.006 A 
ATOM      4  C   UNL     1       4.006   1.565  -1.192  0.00  0.00    -0.021 A 
ATOM      5  C   UNL     1       4.107   2.937  -1.065  0.00  0.00    -0.025 A 
ATOM      6  C   UNL     1       4.546   3.699  -2.132  0.00  0.00    +0.005 A 
ENDROOT
BRANCH   5   7
ATOM      7  C   UNL     1       3.741   3.603   0.236  0.00  0.00    +0.141 C 
BRANCH   7   8
ATOM      8  N   UNL     1       4.853   3.471   1.181  0.00  0.00    -0.295 N 
ATOM      9  C   UNL     1       4.749   4.006   2.445  0.00  0.00    +0.289 A 
ATOM     10  N   UNL     1       5.679   3.946   3.364  0.00  0.00    -0.195 NA
ATOM     11  C   UNL     1       5.229   4.579   4.482  0.00  0.00    +0.111 A 
ATOM     12  C   UNL     1       5.782   4.819   5.741  0.00  0.00    +0.031 A 
ATOM     13  C   UNL     1       5.054   5.509   6.686  0.00  0.00    +0.002 A 
ATOM     14  C   UNL     1       3.779   5.966   6.392  0.00  0.00    +0.004 A 
ATOM     15  C   UNL     1       3.221   5.735   5.151  0.00  0.00    +0.048 A 
ATOM     16  C   UNL     1       3.938   5.043   4.190  0.00  0.00    +0.157 A 
ATOM     17  O   UNL     1       3.679   4.671   2.915  0.00  0.00    -0.425 OA
ATOM     18  H   UNL     1       5.771   2.946   0.880  0.00  0.00    +0.151 HD
ENDBRANCH   7   8
ENDBRANCH   5   7
BRANCH   4  19
ATOM     19  C   UNL     1       3.532   0.734  -0.028  0.00  0.00    +0.178 C 
BRANCH  19  20
ATOM     20  N   UNL     1       2.067   0.704  -0.014  0.00  0.00    -0.267 N 
ATOM     21  C   UNL     1       1.295  -0.403  -0.013  0.00  0.00    +0.108 A 
ATOM     22  C   UNL     1       0.002  -0.004   0.002  0.00  0.00    +0.041 A 
ATOM     23  C   UNL     1      -0.017   1.395   0.010  0.00  0.00    +0.134 A 
ATOM     24  N   UNL     1       1.220   1.820   0.000  0.00  0.00    -0.179 NA
ENDBRANCH  19  20
ENDBRANCH   4  19
TORSDOF 4
