REMARK  Name = ZINC42910944
REMARK  7 active torsions:
REMARK  status: ('A' for Active; 'I' for Inactive)
REMARK    1  A    between atoms: C_1  and  C_2
REMARK    2  A    between atoms: C_2  and  C_26
REMARK    3  A    between atoms: C_4  and  N_10
REMARK    4  A    between atoms: C_6  and  C_8
REMARK    5  A    between atoms: C_6  and  C_9
REMARK    6  A    between atoms: N_13  and  N_14
REMARK    7  A    between atoms: N_14  and  C_15
REMARK                            x       y       z     vdW  Elec       q    Type
REMARK                         _______ _______ _______ _____ _____    ______ ____
ROOT
ATOM      1  N   UNL     1      -3.659  -0.635   0.718  0.00  0.00    -0.295 N 
ATOM      2  C   UNL     1      -4.632  -0.264   1.574  0.00  0.00    +0.316 C 
ATOM      3  O   UNL     1      -4.443   0.654   2.348  0.00  0.00    -0.251 OA
ATOM      4  N   UNL     1      -5.814  -0.910   1.570  0.00  0.00    -0.220 N 
ATOM      5  H   UNL     1      -3.809  -1.367   0.100  0.00  0.00    +0.151 HD
ATOM      6  H   UNL     1      -6.515  -0.643   2.186  0.00  0.00    +0.174 HD
ENDROOT
BRANCH   1  10
ATOM      7  C   UNL     1      -0.555   2.142  -0.715  0.00  0.00    -0.010 C 
ATOM      8  C   UNL     1      -0.357   0.624  -0.667  0.00  0.00    -0.072 C 
ATOM      9  C   UNL     1      -1.714  -0.073  -0.652  0.00  0.00    +0.009 C 
ATOM     10  C   UNL     1      -2.370   0.070   0.722  0.00  0.00    +0.072 C 
ATOM     11  C   UNL     1      -1.448  -0.571   1.759  0.00  0.00    +0.009 C 
ATOM     12  C   UNL     1      -0.089   0.121   1.762  0.00  0.00    -0.072 C 
ATOM     13  N   UNL     1       0.500   0.237   0.440  0.00  0.00    +0.386 N 
ATOM     14  C   UNL     1       0.863  -0.736   2.628  0.00  0.00    -0.010 C 
ATOM     15  C   UNL     1      -0.206   1.489   2.442  0.00  0.00    -0.010 C 
ATOM     16  C   UNL     1       0.355   0.218  -1.978  0.00  0.00    -0.010 C 
ATOM     17  H   UNL     1       0.941  -0.658   0.206  0.00  0.00    -0.084 HD
ATOM     18  H   UNL     1       1.276   0.904   0.492  0.00  0.00    -0.084 HD
ENDBRANCH   1  10
BRANCH   4  19
ATOM     19  N   UNL     1      -6.032  -1.968   0.678  0.00  0.00    -0.258 N 
ATOM     20  H   UNL     1      -5.308  -2.286   0.116  0.00  0.00    +0.170 HD
BRANCH  19  21
ATOM     21  C   UNL     1      -7.297  -2.567   0.596  0.00  0.00    +0.121 A 
ATOM     22  C   UNL     1      -8.443  -1.795   0.745  0.00  0.00    +0.186 A 
ATOM     23  C   UNL     1      -9.691  -2.389   0.663  0.00  0.00    +0.198 A 
ATOM     24  C   UNL     1      -9.798  -3.752   0.433  0.00  0.00    +0.199 A 
ATOM     25  C   UNL     1      -8.656  -4.523   0.284  0.00  0.00    +0.198 A 
ATOM     26  C   UNL     1      -7.406  -3.932   0.360  0.00  0.00    +0.186 A 
ATOM     27  F   UNL     1      -6.293  -4.683   0.209  0.00  0.00    -0.200 F 
ATOM     28  F   UNL     1      -8.763  -5.851   0.059  0.00  0.00    -0.199 F 
ATOM     29  F   UNL     1     -11.017  -4.329   0.354  0.00  0.00    -0.199 F 
ATOM     30  F   UNL     1     -10.806  -1.639   0.808  0.00  0.00    -0.199 F 
ATOM     31  F   UNL     1      -8.339  -0.467   0.970  0.00  0.00    -0.200 F 
ENDBRANCH  19  21
ENDBRANCH   4  19
TORSDOF 3
