REMARK  Name = ZINC33795967
REMARK  11 active torsions:
REMARK  status: ('A' for Active; 'I' for Inactive)
REMARK    1  A    between atoms: C_1  and  C_2
REMARK    2  A    between atoms: C_2  and  C_3
REMARK    3  A    between atoms: C_2  and  C_4
REMARK    4  A    between atoms: C_4  and  C_5
REMARK    5  A    between atoms: C_5  and  O_6
REMARK    6  A    between atoms: O_6  and  C_7
REMARK    7  A    between atoms: C_11  and  C_13
REMARK    8  A    between atoms: C_15  and  C_26
REMARK    9  A    between atoms: C_26  and  C_28
REMARK   10  A    between atoms: C_34  and  O_37
REMARK   11  A    between atoms: O_37  and  C_38
REMARK                            x       y       z     vdW  Elec       q    Type
REMARK                         _______ _______ _______ _____ _____    ______ ____
ROOT
ATOM      1  C   UNL     1      -3.853   3.560  -0.101  0.00  0.00    +0.152 C 
ATOM      2  C   UNL     1      -3.031   4.821   0.020  0.00  0.00    +0.080 C 
ATOM      3  C   UNL     1      -3.906   5.848   0.138  0.00  0.00    +0.250 C 
ATOM      4  C   UNL     1      -5.283   5.318   0.105  0.00  0.00    +0.293 C 
ATOM      5  O   UNL     1      -6.292   5.991   0.189  0.00  0.00    -0.266 OA
ATOM      6  N   UNL     1      -5.258   3.980  -0.031  0.00  0.00    -0.232 N 
ATOM      7  C   UNL     1      -6.364   3.145  -0.098  0.00  0.00    +0.168 A 
ATOM      8  N   UNL     1      -6.406   1.833  -0.235  0.00  0.00    -0.233 NA
ATOM      9  C   UNL     1      -7.554   1.187  -0.277  0.00  0.00    +0.120 A 
ATOM     10  C   UNL     1      -8.702   1.903  -0.186  0.00  0.00    +0.068 A 
ATOM     11  S   UNL     1      -8.050   3.559  -0.030  0.00  0.00    -0.060 S 
ATOM     12  O   UNL     1      -3.571   7.153   0.265  0.00  0.00    -0.282 OA
ENDROOT
BRANCH   1  17
ATOM     13  C   UNL     1      -2.552   1.118  -2.674  0.00  0.00    +0.121 A 
ATOM     14  C   UNL     1      -3.072   1.649  -3.845  0.00  0.00    +0.045 A 
ATOM     15  C   UNL     1      -3.842   2.795  -3.799  0.00  0.00    +0.004 A 
ATOM     16  C   UNL     1      -4.094   3.413  -2.587  0.00  0.00    +0.006 A 
ATOM     17  C   UNL     1      -3.577   2.885  -1.419  0.00  0.00    -0.019 A 
ATOM     18  C   UNL     1      -2.801   1.742  -1.460  0.00  0.00    +0.051 A 
BRANCH  13  19
ATOM     19  O   UNL     1      -1.795  -0.010  -2.716  0.00  0.00    -0.492 OA
BRANCH  19  20
ATOM     20  C   UNL     1      -1.483  -0.534  -4.008  0.00  0.00    +0.229 C 
BRANCH  20  21
ATOM     21  C   UNL     1      -0.719  -1.851  -3.854  0.00  0.00    +0.044 C 
BRANCH  21  23
ATOM     22  C   UNL     1       0.707  -1.380  -5.850  0.00  0.00    +0.007 C 
ATOM     23  C   UNL     1      -0.294  -2.359  -5.233  0.00  0.00    -0.014 C 
ATOM     24  C   UNL     1       0.360  -3.735  -5.091  0.00  0.00    +0.007 C 
ENDBRANCH  21  23
ENDBRANCH  20  21
ENDBRANCH  19  20
ENDBRANCH  13  19
ENDBRANCH   1  17
BRANCH   2  25
ATOM     25  C   UNL     1      -1.568   4.917   0.006  0.00  0.00    +0.230 C 
ATOM     26  O   UNL     1      -1.003   5.487  -0.910  0.00  0.00    -0.283 OA
BRANCH  25  27
ATOM     27  C   UNL     1      -0.783   4.324   1.098  0.00  0.00    +0.176 A 
ATOM     28  C   UNL     1       0.566   4.433   1.242  0.00  0.00    +0.062 A 
ATOM     29  C   UNL     1       0.904   3.693   2.456  0.00  0.00    +0.025 A 
ATOM     30  C   UNL     1       2.099   3.428   3.135  0.00  0.00    +0.012 A 
ATOM     31  C   UNL     1       2.079   2.680   4.277  0.00  0.00    +0.004 A 
ATOM     32  C   UNL     1       0.882   2.180   4.771  0.00  0.00    +0.049 A 
ATOM     33  C   UNL     1      -0.310   2.428   4.116  0.00  0.00    +0.163 A 
ATOM     34  C   UNL     1      -0.313   3.189   2.948  0.00  0.00    +0.177 A 
ATOM     35  O   UNL     1      -1.289   3.585   2.107  0.00  0.00    -0.448 OA
BRANCH  33  36
ATOM     36  O   UNL     1      -1.476   1.931   4.609  0.00  0.00    -0.491 OA
ATOM     37  C   UNL     1      -1.383   1.059   5.737  0.00  0.00    +0.277 C 
ENDBRANCH  33  36
ENDBRANCH  25  27
ENDBRANCH   2  25
TORSDOF 8
