REMARK  Name = ZINC58432529
REMARK  6 active torsions:
REMARK  status: ('A' for Active; 'I' for Inactive)
REMARK    1  A    between atoms: C_1  and  C_2
REMARK    2  A    between atoms: C_2  and  C_3
REMARK    3  A    between atoms: C_2  and  C_4
REMARK    4  A    between atoms: C_4  and  C_5
REMARK    5  A    between atoms: C_5  and  C_6
REMARK    6  A    between atoms: C_11  and  N_13
REMARK                            x       y       z     vdW  Elec       q    Type
REMARK                         _______ _______ _______ _____ _____    ______ ____
ROOT
ATOM      1  N   UNL     1      -3.034  -4.678   1.182  0.00  0.00    -0.319 N 
ATOM      2  C   UNL     1      -2.572  -5.949   1.477  0.00  0.00    +0.182 A 
ATOM      3  N   UNL     1      -2.639  -6.606   2.603  0.00  0.00    -0.139 NA
ATOM      4  N   UNL     1      -2.118  -7.891   2.726  0.00  0.00    -0.170 N 
ATOM      5  C   UNL     1      -2.124  -8.679   3.841  0.00  0.00    +0.275 A 
ATOM      6  O   UNL     1      -2.627  -8.271   4.876  0.00  0.00    -0.266 OA
ATOM      7  C   UNL     1      -1.554  -9.952   3.796  0.00  0.00    +0.092 A 
ATOM      8  C   UNL     1      -0.988 -10.406   2.623  0.00  0.00    +0.119 A 
ATOM      9  N   UNL     1      -1.000  -9.612   1.556  0.00  0.00    -0.230 NA
ATOM     10  C   UNL     1      -1.536  -8.419   1.608  0.00  0.00    +0.200 A 
ATOM     11  S   UNL     1      -1.739  -7.116   0.413  0.00  0.00    -0.013 S 
ATOM     12  H   UNL     1      -3.474  -4.151   1.867  0.00  0.00    +0.148 HD
ENDROOT
BRANCH   1  17
ATOM     13  C   UNL     1      -2.851  -2.587  -0.110  0.00  0.00    +0.009 C 
ATOM     14  C   UNL     1      -3.598  -2.155  -1.397  0.00  0.00    +0.005 C 
ATOM     15  C   UNL     1      -4.719  -3.217  -1.514  0.00  0.00    +0.002 C 
ATOM     16  C   UNL     1      -4.046  -4.529  -1.061  0.00  0.00    +0.022 C 
ATOM     17  C   UNL     1      -2.858  -4.129  -0.165  0.00  0.00    +0.075 C 
BRANCH  13  18
ATOM     18  C   UNL     1      -1.416  -2.058  -0.121  0.00  0.00    +0.005 C 
BRANCH  18  19
ATOM     19  C   UNL     1      -1.433  -0.534   0.013  0.00  0.00    +0.003 C 
BRANCH  19  21
ATOM     20  C   UNL     1      -0.019   1.526   0.010  0.00  0.00    +0.007 C 
ATOM     21  C   UNL     1       0.002  -0.004   0.002  0.00  0.00    -0.017 C 
ATOM     22  C   UNL     1       0.742  -0.511   1.242  0.00  0.00    +0.007 C 
ENDBRANCH  19  21
ENDBRANCH  18  19
ENDBRANCH  13  18
ENDBRANCH   1  17
TORSDOF 4
