REMARK  Name = ZINC12998939
REMARK  11 active torsions:
REMARK  status: ('A' for Active; 'I' for Inactive)
REMARK    1  A    between atoms: C_1  and  C_2
REMARK    2  A    between atoms: C_2  and  C_3
REMARK    3  A    between atoms: C_3  and  N_4
REMARK    4  A    between atoms: N_4  and  C_5
REMARK    5  A    between atoms: C_6  and  N_21
REMARK    6  A    between atoms: N_7  and  C_14
REMARK    7  A    between atoms: C_14  and  C_15
REMARK    8  A    between atoms: C_22  and  C_24
REMARK    9  A    between atoms: C_24  and  S_25
REMARK   10  A    between atoms: S_25  and  C_26
REMARK   11  A    between atoms: C_26  and  C_27
REMARK                            x       y       z     vdW  Elec       q    Type
REMARK                         _______ _______ _______ _____ _____    ______ ____
ROOT
ATOM      1  C   UNL     1      -0.283  -2.739  -1.737  0.00  0.00    +0.140 A 
ATOM      2  C   UNL     1      -0.662  -2.736  -3.064  0.00  0.00    +0.128 A 
ATOM      3  N   UNL     1      -1.687  -3.558  -3.471  0.00  0.00    -0.276 N 
ATOM      4  C   UNL     1      -2.312  -4.356  -2.587  0.00  0.00    +0.331 A 
ATOM      5  O   UNL     1      -3.216  -5.076  -2.967  0.00  0.00    -0.246 OA
ATOM      6  N   UNL     1      -1.956  -4.373  -1.290  0.00  0.00    -0.273 N 
ATOM      7  H   UNL     1      -2.423  -4.958  -0.673  0.00  0.00    +0.173 HD
ATOM      8  C   UNL     1      -0.955  -3.591  -0.841  0.00  0.00    +0.277 A 
ATOM      9  O   UNL     1      -0.637  -3.618   0.336  0.00  0.00    -0.266 OA
ENDROOT
BRANCH   1  10
ATOM     10  N   UNL     1       0.764  -1.907  -1.288  0.00  0.00    -0.264 N 
ATOM     11  C   UNL     1       1.911  -2.453  -0.832  0.00  0.00    +0.230 C 
ATOM     12  O   UNL     1       2.081  -3.652  -0.899  0.00  0.00    -0.274 OA
BRANCH  10  13
ATOM     13  C   UNL     1       0.606  -0.451  -1.316  0.00  0.00    +0.114 C 
BRANCH  13  15
ATOM     14  C   UNL     1      -0.267   1.531  -0.069  0.00  0.00    +0.005 C 
ATOM     15  C   UNL     1      -0.101   0.010  -0.040  0.00  0.00    +0.016 C 
ENDBRANCH  13  15
ENDBRANCH  10  13
BRANCH  11  16
ATOM     16  C   UNL     1       2.981  -1.572  -0.240  0.00  0.00    +0.165 C 
BRANCH  16  17
ATOM     17  S   UNL     1       4.388  -2.594   0.276  0.00  0.00    -0.147 S 
BRANCH  17  18
ATOM     18  C   UNL     1       5.572  -1.400   0.957  0.00  0.00    +0.104 C 
BRANCH  18  19
ATOM     19  C   UNL     1       6.804  -2.127   1.429  0.00  0.00    -0.037 A 
ATOM     20  C   UNL     1       6.874  -2.596   2.728  0.00  0.00    +0.006 A 
ATOM     21  C   UNL     1       8.004  -3.263   3.162  0.00  0.00    +0.020 A 
ATOM     22  C   UNL     1       9.065  -3.462   2.296  0.00  0.00    +0.041 A 
ATOM     23  C   UNL     1       8.994  -2.993   0.997  0.00  0.00    +0.020 A 
ATOM     24  C   UNL     1       7.861  -2.330   0.562  0.00  0.00    +0.006 A 
ATOM     25 CL   UNL     1      10.485  -4.299   2.841  0.00  0.00    -0.084 Cl
ENDBRANCH  18  19
ENDBRANCH  17  18
ENDBRANCH  16  17
ENDBRANCH  11  16
ENDBRANCH   1  10
BRANCH   2  26
ATOM     26  N   UNL     1      -0.024  -1.920  -3.967  0.00  0.00    -0.343 N 
ATOM     27  H   UNL     1       0.652  -1.295  -3.663  0.00  0.00    +0.144 HD
ATOM     28  H   UNL     1      -0.249  -1.970  -4.909  0.00  0.00    +0.144 HD
ENDBRANCH   2  26
BRANCH   3  29
ATOM     29  C   UNL     1      -2.099  -3.565  -4.877  0.00  0.00    +0.163 C 
BRANCH  29  30
ATOM     30  C   UNL     1      -1.304  -4.601  -5.629  0.00  0.00    -0.028 A 
ATOM     31  C   UNL     1      -0.102  -4.255  -6.218  0.00  0.00    +0.005 A 
ATOM     32  C   UNL     1       0.627  -5.205  -6.909  0.00  0.00    +0.000 A 
ATOM     33  C   UNL     1       0.155  -6.500  -7.009  0.00  0.00    +0.000 A 
ATOM     34  C   UNL     1      -1.046  -6.846  -6.419  0.00  0.00    +0.000 A 
ATOM     35  C   UNL     1      -1.774  -5.897  -5.726  0.00  0.00    +0.005 A 
ENDBRANCH  29  30
ENDBRANCH   3  29
TORSDOF 10
