REMARK  Name = ZINC53447087
REMARK  9 active torsions:
REMARK  status: ('A' for Active; 'I' for Inactive)
REMARK    1  A    between atoms: C_1  and  C_2
REMARK    2  A    between atoms: C_2  and  C_3
REMARK    3  A    between atoms: C_2  and  C_4
REMARK    4  A    between atoms: C_2  and  N_22
REMARK    5  A    between atoms: N_6  and  C_7
REMARK    6  A    between atoms: C_11  and  O_13
REMARK    7  A    between atoms: O_13  and  C_14
REMARK    8  A    between atoms: C_14  and  C_15
REMARK    9  A    between atoms: N_25  and  C_26
REMARK                            x       y       z     vdW  Elec       q    Type
REMARK                         _______ _______ _______ _____ _____    ______ ____
ROOT
ATOM      1  C   UNL     1      -3.433  -1.049  -1.176  0.00  0.00    +0.037 A 
ATOM      2  C   UNL     1      -4.111  -1.307   0.009  0.00  0.00    +0.023 A 
ATOM      3  C   UNL     1      -5.436  -1.694  -0.022  0.00  0.00    +0.005 A 
ATOM      4  C   UNL     1      -6.092  -1.826  -1.232  0.00  0.00    +0.046 A 
ATOM      5  C   UNL     1      -5.420  -1.571  -2.419  0.00  0.00    +0.123 A 
ATOM      6  C   UNL     1      -4.091  -1.176  -2.391  0.00  0.00    +0.069 A 
ENDROOT
BRANCH   1   9
ATOM      7  C   UNL     1      -1.256  -1.027  -2.136  0.00  0.00    +0.240 C 
ATOM      8  O   UNL     1      -1.644  -1.779  -3.006  0.00  0.00    -0.273 OA
ATOM      9  N   UNL     1      -2.090  -0.657  -1.144  0.00  0.00    -0.284 N 
ATOM     10  H   UNL     1      -1.759  -0.119  -0.408  0.00  0.00    +0.155 HD
BRANCH   7  12
ATOM     11  C   UNL     1       1.045  -1.394  -1.288  0.00  0.00    +0.041 C 
ATOM     12  C   UNL     1       0.158  -0.508  -2.165  0.00  0.00    +0.107 C 
ATOM     13  C   UNL     1       0.679  -0.529  -3.603  0.00  0.00    +0.041 C 
BRANCH  12  14
ATOM     14  N   UNL     1       0.184   0.866  -1.657  0.00  0.00    -0.286 N 
ATOM     15  C   UNL     1       1.350   1.538  -1.589  0.00  0.00    +0.300 C 
ATOM     16  O   UNL     1       2.381   1.004  -1.952  0.00  0.00    -0.253 OA
ATOM     17  N   UNL     1       1.374   2.801  -1.121  0.00  0.00    -0.302 N 
ATOM     18  C   UNL     1       2.642   3.531  -1.048  0.00  0.00    +0.129 C 
ATOM     19  H   UNL     1      -0.638   1.292  -1.368  0.00  0.00    +0.151 HD
ATOM     20  H   UNL     1       0.552   3.227  -0.833  0.00  0.00    +0.150 HD
ENDBRANCH  12  14
ENDBRANCH   7  12
ENDBRANCH   1   9
BRANCH   5  21
ATOM     21  O   UNL     1      -6.065  -1.702  -3.608  0.00  0.00    -0.487 OA
BRANCH  21  22
ATOM     22  C   UNL     1      -7.435  -2.106  -3.561  0.00  0.00    +0.264 C 
BRANCH  22  23
ATOM     23  C   UNL     1      -7.980  -2.197  -4.963  0.00  0.00    -0.010 A 
ATOM     24  C   UNL     1      -8.562  -1.089  -5.551  0.00  0.00    +0.010 A 
ATOM     25  C   UNL     1      -9.062  -1.171  -6.837  0.00  0.00    +0.039 A 
ATOM     26  C   UNL     1      -8.980  -2.364  -7.536  0.00  0.00    +0.123 A 
ATOM     27  C   UNL     1      -8.397  -3.473  -6.946  0.00  0.00    +0.039 A 
ATOM     28  C   UNL     1      -7.893  -3.386  -5.662  0.00  0.00    +0.010 A 
ATOM     29  F   UNL     1      -9.469  -2.445  -8.793  0.00  0.00    -0.205 F 
ENDBRANCH  22  23
ENDBRANCH  21  22
ENDBRANCH   5  21
TORSDOF 6
