REMARK  Name = ZINC12869704
REMARK  15 active torsions:
REMARK  status: ('A' for Active; 'I' for Inactive)
REMARK    1  A    between atoms: C_1  and  C_2
REMARK    2  A    between atoms: C_6  and  C_8
REMARK    3  A    between atoms: C_11  and  S_13
REMARK    4  A    between atoms: S_13  and  C_14
REMARK    5  A    between atoms: C_14  and  C_15
REMARK    6  A    between atoms: N_17  and  C_18
REMARK    7  A    between atoms: N_17  and  C_22
REMARK    8  A    between atoms: C_18  and  C_19
REMARK    9  A    between atoms: C_19  and  O_20
REMARK   10  A    between atoms: O_20  and  C_21
REMARK   11  A    between atoms: C_23  and  N_35
REMARK   12  A    between atoms: N_24  and  C_31
REMARK   13  A    between atoms: C_31  and  C_32
REMARK   14  A    between atoms: C_32  and  C_33
REMARK   15  A    between atoms: C_32  and  C_34
REMARK                            x       y       z     vdW  Elec       q    Type
REMARK                         _______ _______ _______ _____ _____    ______ ____
ROOT
ATOM      1  C   UNL     1      -0.518  11.577  -0.072  0.00  0.00    +0.230 C 
ATOM      2  O   UNL     1      -1.669  11.472   0.299  0.00  0.00    -0.274 OA
ATOM      3  N   UNL     1       0.039  12.798  -0.205  0.00  0.00    -0.261 N 
ENDROOT
BRANCH   3   4
ATOM      4  C   UNL     1      -0.743  13.956  -0.008  0.00  0.00    +0.140 A 
ATOM      5  C   UNL     1      -1.801  14.240  -0.847  0.00  0.00    +0.127 A 
ATOM      6  N   UNL     1      -2.545  15.376  -0.629  0.00  0.00    -0.280 N 
ATOM      7  C   UNL     1      -2.245  16.201   0.391  0.00  0.00    +0.331 A 
ATOM      8  O   UNL     1      -2.915  17.200   0.567  0.00  0.00    -0.246 OA
ATOM      9  N   UNL     1      -1.218  15.940   1.219  0.00  0.00    -0.273 N 
ATOM     10  H   UNL     1      -1.013  16.572   1.967  0.00  0.00    +0.173 HD
ATOM     11  C   UNL     1      -0.461  14.838   1.052  0.00  0.00    +0.277 A 
ATOM     12  O   UNL     1       0.466  14.609   1.811  0.00  0.00    -0.266 OA
BRANCH   5  13
ATOM     13  N   UNL     1      -2.107  13.398  -1.889  0.00  0.00    -0.343 N 
ATOM     14  H   UNL     1      -1.642  12.551  -1.981  0.00  0.00    +0.144 HD
ATOM     15  H   UNL     1      -2.788  13.650  -2.532  0.00  0.00    +0.144 HD
ENDBRANCH   5  13
BRANCH   6  16
ATOM     16  C   UNL     1      -3.671  15.690  -1.512  0.00  0.00    +0.131 C 
BRANCH  16  17
ATOM     17  C   UNL     1      -4.947  15.054  -0.956  0.00  0.00    +0.003 C 
ATOM     18  C   UNL     1      -6.144  15.483  -1.807  0.00  0.00    +0.009 C 
ATOM     19  C   UNL     1      -4.816  13.530  -0.993  0.00  0.00    +0.009 C 
ENDBRANCH  16  17
ENDBRANCH   6  16
ENDBRANCH   3   4
BRANCH   1  20
ATOM     20  C   UNL     1       0.288  10.342  -0.384  0.00  0.00    +0.175 C 
BRANCH  20  21
ATOM     21  S   UNL     1      -0.731   8.871  -0.111  0.00  0.00    -0.056 S 
BRANCH  21  25
ATOM     22  C   UNL     1       1.356   5.702  -0.918  0.00  0.00    +0.249 A 
ATOM     23  N   UNL     1       2.218   6.660  -1.161  0.00  0.00    -0.106 NA
ATOM     24  N   UNL     1       1.665   7.800  -0.935  0.00  0.00    -0.101 NA
ATOM     25  C   UNL     1       0.427   7.614  -0.538  0.00  0.00    +0.278 A 
ATOM     26  O   UNL     1       0.203   6.286  -0.524  0.00  0.00    -0.411 OA
BRANCH  22  32
ATOM     27  C   UNL     1       4.410   1.927  -2.067  0.00  0.00    +0.044 C 
ATOM     28  C   UNL     1       3.066   2.431  -1.608  0.00  0.00    -0.050 A 
ATOM     29  C   UNL     1       2.055   1.532  -1.316  0.00  0.00    +0.003 A 
ATOM     30  C   UNL     1       0.817   1.986  -0.900  0.00  0.00    +0.001 A 
ATOM     31  C   UNL     1       0.585   3.339  -0.763  0.00  0.00    +0.013 A 
ATOM     32  C   UNL     1       1.600   4.251  -1.056  0.00  0.00    +0.039 A 
ATOM     33  C   UNL     1       2.846   3.787  -1.481  0.00  0.00    +0.016 A 
ENDBRANCH  22  32
ENDBRANCH  21  25
ENDBRANCH  20  21
ENDBRANCH   1  20
BRANCH   3  34
ATOM     34  C   UNL     1       1.456  12.923  -0.555  0.00  0.00    +0.142 C 
BRANCH  34  35
ATOM     35  C   UNL     1       1.608  12.924  -2.078  0.00  0.00    +0.178 C 
BRANCH  35  36
ATOM     36  O   UNL     1       0.982  14.090  -2.618  0.00  0.00    -0.381 OA
ATOM     37  C   UNL     1       1.066  14.189  -4.041  0.00  0.00    +0.194 C 
ENDBRANCH  35  36
ENDBRANCH  34  35
ENDBRANCH   3  34
TORSDOF 11
