REMARK  Name = ZINC64062234
REMARK  5 active torsions:
REMARK  status: ('A' for Active; 'I' for Inactive)
REMARK    1  A    between atoms: C_1  and  C_2
REMARK    2  A    between atoms: C_5  and  N_9
REMARK    3  A    between atoms: C_10  and  O_34
REMARK    4  A    between atoms: C_13  and  O_33
REMARK    5  A    between atoms: C_14  and  C_18
REMARK                            x       y       z     vdW  Elec       q    Type
REMARK                         _______ _______ _______ _____ _____    ______ ____
ROOT
ATOM      1  N   UNL     1       0.068  -4.091   0.128  0.00  0.00    -0.225 N 
ATOM      2  C   UNL     1       0.002  -4.693  -1.195  0.00  0.00    +0.338 C 
ATOM      3  N   UNL     1      -0.424  -6.082  -1.144  0.00  0.00    -0.204 NA
ATOM      4  C   UNL     1      -0.355  -6.816  -0.102  0.00  0.00    +0.200 C 
ATOM      5  C   UNL     1       0.179  -6.320   1.210  0.00  0.00    +0.179 C 
ATOM      6  C   UNL     1       0.164  -4.818   1.249  0.00  0.00    +0.237 C 
ATOM      7  O   UNL     1       0.236  -4.252   2.319  0.00  0.00    -0.274 OA
ENDROOT
BRANCH   5   8
ATOM      8  C   UNL     1       1.618  -6.809   1.388  0.00  0.00    +0.101 C 
ATOM      9  C   UNL     1       2.131  -6.407   2.772  0.00  0.00    +0.124 C 
ATOM     10  C   UNL     1       3.610  -6.775   2.802  0.00  0.00    -0.036 C 
ATOM     11  C   UNL     1       3.784  -7.543   3.869  0.00  0.00    -0.001 A 
ATOM     12  C   UNL     1       4.993  -8.132   4.468  0.00  0.00    +0.010 A 
ATOM     13  C   UNL     1       4.802  -8.894   5.577  0.00  0.00    +0.001 A 
ATOM     14  C   UNL     1       3.545  -9.128   6.143  0.00  0.00    +0.002 A 
ATOM     15  C   UNL     1       2.381  -8.622   5.662  0.00  0.00    +0.026 A 
ATOM     16  C   UNL     1       2.454  -7.798   4.501  0.00  0.00    +0.043 A 
ATOM     17  N   UNL     1       1.497  -7.165   3.850  0.00  0.00    -0.376 N 
ATOM     18  C   UNL     1       4.553  -6.356   1.700  0.00  0.00    +0.048 C 
ATOM     19  C   UNL     1       3.850  -6.710   0.376  0.00  0.00    +0.085 C 
ATOM     20  N   UNL     1       2.482  -6.184   0.374  0.00  0.00    -0.310 NA
ATOM     21  H   UNL     1       2.070  -6.252  -0.544  0.00  0.00    +0.122 HD
ATOM     22  H   UNL     1       0.546  -7.195   4.039  0.00  0.00    +0.160 HD
ENDBRANCH   5   8
BRANCH   1  27
ATOM     23  C   UNL     1      -0.061   1.566   0.556  0.00  0.00    +0.045 C 
ATOM     24  C   UNL     1      -0.027   0.063   0.442  0.00  0.00    -0.032 A 
ATOM     25  C   UNL     1       1.171  -0.584   0.203  0.00  0.00    +0.006 A 
ATOM     26  C   UNL     1       1.206  -1.960   0.099  0.00  0.00    +0.024 A 
ATOM     27  C   UNL     1       0.036  -2.696   0.234  0.00  0.00    +0.042 A 
ATOM     28  C   UNL     1      -1.167  -2.044   0.474  0.00  0.00    +0.044 A 
ATOM     29  C   UNL     1      -1.194  -0.666   0.583  0.00  0.00    +0.046 A 
ATOM     30 CL   UNL     1      -2.696   0.149   0.890  0.00  0.00    -0.083 Cl
ENDBRANCH   1  27
BRANCH   4  31
ATOM     31  O   UNL     1      -0.781  -8.093  -0.184  0.00  0.00    -0.495 OA
ATOM     32  H   UNL     1      -1.111  -8.342  -1.058  0.00  0.00    +0.293 HD
ENDBRANCH   4  31
BRANCH   2  33
ATOM     33  O   UNL     1      -0.923  -3.954  -1.996  0.00  0.00    -0.356 OA
ATOM     34  H   UNL     1      -1.024  -4.294  -2.895  0.00  0.00    +0.214 HD
ENDBRANCH   2  33
TORSDOF 4
