REMARK  Name = ZINC04234539
REMARK  3 active torsions:
REMARK  status: ('A' for Active; 'I' for Inactive)
REMARK    1  A    between atoms: C_3  and  C_6
REMARK    2  A    between atoms: C_9  and  C_15
REMARK    3  A    between atoms: C_9  and  O_19
REMARK                            x       y       z     vdW  Elec       q    Type
REMARK                         _______ _______ _______ _____ _____    ______ ____
ROOT
ATOM      1  C   UNL     1      -0.013   1.086   0.008  0.00  0.00    +0.114 C 
ATOM      2  C   UNL     1       1.430   1.661  -0.003  0.00  0.00    +0.091 C 
ATOM      3  C   UNL     1       1.782   1.615   1.504  0.00  0.00    +0.248 C 
ATOM      4  N   UNL     1       0.490   1.537   2.205  0.00  0.00    -0.181 N 
ATOM      5  N   UNL     1      -0.536   1.603   1.298  0.00  0.00    -0.226 NA
ATOM      6  C   UNL     1       0.339   1.419   3.539  0.00  0.00    +0.316 C 
ATOM      7  O   UNL     1       1.317   1.369   4.260  0.00  0.00    -0.251 OA
ATOM      8  N   UNL     1      -0.897   1.356   4.074  0.00  0.00    -0.312 N 
ATOM      9  H   UNL     1      -0.871   2.550   1.199  0.00  0.00    +0.145 HD
ATOM     10  H   UNL     1      -1.677   1.396   3.499  0.00  0.00    +0.147 HD
ATOM     11  H   UNL     1      -1.006   1.271   5.034  0.00  0.00    +0.147 HD
ENDROOT
BRANCH   1  14
ATOM     12  C   UNL     1      -1.897   1.693  -3.247  0.00  0.00    +0.008 A 
ATOM     13  C   UNL     1      -1.141   1.005  -2.316  0.00  0.00    +0.013 A 
ATOM     14  C   UNL     1      -0.814   1.618  -1.152  0.00  0.00    +0.008 A 
ATOM     15  S   UNL     1      -1.572   3.221  -1.353  0.00  0.00    -0.100 S 
ATOM     16  C   UNL     1      -2.280   2.964  -2.972  0.00  0.00    +0.045 A 
ENDBRANCH   1  14
BRANCH   3  17
ATOM     17  C   UNL     1       2.627   0.378   1.813  0.00  0.00    +0.437 C 
ATOM     18  F   UNL     1       3.811   0.425   1.068  0.00  0.00    -0.166 F 
ATOM     19  F   UNL     1       2.936   0.353   3.177  0.00  0.00    -0.166 F 
ATOM     20  F   UNL     1       1.909  -0.774   1.475  0.00  0.00    -0.166 F 
ENDBRANCH   3  17
BRANCH   3  21
ATOM     21  O   UNL     1       2.482   2.801   1.885  0.00  0.00    -0.363 OA
ATOM     22  H   UNL     1       2.729   2.829   2.819  0.00  0.00    +0.212 HD
ENDBRANCH   3  21
TORSDOF 3
