REMARK  Name = ZINC01092505
REMARK  5 active torsions:
REMARK  status: ('A' for Active; 'I' for Inactive)
REMARK    1  A    between atoms: C_7  and  C_20
REMARK    2  A    between atoms: N_9  and  C_10
REMARK    3  A    between atoms: C_10  and  C_11
REMARK    4  A    between atoms: C_14  and  N_17
REMARK    5  A    between atoms: N_27  and  C_30
REMARK                            x       y       z     vdW  Elec       q    Type
REMARK                         _______ _______ _______ _____ _____    ______ ____
ROOT
ATOM      1  C   UNL     1       1.034  -8.390   5.426  0.00  0.00    +0.001 A 
ATOM      2  C   UNL     1       0.986  -9.638   4.822  0.00  0.00    +0.002 A 
ATOM      3  C   UNL     1       1.020  -9.756   3.450  0.00  0.00    +0.026 A 
ATOM      4  C   UNL     1       1.104  -8.616   2.656  0.00  0.00    +0.050 A 
ATOM      5  C   UNL     1       1.154  -7.355   3.269  0.00  0.00    +0.007 A 
ATOM      6  C   UNL     1       1.118  -7.249   4.656  0.00  0.00    +0.010 A 
ATOM      7  C   UNL     1       1.239  -6.374   2.168  0.00  0.00    +0.001 A 
ATOM      8  C   UNL     1       1.228  -7.111   0.996  0.00  0.00    +0.095 A 
ATOM      9  N   UNL     1       1.155  -8.422   1.290  0.00  0.00    -0.342 N 
ENDROOT
BRANCH   7  10
ATOM     10  C   UNL     1       1.310  -4.971   2.286  0.00  0.00    +0.028 C 
ATOM     11  C   UNL     1       2.223  -4.256   1.523  0.00  0.00    +0.102 C 
ATOM     12  C   UNL     1       3.262  -4.936   0.729  0.00  0.00    +0.274 C 
ATOM     13  O   UNL     1       3.348  -6.150   0.721  0.00  0.00    -0.268 OA
ATOM     14  N   UNL     1       4.115  -4.177   0.011  0.00  0.00    -0.153 NA
ATOM     15  C   UNL     1       4.028  -2.839   0.006  0.00  0.00    +0.171 C 
ATOM     16  S   UNL     1       5.149  -1.958  -0.941  0.00  0.00    -0.016 S 
ATOM     17  N   UNL     1       3.113  -2.155   0.707  0.00  0.00    -0.213 N 
ATOM     18  C   UNL     1       2.196  -2.784   1.471  0.00  0.00    +0.262 C 
ATOM     19  O   UNL     1       1.367  -2.152   2.099  0.00  0.00    -0.269 OA
BRANCH  17  20
ATOM     20  C   UNL     1       3.107  -0.755   0.642  0.00  0.00    +0.078 A 
ATOM     21  C   UNL     1       3.851  -0.013   1.548  0.00  0.00    +0.027 A 
ATOM     22  C   UNL     1       3.842   1.367   1.481  0.00  0.00    +0.002 A 
ATOM     23  C   UNL     1       3.093   2.010   0.513  0.00  0.00    +0.003 A 
ATOM     24  C   UNL     1       2.350   1.275  -0.392  0.00  0.00    +0.040 A 
ATOM     25  C   UNL     1       2.354  -0.107  -0.331  0.00  0.00    +0.145 A 
ATOM     26  F   UNL     1       1.628  -0.825  -1.216  0.00  0.00    -0.204 F 
ENDBRANCH  17  20
ENDBRANCH   7  10
BRANCH   9  27
ATOM     27  C   UNL     1       1.126  -9.498   0.295  0.00  0.00    +0.157 C 
BRANCH  27  28
ATOM     28  C   UNL     1      -0.304  -9.874   0.004  0.00  0.00    -0.028 A 
ATOM     29  C   UNL     1      -0.923 -10.864   0.744  0.00  0.00    +0.007 A 
ATOM     30  C   UNL     1      -2.236 -11.206   0.480  0.00  0.00    +0.033 A 
ATOM     31  C   UNL     1      -2.927 -10.565  -0.532  0.00  0.00    +0.126 A 
ATOM     32  C   UNL     1      -2.306  -9.579  -1.276  0.00  0.00    +0.033 A 
ATOM     33  C   UNL     1      -0.995  -9.234  -1.008  0.00  0.00    +0.007 A 
BRANCH  31  34
ATOM     34  N   UNL     1      -4.331 -10.935  -0.818  0.00  0.00    +0.056 N 
ATOM     35  O   UNL     1      -4.940 -10.371  -1.710  0.00  0.00    -0.126 OA
ATOM     36  O   UNL     1      -4.878 -11.804  -0.162  0.00  0.00    -0.126 OA
ENDBRANCH  31  34
ENDBRANCH  27  28
ENDBRANCH   9  27
TORSDOF 5
