REMARK  Name = ZINC00558002
REMARK  5 active torsions:
REMARK  status: ('A' for Active; 'I' for Inactive)
REMARK    1  A    between atoms: C_1  and  C_2
REMARK    2  A    between atoms: C_5  and  C_9
REMARK    3  A    between atoms: C_6  and  C_8
REMARK    4  A    between atoms: N_11  and  C_12
REMARK    5  A    between atoms: C_14  and  N_19
REMARK                            x       y       z     vdW  Elec       q    Type
REMARK                         _______ _______ _______ _____ _____    ______ ____
ROOT
ATOM      1  C   UNL     1      -1.199   1.545  -0.097  0.00  0.00    +0.249 C 
ATOM      2  O   UNL     1      -1.256   2.752  -0.234  0.00  0.00    -0.270 OA
ATOM      3  N   UNL     1      -0.003   0.924  -0.089  0.00  0.00    -0.280 N 
ATOM      4  H   UNL     1       0.040  -0.045  -0.056  0.00  0.00    +0.155 HD
ENDROOT
BRANCH   1   9
ATOM      5  C   UNL     1      -6.035  -1.512   0.523  0.00  0.00    +0.044 C 
ATOM      6  C   UNL     1      -4.768  -0.712   0.360  0.00  0.00    -0.050 A 
ATOM      7  C   UNL     1      -3.539  -1.343   0.436  0.00  0.00    +0.004 A 
ATOM      8  C   UNL     1      -2.377  -0.617   0.288  0.00  0.00    +0.013 A 
ATOM      9  C   UNL     1      -2.441   0.759   0.062  0.00  0.00    +0.040 A 
ATOM     10  C   UNL     1      -3.684   1.391  -0.009  0.00  0.00    -0.038 A 
ATOM     11  C   UNL     1      -4.840   0.651   0.136  0.00  0.00    +0.007 A 
ATOM     12  C   UNL     1      -3.763   2.877  -0.247  0.00  0.00    +0.044 C 
ENDBRANCH   1   9
BRANCH   3  13
ATOM     13  C   UNL     1       1.176   1.675  -0.134  0.00  0.00    +0.054 A 
ATOM     14  C   UNL     1       1.213   2.869  -0.842  0.00  0.00    +0.057 A 
ATOM     15  C   UNL     1       2.379   3.609  -0.884  0.00  0.00    +0.128 A 
ATOM     16  C   UNL     1       3.508   3.163  -0.221  0.00  0.00    +0.034 A 
ATOM     17  C   UNL     1       3.475   1.975   0.484  0.00  0.00    +0.024 A 
ATOM     18  C   UNL     1       2.310   1.232   0.535  0.00  0.00    +0.062 A 
ATOM     19 CL   UNL     1       2.267  -0.257   1.427  0.00  0.00    -0.082 Cl
BRANCH  15  20
ATOM     20  N   UNL     1       2.419   4.882  -1.638  0.00  0.00    +0.056 N 
ATOM     21  O   UNL     1       1.425   5.276  -2.222  0.00  0.00    -0.126 OA
ATOM     22  O   UNL     1       3.447   5.535  -1.676  0.00  0.00    -0.126 OA
ENDBRANCH  15  20
ENDBRANCH   3  13
TORSDOF 3
