REMARK  Name = ZINC20986814
REMARK  8 active torsions:
REMARK  status: ('A' for Active; 'I' for Inactive)
REMARK    1  A    between atoms: C_1  and  C_2
REMARK    2  A    between atoms: C_2  and  N_3
REMARK    3  A    between atoms: N_10  and  N_11
REMARK    4  A    between atoms: C_12  and  C_13
REMARK    5  A    between atoms: C_12  and  C_14
REMARK    6  A    between atoms: C_23  and  O_24
REMARK    7  A    between atoms: N_25  and  C_26
REMARK    8  A    between atoms: C_26  and  C_27
REMARK                            x       y       z     vdW  Elec       q    Type
REMARK                         _______ _______ _______ _____ _____    ______ ____
ROOT
ATOM      1  N   UNL     1      -1.372  -0.511   0.012  0.00  0.00    -0.314 N 
ATOM      2  C   UNL     1      -1.606  -1.871   0.007  0.00  0.00    +0.221 A 
ATOM      3  N   UNL     1      -2.853  -2.332   0.011  0.00  0.00    -0.181 NA
ATOM      4  C   UNL     1      -3.079  -3.642   0.006  0.00  0.00    +0.221 A 
ATOM      5  N   UNL     1      -2.057  -4.492  -0.002  0.00  0.00    -0.180 NA
ATOM      6  C   UNL     1      -0.809  -4.032  -0.006  0.00  0.00    +0.241 A 
ATOM      7  N   UNL     1      -0.584  -2.721  -0.007  0.00  0.00    -0.180 NA
ATOM      8  N   UNL     1       0.252  -4.915  -0.015  0.00  0.00    -0.205 N 
ATOM      9  N   UNL     1      -4.374  -4.119   0.011  0.00  0.00    -0.314 N 
ATOM     10  H   UNL     1      -2.118   0.109   0.023  0.00  0.00    +0.149 HD
ATOM     11  H   UNL     1       0.087  -5.871  -0.018  0.00  0.00    +0.177 HD
ATOM     12  H   UNL     1      -5.120  -3.499   0.018  0.00  0.00    +0.149 HD
ENDROOT
BRANCH   8  13
ATOM     13  N   UNL     1       1.566  -4.430  -0.019  0.00  0.00    -0.184 NA
ATOM     14  C   UNL     1       2.564  -5.260  -0.028  0.00  0.00    +0.067 C 
ATOM     15  C   UNL     1       2.309  -6.746  -0.033  0.00  0.00    +0.068 C 
BRANCH  14  16
ATOM     16  C   UNL     1       3.946  -4.751  -0.032  0.00  0.00    +0.039 A 
ATOM     17  C   UNL     1       5.025  -5.654  -0.047  0.00  0.00    +0.014 A 
ATOM     18  C   UNL     1       6.307  -5.209  -0.051  0.00  0.00    +0.009 A 
ATOM     19  C   UNL     1       6.576  -3.828  -0.040  0.00  0.00    -0.014 A 
ATOM     20  C   UNL     1       7.897  -3.348  -0.045  0.00  0.00    +0.008 A 
ATOM     21  C   UNL     1       8.127  -2.006  -0.035  0.00  0.00    +0.001 A 
ATOM     22  C   UNL     1       7.072  -1.097  -0.020  0.00  0.00    +0.001 A 
ATOM     23  C   UNL     1       5.779  -1.525  -0.015  0.00  0.00    +0.012 A 
ATOM     24  C   UNL     1       5.503  -2.902  -0.026  0.00  0.00    +0.024 A 
ATOM     25  C   UNL     1       4.178  -3.378  -0.027  0.00  0.00    +0.133 A 
BRANCH  25  26
ATOM     26  O   UNL     1       3.136  -2.508  -0.019  0.00  0.00    -0.506 OA
ATOM     27  H   UNL     1       2.839  -2.259   0.867  0.00  0.00    +0.292 HD
ENDBRANCH  25  26
ENDBRANCH  14  16
ENDBRANCH   8  13
BRANCH   1  29
ATOM     28  C   UNL     1      -0.019   1.526   0.010  0.00  0.00    +0.024 C 
ATOM     29  C   UNL     1       0.002  -0.004   0.002  0.00  0.00    +0.101 C 
ENDBRANCH   1  29
BRANCH   9  30
ATOM     30  C   UNL     1      -4.622  -5.563   0.006  0.00  0.00    +0.101 C 
ATOM     31  C   UNL     1      -6.130  -5.821   0.012  0.00  0.00    +0.024 C 
ENDBRANCH   9  30
TORSDOF 5
