REMARK  Name = ZINC39287739
REMARK  10 active torsions:
REMARK  status: ('A' for Active; 'I' for Inactive)
REMARK    1  A    between atoms: C_1  and  C_2
REMARK    2  A    between atoms: C_4  and  O_10
REMARK    3  A    between atoms: C_6  and  C_9
REMARK    4  A    between atoms: O_10  and  C_11
REMARK    5  A    between atoms: C_11  and  C_12
REMARK    6  A    between atoms: C_12  and  N_13
REMARK    7  A    between atoms: N_13  and  C_14
REMARK    8  A    between atoms: C_19  and  C_20
REMARK    9  A    between atoms: C_20  and  O_22
REMARK   10  A    between atoms: O_22  and  C_23
REMARK                            x       y       z     vdW  Elec       q    Type
REMARK                         _______ _______ _______ _____ _____    ______ ____
ROOT
ATOM      1  N   UNL     1       1.273  -4.352  -4.426  0.00  0.00    -0.340 N 
ATOM      2  H   UNL     1       1.940  -3.825  -3.959  0.00  0.00    +0.146 HD
ENDROOT
BRANCH   1   3
ATOM      3  C   UNL     1       1.512  -4.781  -5.725  0.00  0.00    +0.041 A 
ATOM      4  C   UNL     1       0.611  -5.630  -6.357  0.00  0.00    +0.025 A 
ATOM      5  C   UNL     1       0.850  -6.055  -7.647  0.00  0.00    +0.022 A 
ATOM      6  C   UNL     1       1.987  -5.640  -8.324  0.00  0.00    +0.042 A 
ATOM      7  C   UNL     1       2.892  -4.799  -7.714  0.00  0.00    +0.036 A 
ATOM      8  C   UNL     1       2.661  -4.355  -6.409  0.00  0.00    +0.081 A 
ATOM      9 CL   UNL     1       2.273  -6.185  -9.948  0.00  0.00    -0.084 Cl
BRANCH   8  10
ATOM     10  C   UNL     1       3.621  -3.450  -5.753  0.00  0.00    +0.341 C 
ATOM     11  O   UNL     1       3.473  -3.152  -4.584  0.00  0.00    -0.245 OA
BRANCH  10  12
ATOM     12  O   UNL     1       4.663  -2.953  -6.449  0.00  0.00    -0.464 OA
ATOM     13  C   UNL     1       5.554  -2.082  -5.750  0.00  0.00    +0.280 C 
ENDBRANCH  10  12
ENDBRANCH   8  10
ENDBRANCH   1   3
BRANCH   1  14
ATOM     14  C   UNL     1       0.015  -4.697  -3.760  0.00  0.00    +0.142 C 
BRANCH  14  15
ATOM     15  C   UNL     1       0.006  -4.107  -2.349  0.00  0.00    +0.247 C 
BRANCH  15  16
ATOM     16  O   UNL     1       0.013  -2.680  -2.429  0.00  0.00    -0.490 OA
BRANCH  16  20
ATOM     17  C   UNL     1       0.013   1.591  -0.067  0.00  0.00    +0.045 C 
ATOM     18  C   UNL     1       0.006   0.085  -0.063  0.00  0.00    -0.028 A 
ATOM     19  C   UNL     1       0.013  -0.609  -1.258  0.00  0.00    +0.050 A 
ATOM     20  C   UNL     1       0.007  -1.996  -1.254  0.00  0.00    +0.121 A 
ATOM     21  C   UNL     1      -0.006  -2.684  -0.050  0.00  0.00    +0.050 A 
ATOM     22  C   UNL     1      -0.013  -1.987   1.143  0.00  0.00    -0.028 A 
ATOM     23  C   UNL     1      -0.002  -0.604   1.137  0.00  0.00    +0.047 A 
ATOM     24 CL   UNL     1      -0.004   0.270   2.637  0.00  0.00    -0.083 Cl
ATOM     25  C   UNL     1      -0.028  -2.735   2.452  0.00  0.00    +0.045 C 
ENDBRANCH  16  20
ENDBRANCH  15  16
ENDBRANCH  14  15
ENDBRANCH   1  14
TORSDOF 7
