REMARK  Name = ZINC26477645
REMARK  6 active torsions:
REMARK  status: ('A' for Active; 'I' for Inactive)
REMARK    1  A    between atoms: C_4  and  S_11
REMARK    2  A    between atoms: C_6  and  C_7
REMARK    3  A    between atoms: S_11  and  C_12
REMARK    4  A    between atoms: C_12  and  C_13
REMARK    5  A    between atoms: N_15  and  C_16
REMARK    6  A    between atoms: C_17  and  C_25
REMARK                            x       y       z     vdW  Elec       q    Type
REMARK                         _______ _______ _______ _____ _____    ______ ____
ROOT
ATOM      1  C   UNL     1      -2.181   4.803   0.038  0.00  0.00    +0.228 C 
ATOM      2  O   UNL     1      -3.305   4.348   0.041  0.00  0.00    -0.275 OA
ATOM      3  N   UNL     1      -1.996   6.138   0.045  0.00  0.00    -0.279 N 
ATOM      4  H   UNL     1      -0.976   6.552   0.042  0.00  0.00    +0.155 HD
ENDROOT
BRANCH   3   5
ATOM      5  C   UNL     1      -3.090   6.990   0.055  0.00  0.00    +0.084 A 
ATOM      6  C   UNL     1      -3.102   8.378   0.068  0.00  0.00    +0.068 A 
ATOM      7  C   UNL     1      -4.396   9.038   0.071  0.00  0.00    -0.023 A 
ATOM      8  C   UNL     1      -5.464   8.211   0.073  0.00  0.00    -0.004 A 
ATOM      9  S   UNL     1      -4.773   6.581   0.061  0.00  0.00    -0.077 S 
ATOM     10  C   UNL     1      -6.909   8.602   0.083  0.00  0.00    +0.043 C 
ATOM     11  C   UNL     1      -7.006  10.085   0.469  0.00  0.00    +0.005 C 
ATOM     12  C   UNL     1      -6.001  10.880  -0.369  0.00  0.00    +0.005 C 
ATOM     13  C   UNL     1      -4.575  10.552   0.079  0.00  0.00    +0.037 C 
BRANCH   6  14
ATOM     14  C   UNL     1      -1.855   9.149   0.073  0.00  0.00    +0.244 C 
ATOM     15  O   UNL     1      -1.339   9.480  -0.978  0.00  0.00    -0.270 OA
ATOM     16  N   UNL     1      -1.280   9.492   1.243  0.00  0.00    -0.325 N 
ATOM     17  H   UNL     1      -0.344  10.070   1.248  0.00  0.00    +0.145 HD
ATOM     18  H   UNL     1      -1.746   9.193   2.194  0.00  0.00    +0.145 HD
ENDBRANCH   6  14
ENDBRANCH   3   5
BRANCH   1  19
ATOM     19  C   UNL     1      -0.992   3.877   0.028  0.00  0.00    +0.173 C 
BRANCH  19  20
ATOM     20  S   UNL     1      -1.565   2.160   0.021  0.00  0.00    -0.077 S 
BRANCH  20  24
ATOM     21  C   UNL     1       2.338   0.046  -0.020  0.00  0.00    +0.052 A 
ATOM     22  C   UNL     1       2.283   1.431  -0.012  0.00  0.00    +0.116 A 
ATOM     23  N   UNL     1       1.104   2.030   0.002  0.00  0.00    -0.230 NA
ATOM     24  C   UNL     1      -0.016   1.321   0.009  0.00  0.00    +0.189 A 
ATOM     25  N   UNL     1       0.002  -0.004   0.002  0.00  0.00    -0.218 NA
ATOM     26  C   UNL     1       1.148  -0.665  -0.013  0.00  0.00    +0.148 A 
BRANCH  26  27
ATOM     27  C   UNL     1       1.159  -2.171  -0.021  0.00  0.00    +0.434 C 
ATOM     28  F   UNL     1      -0.152  -2.647  -0.127  0.00  0.00    -0.164 F 
ATOM     29  F   UNL     1       1.909  -2.626  -1.111  0.00  0.00    -0.164 F 
ATOM     30  F   UNL     1       1.732  -2.640   1.166  0.00  0.00    -0.164 F 
ENDBRANCH  26  27
ENDBRANCH  20  24
ENDBRANCH  19  20
ENDBRANCH   1  19
TORSDOF 6
