REMARK  Name = ZINC64428214
REMARK  4 active torsions:
REMARK  status: ('A' for Active; 'I' for Inactive)
REMARK    1  A    between atoms: N_8  and  C_12
REMARK    2  A    between atoms: C_12  and  C_13
REMARK    3  A    between atoms: N_15  and  N_16
REMARK    4  A    between atoms: N_19  and  C_20
REMARK                            x       y       z     vdW  Elec       q    Type
REMARK                         _______ _______ _______ _____ _____    ______ ____
ROOT
ATOM      1  C   UNL     1       1.853  -3.572  -2.464  0.00  0.00    +0.215 C 
ENDROOT
BRANCH   1   9
ATOM      2  C   UNL     1      -0.019   1.541   0.011  0.00  0.00    +0.003 C 
ATOM      3  C   UNL     1       1.478   1.942  -0.002  0.00  0.00    +0.003 C 
ATOM      4  C   UNL     1       2.113   0.877  -0.934  0.00  0.00    +0.035 C 
ATOM      5  C   UNL     1       1.349  -0.411  -0.599  0.00  0.00    +0.113 C 
ATOM      6  C   UNL     1       0.002  -0.004   0.002  0.00  0.00    +0.035 C 
ATOM      7  C   UNL     1       1.165  -1.266  -1.827  0.00  0.00    +0.247 C 
ATOM      8  O   UNL     1       0.587  -0.969  -2.850  0.00  0.00    -0.273 OA
ATOM      9  N   UNL     1       1.782  -2.434  -1.544  0.00  0.00    -0.215 N 
ATOM     10  C   UNL     1       2.321  -2.422  -0.318  0.00  0.00    +0.310 C 
ATOM     11  O   UNL     1       2.928  -3.358   0.163  0.00  0.00    -0.252 OA
ATOM     12  N   UNL     1       2.113  -1.254   0.323  0.00  0.00    -0.285 N 
ATOM     13  H   UNL     1       2.410  -1.019   1.216  0.00  0.00    +0.151 HD
ENDBRANCH   1   9
BRANCH   1  14
ATOM     14  C   UNL     1       3.090  -3.451  -3.317  0.00  0.00    +0.247 C 
ATOM     15  O   UNL     1       3.838  -2.508  -3.170  0.00  0.00    -0.273 OA
ATOM     16  N   UNL     1       3.365  -4.392  -4.242  0.00  0.00    -0.232 N 
ATOM     17  H   UNL     1       2.767  -5.146  -4.359  0.00  0.00    +0.173 HD
BRANCH  16  18
ATOM     18  N   UNL     1       4.515  -4.280  -5.035  0.00  0.00    -0.218 N 
ATOM     19  C   UNL     1       4.789  -5.221  -5.960  0.00  0.00    +0.316 C 
ATOM     20  O   UNL     1       5.787  -5.124  -6.648  0.00  0.00    -0.251 OA
ATOM     21  N   UNL     1       3.958  -6.269  -6.122  0.00  0.00    -0.295 N 
ATOM     22  H   UNL     1       5.113  -3.526  -4.918  0.00  0.00    +0.174 HD
ATOM     23  H   UNL     1       3.162  -6.347  -5.574  0.00  0.00    +0.151 HD
BRANCH  21  24
ATOM     24  C   UNL     1       4.256  -7.292  -7.128  0.00  0.00    +0.075 C 
ATOM     25  C   UNL     1       3.099  -7.787  -7.997  0.00  0.00    +0.024 C 
ATOM     26  C   UNL     1       3.677  -8.691  -6.907  0.00  0.00    +0.024 C 
ENDBRANCH  21  24
ENDBRANCH  16  18
ENDBRANCH   1  14
TORSDOF 4
