REMARK  Name = ZINC15084915
REMARK  4 active torsions:
REMARK  status: ('A' for Active; 'I' for Inactive)
REMARK    1  A    between atoms: C_1  and  C_2
REMARK    2  A    between atoms: C_12  and  O_16
REMARK    3  A    between atoms: O_16  and  C_17
REMARK    4  A    between atoms: C_23  and  C_25
REMARK                            x       y       z     vdW  Elec       q    Type
REMARK                         _______ _______ _______ _____ _____    ______ ____
ROOT
ATOM      1  C   UNL     1       0.491   1.756  -0.289  0.00  0.00    +0.068 C 
ATOM      2  C   UNL     1       0.554   0.257  -0.152  0.00  0.00    +0.067 A 
ATOM      3  C   UNL     1       0.229  -0.674  -1.163  0.00  0.00    +0.033 A 
ATOM      4  C   UNL     1       0.413  -1.913  -0.657  0.00  0.00    +0.136 A 
ATOM      5  N   UNL     1       0.842  -1.757   0.645  0.00  0.00    -0.193 N 
ATOM      6  N   UNL     1       0.922  -0.391   0.916  0.00  0.00    -0.168 NA
ATOM      7  C   UNL     1       1.146  -2.784   1.532  0.00  0.00    +0.196 A 
ATOM      8  N   UNL     1       1.101  -4.080   1.337  0.00  0.00    -0.221 NA
ATOM      9  C   UNL     1       1.427  -4.971   2.298  0.00  0.00    +0.081 A 
ATOM     10  C   UNL     1       1.421  -6.383   2.217  0.00  0.00    +0.032 A 
ATOM     11  C   UNL     1       1.780  -7.146   3.284  0.00  0.00    +0.048 A 
ATOM     12  C   UNL     1       2.165  -6.573   4.493  0.00  0.00    +0.121 A 
ATOM     13  C   UNL     1       2.184  -5.191   4.612  0.00  0.00    +0.063 A 
ATOM     14  C   UNL     1       1.823  -4.418   3.537  0.00  0.00    +0.044 A 
ATOM     15  S   UNL     1       1.705  -2.672   3.226  0.00  0.00    -0.048 S 
ATOM     16  N   UNL     1       0.252  -3.161  -1.207  0.00  0.00    -0.269 N 
ATOM     17  C   UNL     1      -0.168  -3.613  -2.350  0.00  0.00    +0.228 C 
ATOM     18  O   UNL     1      -0.261  -4.820  -2.418  0.00  0.00    -0.275 OA
ATOM     19  C   UNL     1      -0.550  -2.890  -3.581  0.00  0.00    +0.166 C 
ATOM     20  S   UNL     1      -1.432  -1.358  -3.250  0.00  0.00    -0.138 S 
ATOM     21  C   UNL     1      -0.230  -0.243  -2.520  0.00  0.00    +0.112 C 
ATOM     22  H   UNL     1       0.513  -3.871  -0.600  0.00  0.00    +0.156 HD
ENDROOT
BRANCH  21  23
ATOM     23  C   UNL     1      -0.848   1.128  -2.409  0.00  0.00    -0.030 A 
ATOM     24  C   UNL     1      -2.050   1.292  -1.747  0.00  0.00    +0.008 A 
ATOM     25  C   UNL     1      -2.617   2.548  -1.644  0.00  0.00    +0.038 A 
ATOM     26  C   UNL     1      -1.980   3.642  -2.204  0.00  0.00    +0.123 A 
ATOM     27  C   UNL     1      -0.776   3.477  -2.867  0.00  0.00    +0.038 A 
ATOM     28  C   UNL     1      -0.208   2.220  -2.964  0.00  0.00    +0.008 A 
ATOM     29  F   UNL     1      -2.534   4.871  -2.105  0.00  0.00    -0.205 F 
ENDBRANCH  21  23
BRANCH  12  30
ATOM     30  O   UNL     1       2.518  -7.359   5.545  0.00  0.00    -0.495 OA
ATOM     31  C   UNL     1       2.471  -8.773   5.343  0.00  0.00    +0.277 C 
ENDBRANCH  12  30
TORSDOF 2
