REMARK  Name = ZINC18201182
REMARK  1 active torsions:
REMARK  status: ('A' for Active; 'I' for Inactive)
REMARK    1  A    between atoms: C_11  and  C_24
REMARK                            x       y       z     vdW  Elec       q    Type
REMARK                         _______ _______ _______ _____ _____    ______ ____
ROOT
ATOM      1  C   UNL     1       0.352   7.861  -1.145  0.00  0.00    +0.001 A 
ATOM      2  C   UNL     1      -0.989   8.080  -1.353  0.00  0.00    +0.001 A 
ATOM      3  C   UNL     1      -1.933   7.056  -1.218  0.00  0.00    +0.012 A 
ATOM      4  C   UNL     1      -1.455   5.809  -0.866  0.00  0.00    +0.031 A 
ATOM      5  C   UNL     1      -0.072   5.579  -0.653  0.00  0.00    +0.007 A 
ATOM      6  C   UNL     1       0.850   6.604  -0.789  0.00  0.00    +0.010 A 
ATOM      7  C   UNL     1       0.082   4.163  -0.300  0.00  0.00    +0.048 C 
ATOM      8  C   UNL     1      -1.153   3.566  -0.298  0.00  0.00    +0.037 C 
ATOM      9  C   UNL     1      -2.141   4.518  -0.638  0.00  0.00    +0.193 C 
ATOM     10  O   UNL     1      -3.336   4.313  -0.727  0.00  0.00    -0.287 OA
ATOM     11  C   UNL     1      -1.350   2.109   0.033  0.00  0.00    +0.129 C 
ATOM     12  C   UNL     1      -0.017   1.406   0.010  0.00  0.00    +0.070 A 
ATOM     13  C   UNL     1       1.165   2.079   0.002  0.00  0.00    +0.114 A 
ATOM     14  N   UNL     1       2.346   1.371  -0.005  0.00  0.00    -0.295 N 
ATOM     15  H   UNL     1       3.218   1.861  -0.006  0.00  0.00    +0.172 HD
ATOM     16  C   UNL     1       2.338   0.026  -0.010  0.00  0.00    +0.328 A 
ATOM     17  O   UNL     1       3.392  -0.580  -0.016  0.00  0.00    -0.247 OA
ATOM     18  N   UNL     1       1.179  -0.657  -0.008  0.00  0.00    -0.275 N 
ATOM     19  H   UNL     1       1.192  -1.657  -0.014  0.00  0.00    +0.173 HD
ATOM     20  C   UNL     1       0.002  -0.004   0.002  0.00  0.00    +0.260 A 
ATOM     21  O   UNL     1      -1.044  -0.630   0.004  0.00  0.00    -0.267 OA
ATOM     22  N   UNL     1       1.226   3.457  -0.005  0.00  0.00    -0.300 N 
ATOM     23  H   UNL     1       2.056   3.917   0.194  0.00  0.00    +0.154 HD
ENDROOT
BRANCH  11  24
ATOM     24  C   UNL     1      -2.266   1.483  -0.987  0.00  0.00    +0.117 A 
ATOM     25  C   UNL     1      -3.449   0.898  -0.728  0.00  0.00    +0.045 A 
ATOM     26  C   UNL     1      -3.965   0.451  -1.966  0.00  0.00    +0.041 A 
ATOM     27  C   UNL     1      -3.067   0.790  -2.908  0.00  0.00    +0.195 A 
ATOM     28  O   UNL     1      -2.043   1.420  -2.310  0.00  0.00    -0.467 OA
ENDBRANCH  11  24
TORSDOF 1
