REMARK  Name = ZINC19760715
REMARK  6 active torsions:
REMARK  status: ('A' for Active; 'I' for Inactive)
REMARK    1  A    between atoms: C_1  and  C_2
REMARK    2  A    between atoms: N_5  and  C_14
REMARK    3  A    between atoms: C_9  and  N_13
REMARK    4  A    between atoms: C_14  and  C_15
REMARK    5  A    between atoms: C_15  and  O_16
REMARK    6  A    between atoms: O_16  and  C_17
REMARK                            x       y       z     vdW  Elec       q    Type
REMARK                         _______ _______ _______ _____ _____    ______ ____
ROOT
ATOM      1  C   UNL     1       3.207   0.991   0.397  0.00  0.00    +0.053 C 
ATOM      2  C   UNL     1       2.791  -0.461   0.642  0.00  0.00    +0.188 C 
ATOM      3  C   UNL     1       1.596  -0.817  -0.251  0.00  0.00    +0.149 C 
ATOM      4  N   UNL     1       1.264  -2.232  -0.047  0.00  0.00    -0.320 N 
ATOM      5  C   UNL     1       1.139  -2.554   1.312  0.00  0.00    +0.072 A 
ATOM      6  C   UNL     1       0.438  -3.703   1.661  0.00  0.00    +0.028 A 
ATOM      7  C   UNL     1       0.301  -4.061   2.987  0.00  0.00    +0.025 A 
ATOM      8  C   UNL     1       0.864  -3.272   3.982  0.00  0.00    +0.028 A 
ATOM      9  C   UNL     1       1.562  -2.123   3.639  0.00  0.00    +0.070 A 
ATOM     10  C   UNL     1       1.699  -1.761   2.307  0.00  0.00    +0.144 A 
ATOM     11  O   UNL     1       2.385  -0.625   2.005  0.00  0.00    -0.486 OA
ENDROOT
BRANCH   8  12
ATOM     12  N   UNL     1       0.727  -3.635   5.327  0.00  0.00    -0.358 N 
ATOM     13  H   UNL     1       1.173  -3.009   6.114  0.00  0.00    +0.142 HD
ATOM     14  H   UNL     1       0.173  -4.546   5.597  0.00  0.00    +0.142 HD
ENDBRANCH   8  12
BRANCH   4  15
ATOM     15  C   UNL     1       0.050  -2.600  -0.789  0.00  0.00    +0.146 C 
BRANCH  15  16
ATOM     16  C   UNL     1       0.180  -2.137  -2.241  0.00  0.00    +0.248 C 
BRANCH  16  17
ATOM     17  O   UNL     1       1.270  -2.821  -2.864  0.00  0.00    -0.490 OA
BRANCH  17  18
ATOM     18  C   UNL     1       1.522  -2.523  -4.164  0.00  0.00    +0.128 A 
ATOM     19  C   UNL     1       0.752  -1.606  -4.822  0.00  0.00    +0.046 A 
ATOM     20  C   UNL     1       0.999  -1.289  -6.155  0.00  0.00    +0.004 A 
ATOM     21  C   UNL     1       2.013  -1.884  -6.842  0.00  0.00    +0.009 A 
ATOM     22  C   UNL     1       2.828  -2.833  -6.202  0.00  0.00    -0.014 A 
ATOM     23  C   UNL     1       2.585  -3.154  -4.843  0.00  0.00    +0.024 A 
ATOM     24  C   UNL     1       3.395  -4.106  -4.205  0.00  0.00    +0.012 A 
ATOM     25  C   UNL     1       4.409  -4.699  -4.894  0.00  0.00    +0.001 A 
ATOM     26  C   UNL     1       4.651  -4.380  -6.229  0.00  0.00    +0.001 A 
ATOM     27  C   UNL     1       3.883  -3.466  -6.881  0.00  0.00    +0.008 A 
ENDBRANCH  17  18
ENDBRANCH  16  17
ENDBRANCH  15  16
ENDBRANCH   4  15
TORSDOF 5
