REMARK  Name = ZINC45900846
REMARK  7 active torsions:
REMARK  status: ('A' for Active; 'I' for Inactive)
REMARK    1  A    between atoms: C_1  and  C_2
REMARK    2  A    between atoms: C_2  and  C_3
REMARK    3  A    between atoms: C_10  and  C_34
REMARK    4  A    between atoms: C_11  and  S_15
REMARK    5  A    between atoms: S_15  and  N_18
REMARK    6  A    between atoms: C_22  and  C_25
REMARK    7  A    between atoms: C_30  and  C_33
REMARK                            x       y       z     vdW  Elec       q    Type
REMARK                         _______ _______ _______ _____ _____    ______ ____
ROOT
ATOM      1  S   UNL     1       5.977  -0.271   2.280  0.00  0.00    +0.061 S 
ATOM      2  O   UNL     1       7.208  -0.978   2.214  0.00  0.00    -0.153 OA
ATOM      3  O   UNL     1       5.850   1.079   1.855  0.00  0.00    -0.153 OA
ENDROOT
BRANCH   1  11
ATOM      4  C   UNL     1       3.978  -4.724  -1.704  0.00  0.00    +0.259 C 
ATOM      5  C   UNL     1       2.498  -4.448  -1.612  0.00  0.00    +0.258 C 
ATOM      6  O   UNL     1       1.708  -5.166  -2.188  0.00  0.00    -0.271 OA
ATOM      7  N   UNL     1       2.057  -3.400  -0.886  0.00  0.00    -0.280 N 
ATOM      8  C   UNL     1       2.973  -2.660  -0.127  0.00  0.00    +0.076 A 
ATOM      9  C   UNL     1       2.603  -1.452   0.444  0.00  0.00    +0.032 A 
ATOM     10  C   UNL     1       3.522  -0.728   1.180  0.00  0.00    -0.022 A 
ATOM     11  C   UNL     1       4.810  -1.205   1.347  0.00  0.00    +0.112 A 
ATOM     12  C   UNL     1       5.184  -2.411   0.784  0.00  0.00    +0.076 A 
ATOM     13  C   UNL     1       4.267  -3.145   0.051  0.00  0.00    +0.145 A 
ATOM     14  O   UNL     1       4.614  -4.347  -0.481  0.00  0.00    -0.478 OA
ATOM     15  C   UNL     1       3.121   0.584   1.802  0.00  0.00    +0.046 C 
ATOM     16  H   UNL     1       1.117  -3.161  -0.891  0.00  0.00    +0.155 HD
BRANCH   4  18
ATOM     17  C   UNL     1       6.049  -4.291  -3.033  0.00  0.00    +0.008 C 
ATOM     18  C   UNL     1       4.576  -3.917  -2.858  0.00  0.00    +0.051 C 
ENDBRANCH   4  18
ENDBRANCH   1  11
BRANCH   1  19
ATOM     19  N   UNL     1       5.489  -0.317   3.861  0.00  0.00    -0.176 NA
ATOM     20  C   UNL     1       4.644   0.750   4.416  0.00  0.00    +0.109 C 
ATOM     21  C   UNL     1       3.404   0.116   5.053  0.00  0.00    +0.018 C 
ATOM     22  C   UNL     1       3.841  -0.935   6.076  0.00  0.00    +0.015 C 
ATOM     23  C   UNL     1       4.638  -2.035   5.371  0.00  0.00    +0.091 C 
ATOM     24  C   UNL     1       5.888  -1.429   4.736  0.00  0.00    +0.122 C 
BRANCH  23  25
ATOM     25  C   UNL     1       5.040  -3.087   6.373  0.00  0.00    +0.223 C 
ATOM     26  O   UNL     1       6.213  -3.328   6.561  0.00  0.00    -0.275 OA
ATOM     27  N   UNL     1       4.095  -3.759   7.060  0.00  0.00    -0.264 N 
ATOM     28  C   UNL     1       4.466  -4.728   7.985  0.00  0.00    +0.165 A 
ATOM     29  N   UNL     1       3.691  -5.480   8.736  0.00  0.00    -0.230 NA
ATOM     30  C   UNL     1       4.201  -6.364   9.573  0.00  0.00    +0.047 A 
ATOM     31  C   UNL     1       5.553  -6.458   9.621  0.00  0.00    +0.071 A 
ATOM     32  S   UNL     1       6.015  -5.230   8.410  0.00  0.00    -0.060 S 
ATOM     33  C   UNL     1       3.321  -7.230  10.437  0.00  0.00    +0.066 C 
ATOM     34  H   UNL     1       3.156  -3.566   6.910  0.00  0.00    +0.157 HD
ENDBRANCH  23  25
ENDBRANCH   1  19
TORSDOF 4
