REMARK  Name = ZINC01246321
REMARK  5 active torsions:
REMARK  status: ('A' for Active; 'I' for Inactive)
REMARK    1  A    between atoms: C_1  and  C_2
REMARK    2  A    between atoms: C_3  and  N_9
REMARK    3  A    between atoms: C_15  and  C_17
REMARK    4  A    between atoms: C_17  and  N_47
REMARK    5  A    between atoms: C_22  and  C_24
REMARK                            x       y       z     vdW  Elec       q    Type
REMARK                         _______ _______ _______ _____ _____    ______ ____
ROOT
ATOM      1  N   UNL     1       3.849   2.912  -2.341  0.00  0.00    -0.212 NA
ATOM      2  C   UNL     1       3.232   2.720  -1.186  0.00  0.00    +0.233 A 
ATOM      3  N   UNL     1       3.895   2.937   0.005  0.00  0.00    -0.297 N 
ATOM      4  H   UNL     1       4.819   3.232   0.010  0.00  0.00    +0.171 HD
ATOM      5  C   UNL     1       3.226   2.728   1.176  0.00  0.00    +0.194 A 
ATOM      6  N   UNL     1       1.964   2.329   1.146  0.00  0.00    -0.203 NA
ATOM      7  C   UNL     1       1.343   2.119  -0.008  0.00  0.00    +0.120 A 
ATOM      8  N   UNL     1       1.954   2.310  -1.157  0.00  0.00    -0.199 NA
ATOM      9  N   UNL     1       3.853   2.934   2.371  0.00  0.00    -0.329 N 
ATOM     10  H   UNL     1       4.776   3.230   2.390  0.00  0.00    +0.145 HD
ATOM     11  H   UNL     1       3.375   2.785   3.202  0.00  0.00    +0.145 HD
ENDROOT
BRANCH   1  14
ATOM     12  C   UNL     1       4.118   0.240  -3.273  0.00  0.00    +0.047 C 
ATOM     13  C   UNL     1       3.324   1.283  -4.017  0.00  0.00    -0.007 A 
ATOM     14  C   UNL     1       3.226   2.582  -3.511  0.00  0.00    +0.072 A 
ATOM     15  C   UNL     1       2.482   3.540  -4.205  0.00  0.00    +0.028 A 
ATOM     16  C   UNL     1       1.860   3.202  -5.389  0.00  0.00    +0.004 A 
ATOM     17  C   UNL     1       1.961   1.914  -5.884  0.00  0.00    +0.020 A 
ATOM     18  C   UNL     1       2.691   0.957  -5.199  0.00  0.00    +0.046 A 
ATOM     19 CL   UNL     1       2.812  -0.656  -5.830  0.00  0.00    -0.083 Cl
ENDBRANCH   1  14
BRANCH   7  20
ATOM     20  C   UNL     1      -0.092   1.660  -0.002  0.00  0.00    -0.001 C 
BRANCH  20  27
ATOM     21  C   UNL     1       0.806  -0.358   0.989  0.00  0.00    -0.078 C 
ATOM     22  C   UNL     1       0.840  -1.883   0.868  0.00  0.00    -0.019 C 
ATOM     23  C   UNL     1      -0.565  -2.441   1.113  0.00  0.00    -0.003 C 
ATOM     24  C   UNL     1      -1.536  -1.817   0.107  0.00  0.00    -0.016 C 
ATOM     25  C   UNL     1      -1.501  -0.293   0.250  0.00  0.00    -0.071 C 
ATOM     26  C   UNL     1      -2.455   0.336  -0.767  0.00  0.00    -0.013 C 
ATOM     27  N   UNL     1      -0.128   0.183  -0.022  0.00  0.00    +0.386 N 
ATOM     28  H   UNL     1       0.161  -0.145  -0.951  0.00  0.00    -0.081 HD
ENDBRANCH  20  27
ENDBRANCH   7  20
TORSDOF 3
