REMARK  Name = ZINC42190770
REMARK  3 active torsions:
REMARK  status: ('A' for Active; 'I' for Inactive)
REMARK    1  A    between atoms: C_8  and  O_23
REMARK    2  A    between atoms: C_10  and  N_12
REMARK    3  A    between atoms: C_13  and  C_15
REMARK                            x       y       z     vdW  Elec       q    Type
REMARK                         _______ _______ _______ _____ _____    ______ ____
ROOT
ATOM      1  N   UNL     1       4.577  -0.496  -0.997  0.00  0.00    -0.301 N 
ATOM      2  C   UNL     1       5.524   0.384  -0.617  0.00  0.00    +0.264 C 
ATOM      3  O   UNL     1       5.538   0.808   0.522  0.00  0.00    -0.268 OA
ATOM      4  H   UNL     1       4.566  -0.835  -1.906  0.00  0.00    +0.150 HD
ENDROOT
BRANCH   1  13
ATOM      5  C   UNL     1      -0.017   1.377   0.010  0.00  0.00    +0.000 A 
ATOM      6  C   UNL     1       1.172   2.083   0.002  0.00  0.00    +0.000 A 
ATOM      7  C   UNL     1       2.376   1.406  -0.013  0.00  0.00    +0.006 A 
ATOM      8  C   UNL     1       2.396   0.021  -0.021  0.00  0.00    -0.021 A 
ATOM      9  C   UNL     1       1.208  -0.685  -0.013  0.00  0.00    -0.040 A 
ATOM     10  C   UNL     1       0.002  -0.004   0.002  0.00  0.00    +0.004 A 
ATOM     11  C   UNL     1       1.496  -2.171  -0.025  0.00  0.00    +0.069 C 
ATOM     12  C   UNL     1       2.966  -2.294  -0.480  0.00  0.00    +0.143 C 
ATOM     13  C   UNL     1       3.564  -0.942  -0.037  0.00  0.00    +0.133 C 
BRANCH  12  14
ATOM     14  O   UNL     1       3.613  -3.382   0.184  0.00  0.00    -0.389 OA
ATOM     15  H   UNL     1       3.217  -4.245   0.002  0.00  0.00    +0.210 HD
ENDBRANCH  12  14
ENDBRANCH   1  13
BRANCH   2  16
ATOM     16  C   UNL     1       6.545   0.833  -1.584  0.00  0.00    +0.141 A 
ATOM     17  C   UNL     1       7.516   1.731  -1.187  0.00  0.00    +0.119 A 
ATOM     18  N   UNL     1       8.451   2.144  -2.067  0.00  0.00    -0.326 N 
ATOM     19  H   UNL     1       9.135   2.774  -1.793  0.00  0.00    +0.168 HD
ATOM     20  C   UNL     1       8.425   1.672  -3.331  0.00  0.00    +0.267 A 
ATOM     21  O   UNL     1       9.262   2.035  -4.139  0.00  0.00    -0.266 OA
ATOM     22  C   UNL     1       7.416   0.751  -3.711  0.00  0.00    +0.181 A 
ATOM     23  N   UNL     1       6.525   0.361  -2.840  0.00  0.00    -0.244 NA
ENDBRANCH   2  16
TORSDOF 3
