REMARK  Name = ZINC46810472
REMARK  5 active torsions:
REMARK  status: ('A' for Active; 'I' for Inactive)
REMARK    1  A    between atoms: C_3  and  C_24
REMARK    2  A    between atoms: C_6  and  C_7
REMARK    3  A    between atoms: C_7  and  N_8
REMARK    4  A    between atoms: C_9  and  C_11
REMARK    5  A    between atoms: C_24  and  N_25
REMARK                            x       y       z     vdW  Elec       q    Type
REMARK                         _______ _______ _______ _____ _____    ______ ____
ROOT
ATOM      1  N   UNL     1      -1.726  -1.018  -1.368  0.00  0.00    -0.307 N 
ATOM      2  C   UNL     1      -2.867  -1.694  -1.606  0.00  0.00    +0.244 C 
ATOM      3  O   UNL     1      -3.536  -2.104  -0.678  0.00  0.00    -0.270 OA
ATOM      4  H   UNL     1      -1.192  -0.691  -2.108  0.00  0.00    +0.149 HD
ENDROOT
BRANCH   2   5
ATOM      5  C   UNL     1      -3.305  -1.940  -3.000  0.00  0.00    +0.039 A 
ATOM      6  C   UNL     1      -2.524  -1.469  -4.067  0.00  0.00    +0.014 A 
ATOM      7  C   UNL     1      -2.905  -1.682  -5.357  0.00  0.00    +0.016 A 
ATOM      8  C   UNL     1      -4.091  -2.379  -5.629  0.00  0.00    +0.065 A 
ATOM      9  C   UNL     1      -4.891  -2.860  -4.559  0.00  0.00    +0.080 A 
ATOM     10  C   UNL     1      -4.478  -2.636  -3.238  0.00  0.00    +0.041 A 
ATOM     11  N   UNL     1      -6.021  -3.525  -4.837  0.00  0.00    -0.223 NA
ATOM     12  C   UNL     1      -6.394  -3.733  -6.090  0.00  0.00    +0.180 A 
ATOM     13  N   UNL     1      -5.673  -3.299  -7.137  0.00  0.00    -0.301 N 
ATOM     14  H   UNL     1      -5.985  -3.475  -8.038  0.00  0.00    +0.171 HD
ATOM     15  C   UNL     1      -4.520  -2.620  -6.951  0.00  0.00    +0.260 A 
ATOM     16  O   UNL     1      -3.800  -2.186  -8.000  0.00  0.00    -0.267 OA
ATOM     17  S   UNL     1      -7.847  -4.588  -6.387  0.00  0.00    -0.011 S 
ENDBRANCH   2   5
BRANCH   1  18
ATOM     18  C   UNL     1      -1.293  -0.775   0.011  0.00  0.00    +0.139 C 
BRANCH  18  24
ATOM     19  C   UNL     1      -0.017   1.378   0.010  0.00  0.00    +0.005 A 
ATOM     20  C   UNL     1       1.171   2.086   0.002  0.00  0.00    +0.002 A 
ATOM     21  C   UNL     1       2.377   1.411  -0.013  0.00  0.00    -0.064 A 
ATOM     22  C   UNL     1       2.396   0.029  -0.020  0.00  0.00    +0.002 A 
ATOM     23  C   UNL     1       1.208  -0.679  -0.012  0.00  0.00    +0.005 A 
ATOM     24  C   UNL     1       0.002  -0.004   0.002  0.00  0.00    -0.030 A 
BRANCH  21  25
ATOM     25  C   UNL     1       3.672   2.182  -0.022  0.00  0.00    -0.043 C 
BRANCH  25  26
ATOM     26  N   UNL     1       4.106   2.426   1.360  0.00  0.00    +0.382 N 
ATOM     27  C   UNL     1       4.512   1.150   2.002  0.00  0.00    -0.078 C 
ATOM     28  C   UNL     1       5.433   1.612   3.159  0.00  0.00    -0.020 C 
ATOM     29  C   UNL     1       6.195   2.806   2.538  0.00  0.00    -0.020 C 
ATOM     30  C   UNL     1       5.311   3.284   1.372  0.00  0.00    -0.078 C 
ATOM     31  H   UNL     1       3.364   2.861   1.887  0.00  0.00    -0.081 HD
ENDBRANCH  25  26
ENDBRANCH  21  25
ENDBRANCH  18  24
ENDBRANCH   1  18
TORSDOF 5
