REMARK  Name = ZINC57763562
REMARK  13 active torsions:
REMARK  status: ('A' for Active; 'I' for Inactive)
REMARK    1  A    between atoms: C_1  and  C_2
REMARK    2  A    between atoms: C_2  and  C_3
REMARK    3  A    between atoms: C_3  and  N_4
REMARK    4  A    between atoms: C_5  and  N_36
REMARK    5  A    between atoms: C_6  and  C_13
REMARK    6  A    between atoms: C_13  and  C_15
REMARK    7  A    between atoms: C_15  and  N_16
REMARK    8  A    between atoms: N_16  and  C_17
REMARK    9  A    between atoms: N_16  and  C_18
REMARK   10  A    between atoms: C_18  and  C_20
REMARK   11  A    between atoms: C_18  and  C_21
REMARK   12  A    between atoms: C_25  and  N_27
REMARK   13  A    between atoms: C_28  and  C_30
REMARK                            x       y       z     vdW  Elec       q    Type
REMARK                         _______ _______ _______ _____ _____    ______ ____
ROOT
ATOM      1  N   UNL     1       4.242  -5.992   0.513  0.00  0.00    -0.291 NA
ATOM      2  C   UNL     1       4.177  -5.652   1.941  0.00  0.00    +0.106 C 
ENDROOT
BRANCH   1   3
ATOM      3  C   UNL     1       4.553  -7.415   0.324  0.00  0.00    +0.084 C 
ATOM      4  C   UNL     1       4.709  -7.709  -1.169  0.00  0.00    +0.029 C 
BRANCH   3   5
ATOM      5  C   UNL     1       5.838  -7.747   1.038  0.00  0.00    -0.029 A 
ATOM      6  C   UNL     1       6.893  -6.854   1.013  0.00  0.00    +0.005 A 
ATOM      7  C   UNL     1       8.073  -7.155   1.667  0.00  0.00    +0.002 A 
ATOM      8  C   UNL     1       8.202  -8.349   2.349  0.00  0.00    +0.023 A 
ATOM      9  C   UNL     1       7.144  -9.249   2.376  0.00  0.00    +0.034 A 
ATOM     10  C   UNL     1       5.958  -8.941   1.722  0.00  0.00    +0.028 A 
BRANCH   9  11
ATOM     11  N   UNL     1       7.271 -10.459   3.065  0.00  0.00    -0.281 N 
ATOM     12  C   UNL     1       7.987 -10.514   4.205  0.00  0.00    +0.248 C 
ATOM     13  O   UNL     1       8.590  -9.531   4.592  0.00  0.00    -0.270 OA
ATOM     14  H   UNL     1       6.843 -11.259   2.722  0.00  0.00    +0.155 HD
BRANCH  12  15
ATOM     15  C   UNL     1       8.041 -11.768   4.985  0.00  0.00    +0.037 A 
ATOM     16  C   UNL     1       7.355 -12.900   4.540  0.00  0.00    +0.013 A 
ATOM     17  C   UNL     1       7.409 -14.068   5.273  0.00  0.00    +0.001 A 
ATOM     18  C   UNL     1       8.141 -14.119   6.446  0.00  0.00    +0.000 A 
ATOM     19  C   UNL     1       8.823 -13.001   6.892  0.00  0.00    +0.001 A 
ATOM     20  C   UNL     1       8.783 -11.828   6.166  0.00  0.00    +0.013 A 
ENDBRANCH  12  15
ENDBRANCH   9  11
ENDBRANCH   3   5
ENDBRANCH   1   3
BRANCH   1  21
ATOM     21  C   UNL     1       2.993  -5.630  -0.171  0.00  0.00    +0.164 C 
BRANCH  21  22
ATOM     22  C   UNL     1       2.832  -4.132  -0.166  0.00  0.00    +0.185 C 
ATOM     23  O   UNL     1       3.676  -3.433   0.357  0.00  0.00    -0.290 OA
BRANCH  22  26
ATOM     24  N   UNL     1       0.470  -1.620  -1.469  0.00  0.00    -0.281 N 
ATOM     25  C   UNL     1       1.583  -2.145  -0.878  0.00  0.00    +0.116 A 
ATOM     26  C   UNL     1       1.701  -3.542  -0.768  0.00  0.00    +0.121 A 
ATOM     27  C   UNL     1       0.609  -4.366  -1.302  0.00  0.00    +0.266 A 
ATOM     28  O   UNL     1       0.657  -5.580  -1.234  0.00  0.00    -0.267 OA
ATOM     29  N   UNL     1      -0.449  -3.750  -1.868  0.00  0.00    -0.274 N 
ATOM     30  H   UNL     1      -1.178  -4.281  -2.225  0.00  0.00    +0.173 HD
ATOM     31  C   UNL     1      -0.508  -2.410  -1.940  0.00  0.00    +0.331 A 
ATOM     32  O   UNL     1      -1.481  -1.894  -2.454  0.00  0.00    -0.246 OA
BRANCH  25  33
ATOM     33  N   UNL     1       2.563  -1.329  -0.402  0.00  0.00    -0.344 N 
ATOM     34  H   UNL     1       2.511  -0.372  -0.549  0.00  0.00    +0.144 HD
ATOM     35  H   UNL     1       3.314  -1.705   0.084  0.00  0.00    +0.144 HD
ENDBRANCH  25  33
BRANCH  24  36
ATOM     36  C   UNL     1       0.338  -0.166  -1.588  0.00  0.00    +0.128 C 
BRANCH  36  38
ATOM     37  C   UNL     1      -0.500   1.904  -0.468  0.00  0.00    +0.005 C 
ATOM     38  C   UNL     1      -0.362   0.385  -0.344  0.00  0.00    +0.018 C 
ENDBRANCH  36  38
ENDBRANCH  24  36
ENDBRANCH  22  26
ENDBRANCH  21  22
ENDBRANCH   1  21
TORSDOF 10
