REMARK  Name = ZINC05020119
REMARK  9 active torsions:
REMARK  status: ('A' for Active; 'I' for Inactive)
REMARK    1  A    between atoms: C_1  and  C_2
REMARK    2  A    between atoms: C_3  and  C_25
REMARK    3  A    between atoms: C_4  and  C_16
REMARK    4  A    between atoms: C_6  and  C_14
REMARK    5  A    between atoms: C_7  and  S_9
REMARK    6  A    between atoms: S_9  and  C_10
REMARK    7  A    between atoms: C_10  and  C_11
REMARK    8  A    between atoms: C_20  and  N_22
REMARK    9  A    between atoms: C_25  and  C_27
REMARK                            x       y       z     vdW  Elec       q    Type
REMARK                         _______ _______ _______ _____ _____    ______ ____
ROOT
ATOM      1  C   UNL     1      -2.893   6.859  -2.256  0.00  0.00    +0.061 C 
ATOM      2  C   UNL     1      -2.128   6.352  -1.062  0.00  0.00    +0.013 C 
ATOM      3  C   UNL     1      -0.883   5.859  -1.230  0.00  0.00    +0.024 C 
ATOM      4  C   UNL     1      -0.081   5.332  -0.075  0.00  0.00    +0.097 C 
ATOM      5  C   UNL     1      -0.663   5.790   1.232  0.00  0.00    +0.069 C 
ATOM      6  C   UNL     1      -1.925   6.291   1.306  0.00  0.00    +0.080 C 
ATOM      7  N   UNL     1      -2.703   6.398   0.175  0.00  0.00    -0.312 N 
ATOM      8  H   UNL     1      -3.792   6.522   0.271  0.00  0.00    +0.152 HD
ENDROOT
BRANCH   4   9
ATOM      9  C   UNL     1      -0.080   3.826  -0.117  0.00  0.00    -0.033 A 
ATOM     10  C   UNL     1      -1.273   3.132  -0.044  0.00  0.00    +0.005 A 
ATOM     11  C   UNL     1      -1.273   1.750  -0.088  0.00  0.00    +0.003 A 
ATOM     12  C   UNL     1      -0.078   1.062  -0.195  0.00  0.00    +0.033 A 
ATOM     13  C   UNL     1       1.115   1.757  -0.268  0.00  0.00    +0.126 A 
ATOM     14  C   UNL     1       1.114   3.139  -0.229  0.00  0.00    +0.037 A 
BRANCH  13  15
ATOM     15  N   UNL     1       2.393   1.020  -0.389  0.00  0.00    +0.056 N 
ATOM     16  O   UNL     1       2.394  -0.197  -0.423  0.00  0.00    -0.126 OA
ATOM     17  O   UNL     1       3.445   1.632  -0.454  0.00  0.00    -0.126 OA
ENDBRANCH  13  15
ENDBRANCH   4   9
BRANCH   3  18
ATOM     18  C   UNL     1      -0.325   5.837  -2.518  0.00  0.00    +0.159 C 
ATOM     19  O   UNL     1      -0.998   6.157  -3.478  0.00  0.00    -0.293 OA
ATOM     20  C   UNL     1       1.109   5.416  -2.710  0.00  0.00    +0.091 C 
ENDBRANCH   3  18
BRANCH   5  21
ATOM     21  C   UNL     1       0.127   5.699   2.423  0.00  0.00    +0.098 C 
ATOM     22  N   UNL     1       0.753   5.626   3.368  0.00  0.00    -0.191 NA
ENDBRANCH   5  21
BRANCH   6  23
ATOM     23  S   UNL     1      -2.570   6.806   2.862  0.00  0.00    -0.100 S 
BRANCH  23  24
ATOM     24  C   UNL     1      -4.217   7.356   2.353  0.00  0.00    +0.171 C 
BRANCH  24  25
ATOM     25  C   UNL     1      -4.975   7.855   3.557  0.00  0.00    +0.221 C 
ATOM     26  O   UNL     1      -4.452   7.840   4.651  0.00  0.00    -0.275 OA
ATOM     27  N   UNL     1      -6.233   8.318   3.417  0.00  0.00    -0.329 N 
ATOM     28  H   UNL     1      -6.786   8.682   4.295  0.00  0.00    +0.145 HD
ATOM     29  H   UNL     1      -6.707   8.332   2.424  0.00  0.00    +0.145 HD
ENDBRANCH  24  25
ENDBRANCH  23  24
ENDBRANCH   6  23
TORSDOF 7
