REMARK  Name = ZINC06077463
REMARK  15 active torsions:
REMARK  status: ('A' for Active; 'I' for Inactive)
REMARK    1  A    between atoms: C_1  and  C_2
REMARK    2  A    between atoms: C_2  and  C_3
REMARK    3  A    between atoms: C_3  and  C_4
REMARK    4  A    between atoms: C_3  and  C_5
REMARK    5  A    between atoms: C_3  and  N_6
REMARK    6  A    between atoms: C_7  and  C_9
REMARK    7  A    between atoms: C_9  and  C_11
REMARK    8  A    between atoms: C_9  and  N_20
REMARK    9  A    between atoms: C_14  and  N_17
REMARK   10  A    between atoms: N_17  and  C_18
REMARK   11  A    between atoms: N_17  and  C_19
REMARK   12  A    between atoms: N_20  and  C_21
REMARK   13  A    between atoms: C_28  and  C_30
REMARK   14  A    between atoms: C_31  and  N_38
REMARK   15  A    between atoms: C_32  and  C_35
REMARK                            x       y       z     vdW  Elec       q    Type
REMARK                         _______ _______ _______ _____ _____    ______ ____
ROOT
ATOM      1  N   UNL     1      -5.953   2.688   0.025  0.00  0.00    -0.248 N 
ATOM      2  C   UNL     1      -5.035   1.701   0.029  0.00  0.00    +0.262 C 
ATOM      3  O   UNL     1      -5.392   0.538  -0.023  0.00  0.00    -0.269 OA
ENDROOT
BRANCH   1   4
ATOM      4  C   UNL     1      -5.544   4.025   0.085  0.00  0.00    +0.073 A 
ATOM      5  C   UNL     1      -5.257   4.718  -1.083  0.00  0.00    +0.026 A 
ATOM      6  C   UNL     1      -4.853   6.037  -1.022  0.00  0.00    +0.002 A 
ATOM      7  C   UNL     1      -4.733   6.670   0.202  0.00  0.00    +0.003 A 
ATOM      8  C   UNL     1      -5.017   5.984   1.369  0.00  0.00    +0.040 A 
ATOM      9  C   UNL     1      -5.428   4.665   1.315  0.00  0.00    +0.145 A 
ATOM     10  F   UNL     1      -5.711   3.996   2.454  0.00  0.00    -0.204 F 
ENDBRANCH   1   4
BRANCH   2  11
ATOM     11  C   UNL     1      -3.610   2.028   0.095  0.00  0.00    +0.116 A 
ATOM     12  C   UNL     1      -2.506   1.173   0.104  0.00  0.00    +0.076 A 
ATOM     13  C   UNL     1      -1.296   1.864   0.179  0.00  0.00    +0.155 A 
ATOM     14  N   UNL     1      -1.308   3.178   0.221  0.00  0.00    -0.203 NA
ATOM     15  S   UNL     1      -2.819   3.622   0.177  0.00  0.00    +0.019 S 
BRANCH  13  16
ATOM     16  C   UNL     1      -0.018   1.129   0.204  0.00  0.00    +0.262 C 
ATOM     17  O   UNL     1      -0.015  -0.086   0.164  0.00  0.00    -0.269 OA
ATOM     18  N   UNL     1       1.146   1.804   0.265  0.00  0.00    -0.324 N 
ATOM     19  H   UNL     1       1.987   1.321   0.277  0.00  0.00    +0.145 HD
ATOM     20  H   UNL     1       1.144   2.774   0.296  0.00  0.00    +0.145 HD
ENDBRANCH  13  16
BRANCH  12  21
ATOM     21  N   UNL     1      -2.601  -0.211   0.049  0.00  0.00    -0.355 N 
ATOM     22  H   UNL     1      -1.797  -0.753   0.062  0.00  0.00    +0.142 HD
ATOM     23  H   UNL     1      -3.472  -0.635  -0.002  0.00  0.00    +0.142 HD
ENDBRANCH  12  21
ENDBRANCH   2  11
BRANCH   1  24
ATOM     24  C   UNL     1      -7.380   2.361  -0.041  0.00  0.00    +0.198 C 
BRANCH  24  25
ATOM     25  C   UNL     1      -8.102   3.033   1.099  0.00  0.00    -0.018 A 
ATOM     26  C   UNL     1      -8.683   2.268   2.094  0.00  0.00    +0.008 A 
ATOM     27  C   UNL     1      -9.341   2.880   3.143  0.00  0.00    +0.023 A 
ATOM     28  C   UNL     1      -9.428   4.265   3.191  0.00  0.00    +0.029 A 
ATOM     29  C   UNL     1      -8.849   5.030   2.188  0.00  0.00    +0.023 A 
ATOM     30  C   UNL     1      -8.188   4.412   1.145  0.00  0.00    +0.008 A 
BRANCH  28  31
ATOM     31  N   UNL     1     -10.098   4.887   4.247  0.00  0.00    -0.336 N 
ATOM     32  C   UNL     1     -10.083   6.347   4.366  0.00  0.00    +0.129 C 
ATOM     33  C   UNL     1     -10.816   4.080   5.237  0.00  0.00    +0.129 C 
ENDBRANCH  28  31
ENDBRANCH  24  25
BRANCH  24  35
ATOM     34  N   UNL     1      -9.250   2.655  -1.633  0.00  0.00    -0.308 N 
ATOM     35  C   UNL     1      -7.946   2.847  -1.350  0.00  0.00    +0.239 C 
ATOM     36  O   UNL     1      -7.229   3.410  -2.149  0.00  0.00    -0.273 OA
ATOM     37  H   UNL     1      -9.824   2.204  -0.993  0.00  0.00    +0.149 HD
BRANCH  34  38
ATOM     38  C   UNL     1      -9.801   3.127  -2.905  0.00  0.00    +0.029 C 
ATOM     39  C   UNL     1      -9.619   4.643  -3.009  0.00  0.00    +0.031 C 
ATOM     40  C   UNL     1      -9.067   2.445  -4.062  0.00  0.00    +0.031 C 
BRANCH  38  42
ATOM     41  C   UNL     1     -11.866   3.279  -4.304  0.00  0.00    +0.006 C 
ATOM     42  C   UNL     1     -11.291   2.786  -2.974  0.00  0.00    +0.022 C 
ENDBRANCH  38  42
ENDBRANCH  34  38
ENDBRANCH  24  35
ENDBRANCH   1  24
TORSDOF 10
