REMARK  Name = ZINC37915584
REMARK  8 active torsions:
REMARK  status: ('A' for Active; 'I' for Inactive)
REMARK    1  A    between atoms: C_1  and  C_2
REMARK    2  A    between atoms: C_2  and  C_3
REMARK    3  A    between atoms: N_8  and  S_9
REMARK    4  A    between atoms: S_9  and  C_12
REMARK    5  A    between atoms: C_14  and  C_19
REMARK    6  A    between atoms: C_17  and  C_18
REMARK    7  A    between atoms: C_20  and  C_21
REMARK    8  A    between atoms: C_21  and  O_22
REMARK                            x       y       z     vdW  Elec       q    Type
REMARK                         _______ _______ _______ _____ _____    ______ ____
ROOT
ATOM      1  C   UNL     1       3.336   1.944   2.768  0.00  0.00    +0.110 A 
ATOM      2  C   UNL     1       4.634   2.011   3.230  0.00  0.00    +0.045 A 
ATOM      3  C   UNL     1       4.881   2.348   4.561  0.00  0.00    +0.027 A 
ATOM      4  C   UNL     1       3.812   2.615   5.417  0.00  0.00    +0.017 A 
ATOM      5  C   UNL     1       2.518   2.545   4.942  0.00  0.00    +0.006 A 
ATOM      6  C   UNL     1       2.280   2.216   3.620  0.00  0.00    -0.024 A 
ATOM      7  C   UNL     1       0.865   2.146   3.107  0.00  0.00    +0.046 C 
ENDROOT
BRANCH   1   8
ATOM      8  S   UNL     1       3.022   1.519   1.087  0.00  0.00    +0.061 S 
ATOM      9  O   UNL     1       4.285   1.254   0.492  0.00  0.00    -0.153 OA
ATOM     10  O   UNL     1       2.132   2.503   0.579  0.00  0.00    -0.153 OA
BRANCH   8  15
ATOM     11  C   UNL     1       2.790  -1.252   1.191  0.00  0.00    +0.080 C 
ATOM     12  C   UNL     1       1.640  -2.279   1.127  0.00  0.00    +0.022 C 
ATOM     13  C   UNL     1       0.505  -1.486   0.428  0.00  0.00    +0.019 C 
ATOM     14  C   UNL     1       0.724  -0.062   0.997  0.00  0.00    +0.110 C 
ATOM     15  N   UNL     1       2.191   0.087   1.091  0.00  0.00    -0.174 NA
BRANCH  11  17
ATOM     16  C   UNL     1       4.259  -2.738   2.561  0.00  0.00    +0.005 C 
ATOM     17  C   UNL     1       3.538  -1.390   2.519  0.00  0.00    +0.017 C 
ENDBRANCH  11  17
ENDBRANCH   8  15
ENDBRANCH   1   8
BRANCH   3  18
ATOM     18  C   UNL     1       6.226   2.418   5.048  0.00  0.00    -0.064 C 
ATOM     19  C   UNL     1       7.329   2.476   5.447  0.00  0.00    -0.069 C 
BRANCH  19  20
ATOM     20  C   UNL     1       8.712   2.549   5.947  0.00  0.00    +0.244 C 
BRANCH  20  21
ATOM     21  O   UNL     1       8.700   2.910   7.329  0.00  0.00    -0.383 OA
ATOM     22  H   UNL     1       9.579   2.977   7.726  0.00  0.00    +0.211 HD
ENDBRANCH  20  21
ENDBRANCH  19  20
ENDBRANCH   3  18
TORSDOF 6
