REMARK  Name = ZINC63426583
REMARK  10 active torsions:
REMARK  status: ('A' for Active; 'I' for Inactive)
REMARK    1  A    between atoms: C_1  and  C_2
REMARK    2  A    between atoms: C_2  and  C_3
REMARK    3  A    between atoms: C_3  and  C_4
REMARK    4  A    between atoms: C_4  and  C_5
REMARK    5  A    between atoms: C_5  and  C_6
REMARK    6  A    between atoms: C_6  and  N_7
REMARK    7  A    between atoms: C_14  and  O_29
REMARK    8  A    between atoms: C_16  and  C_19
REMARK    9  A    between atoms: C_19  and  N_21
REMARK   10  A    between atoms: C_25  and  C_28
REMARK                            x       y       z     vdW  Elec       q    Type
REMARK                         _______ _______ _______ _____ _____    ______ ____
ROOT
ATOM      1  N   UNL     1       2.162  -4.523  -3.738  0.00  0.00    -0.267 N 
ATOM      2  C   UNL     1       1.437  -4.754  -4.910  0.00  0.00    +0.043 A 
ATOM      3  C   UNL     1       0.056  -4.898  -4.852  0.00  0.00    +0.024 A 
ATOM      4  C   UNL     1      -0.662  -5.131  -6.008  0.00  0.00    +0.002 A 
ATOM      5  C   UNL     1      -0.006  -5.221  -7.222  0.00  0.00    +0.000 A 
ATOM      6  C   UNL     1       1.367  -5.077  -7.283  0.00  0.00    +0.008 A 
ATOM      7  C   UNL     1       2.093  -4.841  -6.129  0.00  0.00    +0.007 A 
ATOM      8  C   UNL     1       3.586  -4.676  -6.213  0.00  0.00    +0.187 C 
ATOM      9  C   UNL     1       4.225  -4.822  -4.864  0.00  0.00    +0.111 C 
ATOM     10  C   UNL     1       3.517  -4.734  -3.719  0.00  0.00    +0.255 C 
ATOM     11  O   UNL     1       4.154  -4.859  -2.534  0.00  0.00    -0.270 OA
ENDROOT
BRANCH   9  12
ATOM     12  C   UNL     1       5.618  -5.057  -4.790  0.00  0.00    +0.273 C 
ATOM     13  O   UNL     1       6.160  -5.180  -3.702  0.00  0.00    -0.268 OA
BRANCH  12  14
ATOM     14  N   UNL     1       6.344  -5.146  -5.916  0.00  0.00    -0.152 NA
ATOM     15  C   UNL     1       7.652  -5.366  -5.847  0.00  0.00    +0.163 A 
ATOM     16  N   UNL     1       8.425  -5.534  -4.737  0.00  0.00    -0.339 N 
ATOM     17  H   UNL     1       8.032  -5.499  -3.850  0.00  0.00    +0.167 HD
ATOM     18  C   UNL     1       9.760  -5.751  -4.895  0.00  0.00    +0.021 A 
ATOM     19  C   UNL     1      10.232  -5.787  -6.146  0.00  0.00    +0.069 A 
ATOM     20  S   UNL     1       8.755  -5.514  -7.107  0.00  0.00    -0.060 S 
ATOM     21  C   UNL     1      10.669  -5.944  -3.709  0.00  0.00    +0.064 C 
ENDBRANCH  12  14
ENDBRANCH   9  12
BRANCH   8  22
ATOM     22  O   UNL     1       3.885  -3.379  -6.733  0.00  0.00    -0.382 OA
ATOM     23  H   UNL     1       4.831  -3.198  -6.817  0.00  0.00    +0.211 HD
ENDBRANCH   8  22
BRANCH   1  24
ATOM     24  C   UNL     1       1.476  -4.051  -2.532  0.00  0.00    +0.114 C 
BRANCH  24  25
ATOM     25  C   UNL     1       1.455  -2.521  -2.524  0.00  0.00    +0.019 C 
BRANCH  25  26
ATOM     26  C   UNL     1       0.739  -2.027  -1.265  0.00  0.00    +0.002 C 
BRANCH  26  27
ATOM     27  C   UNL     1       0.718  -0.497  -1.257  0.00  0.00    -0.000 C 
BRANCH  27  29
ATOM     28  C   UNL     1      -0.019   1.526   0.010  0.00  0.00    +0.004 C 
ATOM     29  C   UNL     1       0.002  -0.004   0.002  0.00  0.00    -0.003 C 
ENDBRANCH  27  29
ENDBRANCH  26  27
ENDBRANCH  25  26
ENDBRANCH  24  25
ENDBRANCH   1  24
TORSDOF 8
