REMARK  Name = ZINC03978066
REMARK  15 active torsions:
REMARK  status: ('A' for Active; 'I' for Inactive)
REMARK    1  A    between atoms: C_1  and  C_2
REMARK    2  A    between atoms: C_2  and  C_3
REMARK    3  A    between atoms: C_3  and  O_46
REMARK    4  A    between atoms: C_5  and  O_31
REMARK    5  A    between atoms: C_12  and  O_13
REMARK    6  A    between atoms: C_21  and  O_22
REMARK    7  A    between atoms: C_25  and  C_27
REMARK    8  A    between atoms: C_27  and  O_29
REMARK    9  A    between atoms: O_29  and  C_30
REMARK   10  A    between atoms: O_31  and  C_32
REMARK   11  A    between atoms: C_35  and  N_76
REMARK   12  A    between atoms: C_37  and  O_43
REMARK   13  A    between atoms: C_39  and  C_42
REMARK   14  A    between atoms: C_44  and  N_76
REMARK   15  A    between atoms: C_45  and  N_76
REMARK                            x       y       z     vdW  Elec       q    Type
REMARK                         _______ _______ _______ _____ _____    ______ ____
ROOT
ATOM      1  C   UNL     1      -0.889   1.132   1.097  0.00  0.00    +0.085 C 
ATOM      2  C   UNL     1      -0.301   0.676  -0.243  0.00  0.00    +0.072 C 
ATOM      3  C   UNL     1      -0.924   1.519  -1.353  0.00  0.00    +0.158 C 
ATOM      4  C   UNL     1      -2.427   1.516  -1.244  0.00  0.00    +0.028 A 
ATOM      5  C   UNL     1      -3.084   1.150  -0.092  0.00  0.00    -0.021 A 
ATOM      6  C   UNL     1      -4.476   1.173  -0.044  0.00  0.00    +0.017 A 
ATOM      7  C   UNL     1      -5.215   1.557  -1.153  0.00  0.00    +0.037 A 
ATOM      8  C   UNL     1      -4.549   1.927  -2.337  0.00  0.00    +0.075 A 
ATOM      9  C   UNL     1      -3.156   1.905  -2.373  0.00  0.00    +0.134 A 
ATOM     10  C   UNL     1      -5.331   2.332  -3.521  0.00  0.00    +0.202 C 
ATOM     11  O   UNL     1      -4.787   2.887  -4.456  0.00  0.00    -0.286 OA
ATOM     12  C   UNL     1      -6.780   2.056  -3.557  0.00  0.00    +0.075 A 
ATOM     13  C   UNL     1      -7.450   1.687  -2.374  0.00  0.00    +0.037 A 
ATOM     14  C   UNL     1      -8.815   1.426  -2.407  0.00  0.00    +0.012 A 
ATOM     15  C   UNL     1      -9.511   1.530  -3.601  0.00  0.00    +0.004 A 
ATOM     16  C   UNL     1      -8.861   1.891  -4.763  0.00  0.00    +0.046 A 
ATOM     17  C   UNL     1      -7.494   2.157  -4.753  0.00  0.00    +0.128 A 
ATOM     18  C   UNL     1      -6.693   1.580  -1.108  0.00  0.00    +0.195 C 
ATOM     19  O   UNL     1      -7.278   1.510  -0.045  0.00  0.00    -0.287 OA
ATOM     20  C   UNL     1      -2.355   0.705   1.149  0.00  0.00    +0.160 C 
ENDROOT
BRANCH   1  22
ATOM     21  C   UNL     1       1.342   0.932   2.204  0.00  0.00    +0.007 C 
ATOM     22  C   UNL     1      -0.119   0.479   2.247  0.00  0.00    +0.032 C 
ENDBRANCH   1  22
BRANCH   9  23
ATOM     23  O   UNL     1      -2.504   2.263  -3.507  0.00  0.00    -0.506 OA
ATOM     24  H   UNL     1      -2.336   1.527  -4.112  0.00  0.00    +0.292 HD
ENDBRANCH   9  23
BRANCH  17  25
ATOM     25  O   UNL     1      -6.860   2.512  -5.897  0.00  0.00    -0.506 OA
ATOM     26  H   UNL     1      -6.509   1.764  -6.401  0.00  0.00    +0.292 HD
ENDBRANCH  17  25
BRANCH  20  27
ATOM     27  C   UNL     1      -2.429  -0.797   1.257  0.00  0.00    +0.317 C 
ATOM     28  O   UNL     1      -2.421  -1.475   0.258  0.00  0.00    -0.250 OA
BRANCH  27  29
ATOM     29  O   UNL     1      -2.504  -1.380   2.464  0.00  0.00    -0.467 OA
ATOM     30  C   UNL     1      -2.573  -2.830   2.492  0.00  0.00    +0.280 C 
ENDBRANCH  27  29
ENDBRANCH  20  27
BRANCH   1  31
ATOM     31  O   UNL     1      -0.799   2.554   1.203  0.00  0.00    -0.387 OA
ATOM     32  H   UNL     1       0.105   2.896   1.159  0.00  0.00    +0.210 HD
ENDBRANCH   1  31
BRANCH   3  33
ATOM     33  O   UNL     1      -0.447   2.862  -1.248  0.00  0.00    -0.343 OA
BRANCH  33  34
ATOM     34  C   UNL     1       0.789   3.095  -1.925  0.00  0.00    +0.250 C 
ATOM     35  C   UNL     1       1.282   4.512  -1.617  0.00  0.00    +0.049 C 
ATOM     36  C   UNL     1       2.575   4.775  -2.394  0.00  0.00    -0.033 C 
ATOM     37  C   UNL     1       2.312   4.562  -3.889  0.00  0.00    +0.130 C 
ATOM     38  C   UNL     1       1.780   3.144  -4.109  0.00  0.00    +0.145 C 
ATOM     39  O   UNL     1       0.594   2.956  -3.334  0.00  0.00    -0.346 OA
ATOM     40  C   UNL     1       2.840   2.129  -3.675  0.00  0.00    +0.040 C 
BRANCH  36  43
ATOM     41  C   UNL     1       3.278   6.396  -0.739  0.00  0.00    -0.096 C 
ATOM     42  C   UNL     1       4.198   6.474  -2.977  0.00  0.00    -0.096 C 
ATOM     43  N   UNL     1       2.995   6.174  -2.173  0.00  0.00    +0.380 N 
ATOM     44  H   UNL     1       2.235   6.801  -2.463  0.00  0.00    -0.082 HD
ENDBRANCH  36  43
BRANCH  37  45
ATOM     45  O   UNL     1       1.345   5.511  -4.343  0.00  0.00    -0.391 OA
ATOM     46  H   UNL     1       1.127   5.431  -5.281  0.00  0.00    +0.210 HD
ENDBRANCH  37  45
ENDBRANCH  33  34
ENDBRANCH   3  33
TORSDOF 10
