REMARK  Name = ZINC04282235
REMARK  8 active torsions:
REMARK  status: ('A' for Active; 'I' for Inactive)
REMARK    1  A    between atoms: C_1  and  C_2
REMARK    2  A    between atoms: C_11  and  O_13
REMARK    3  A    between atoms: O_13  and  C_14
REMARK    4  A    between atoms: C_16  and  O_29
REMARK    5  A    between atoms: C_18  and  O_28
REMARK    6  A    between atoms: C_20  and  O_27
REMARK    7  A    between atoms: C_22  and  C_25
REMARK    8  A    between atoms: C_25  and  O_26
REMARK                            x       y       z     vdW  Elec       q    Type
REMARK                         _______ _______ _______ _____ _____    ______ ____
ROOT
ATOM      1  C   UNL     1       0.792   3.564   1.247  0.00  0.00    +0.339 C 
ATOM      2  C   UNL     1      -0.669   3.112   1.308  0.00  0.00    +0.214 C 
ATOM      3  C   UNL     1      -0.723   1.581   1.272  0.00  0.00    +0.180 C 
ATOM      4  C   UNL     1      -0.013   1.086   0.008  0.00  0.00    +0.177 C 
ATOM      5  C   UNL     1       1.423   1.617  -0.003  0.00  0.00    +0.179 C 
ATOM      6  O   UNL     1       1.402   3.044   0.064  0.00  0.00    -0.331 OA
ENDROOT
BRANCH   4   7
ATOM      7  O   UNL     1      -0.706   1.560  -1.148  0.00  0.00    -0.386 OA
ATOM      8  H   UNL     1      -1.625   1.263  -1.205  0.00  0.00    +0.210 HD
ENDBRANCH   4   7
BRANCH   3   9
ATOM      9  O   UNL     1      -2.085   1.151   1.254  0.00  0.00    -0.386 OA
ATOM     10  H   UNL     1      -2.596   1.430   2.027  0.00  0.00    +0.210 HD
ENDBRANCH   3   9
BRANCH   2  11
ATOM     11  O   UNL     1      -1.265   3.583   2.518  0.00  0.00    -0.383 OA
ATOM     12  H   UNL     1      -1.261   4.546   2.609  0.00  0.00    +0.210 HD
ENDBRANCH   2  11
BRANCH   1  13
ATOM     13  O   UNL     1       1.490   3.079   2.395  0.00  0.00    -0.461 OA
BRANCH  13  24
ATOM     14  C   UNL     1       7.264   6.070   2.316  0.00  0.00    +0.045 C 
ATOM     15  C   UNL     1       6.641   5.068   3.253  0.00  0.00    -0.033 A 
ATOM     16  C   UNL     1       7.317   4.616   4.341  0.00  0.00    +0.096 A 
ATOM     17  C   UNL     1       6.713   3.678   5.204  0.00  0.00    +0.337 A 
ATOM     18  O   UNL     1       7.330   3.281   6.175  0.00  0.00    -0.245 OA
ATOM     19  O   UNL     1       5.474   3.212   4.981  0.00  0.00    -0.422 OA
ATOM     20  C   UNL     1       4.748   3.619   3.918  0.00  0.00    +0.143 A 
ATOM     21  C   UNL     1       5.290   4.554   3.016  0.00  0.00    +0.021 A 
ATOM     22  C   UNL     1       4.541   4.981   1.914  0.00  0.00    +0.015 A 
ATOM     23  C   UNL     1       3.286   4.482   1.713  0.00  0.00    +0.046 A 
ATOM     24  C   UNL     1       2.742   3.561   2.605  0.00  0.00    +0.128 A 
ATOM     25  C   UNL     1       3.470   3.128   3.702  0.00  0.00    +0.092 A 
ENDBRANCH  13  24
ENDBRANCH   1  13
BRANCH   5  26
ATOM     26  C   UNL     1       2.120   1.176  -1.291  0.00  0.00    +0.190 C 
BRANCH  26  27
ATOM     27  O   UNL     1       3.493   1.572  -1.250  0.00  0.00    -0.392 OA
ATOM     28  H   UNL     1       3.998   1.324  -2.036  0.00  0.00    +0.210 HD
ENDBRANCH  26  27
ENDBRANCH   5  26
TORSDOF 7
