REMARK  Name = ZINC02055302
REMARK  11 active torsions:
REMARK  status: ('A' for Active; 'I' for Inactive)
REMARK    1  A    between atoms: C_1  and  C_2
REMARK    2  A    between atoms: C_2  and  C_3
REMARK    3  A    between atoms: C_3  and  O_4
REMARK    4  A    between atoms: O_4  and  C_5
REMARK    5  A    between atoms: C_5  and  C_7
REMARK    6  A    between atoms: C_8  and  C_29
REMARK    7  A    between atoms: C_12  and  C_14
REMARK    8  A    between atoms: C_17  and  C_20
REMARK    9  A    between atoms: C_20  and  C_21
REMARK   10  A    between atoms: C_25  and  C_27
REMARK   11  A    between atoms: C_25  and  C_28
REMARK                            x       y       z     vdW  Elec       q    Type
REMARK                         _______ _______ _______ _____ _____    ______ ____
ROOT
ATOM      1  C   UNL     1       1.133   2.060   0.002  0.00  0.00    +0.065 C 
ATOM      2  C   UNL     1      -0.017   1.363   0.009  0.00  0.00    +0.016 C 
ATOM      3  N   UNL     1       0.002  -0.004   0.002  0.00  0.00    -0.321 N 
ATOM      4  C   UNL     1       1.118  -0.685  -0.404  0.00  0.00    +0.016 C 
ATOM      5  C   UNL     1       2.321  -0.072  -0.436  0.00  0.00    +0.024 C 
ATOM      6  C   UNL     1       2.464   1.366  -0.007  0.00  0.00    +0.092 C 
ATOM      7  C   UNL     1       3.472  -0.756  -0.865  0.00  0.00    +0.162 C 
ATOM      8  O   UNL     1       4.541  -0.178  -0.873  0.00  0.00    -0.292 OA
ATOM      9  C   UNL     1       3.405  -2.190  -1.313  0.00  0.00    +0.086 C 
ATOM     10  C   UNL     1       2.010  -2.472  -1.880  0.00  0.00    -0.023 C 
ATOM     11  C   UNL     1       0.972  -2.131  -0.808  0.00  0.00    +0.058 C 
ATOM     12  C   UNL     1       1.774  -1.604  -3.118  0.00  0.00    +0.011 C 
ATOM     13  C   UNL     1       1.897  -3.950  -2.259  0.00  0.00    +0.011 C 
ATOM     14  C   UNL     1      -1.335   2.093   0.020  0.00  0.00    +0.061 C 
ATOM     15  H   UNL     1      -0.886  -0.568   0.324  0.00  0.00    +0.152 HD
ENDROOT
BRANCH   6  16
ATOM     16  C   UNL     1       3.057   1.413   1.378  0.00  0.00    -0.035 A 
ATOM     17  C   UNL     1       2.395   0.815   2.434  0.00  0.00    +0.005 A 
ATOM     18  C   UNL     1       2.941   0.854   3.703  0.00  0.00    +0.004 A 
ATOM     19  C   UNL     1       4.144   1.501   3.918  0.00  0.00    -0.048 A 
ATOM     20  C   UNL     1       4.803   2.104   2.864  0.00  0.00    +0.004 A 
ATOM     21  C   UNL     1       4.259   2.060   1.593  0.00  0.00    +0.005 A 
BRANCH  19  22
ATOM     22  C   UNL     1       4.736   1.549   5.303  0.00  0.00    +0.032 C 
ATOM     23  C   UNL     1       4.228   2.794   6.032  0.00  0.00    +0.009 C 
ENDBRANCH  19  22
ENDBRANCH   6  16
BRANCH   1  24
ATOM     24  C   UNL     1       1.087   3.473   0.003  0.00  0.00    +0.338 C 
ATOM     25  O   UNL     1       0.014   4.047   0.011  0.00  0.00    -0.245 OA
BRANCH  24  26
ATOM     26  O   UNL     1       2.233   4.186  -0.004  0.00  0.00    -0.461 OA
BRANCH  26  27
ATOM     27  C   UNL     1       2.112   5.610  -0.002  0.00  0.00    +0.232 C 
BRANCH  27  29
ATOM     28  C   UNL     1       3.377   7.764  -0.009  0.00  0.00    +0.007 C 
ATOM     29  C   UNL     1       3.506   6.240  -0.011  0.00  0.00    +0.038 C 
ENDBRANCH  27  29
ENDBRANCH  26  27
ENDBRANCH  24  26
ENDBRANCH   1  24
TORSDOF 6
