REMARK  Name = ZINC44785895
REMARK  6 active torsions:
REMARK  status: ('A' for Active; 'I' for Inactive)
REMARK    1  A    between atoms: C_1  and  C_2
REMARK    2  A    between atoms: C_2  and  C_3
REMARK    3  A    between atoms: C_2  and  C_4
REMARK    4  A    between atoms: C_2  and  C_8
REMARK    5  A    between atoms: N_5  and  O_6
REMARK    6  A    between atoms: N_13  and  C_16
REMARK                            x       y       z     vdW  Elec       q    Type
REMARK                         _______ _______ _______ _____ _____    ______ ____
ROOT
ATOM      1  C   UNL     1       0.784  -0.380  -1.231  0.00  0.00    +0.229 C 
ATOM      2  O   UNL     1       0.248  -1.006  -2.122  0.00  0.00    -0.275 OA
ATOM      3  N   UNL     1       2.077  -0.018  -1.346  0.00  0.00    -0.298 N 
ATOM      4  C   UNL     1       2.716   0.832  -0.329  0.00  0.00    +0.123 C 
ATOM      5  C   UNL     1       3.398   2.008  -1.037  0.00  0.00    +0.103 C 
ATOM      6  N   UNL     1       4.303   1.493  -2.073  0.00  0.00    -0.296 NA
ATOM      7  C   UNL     1       3.563   0.765  -3.113  0.00  0.00    +0.103 C 
ATOM      8  C   UNL     1       2.889  -0.466  -2.488  0.00  0.00    +0.123 C 
ENDROOT
BRANCH   1  10
ATOM      9  C   UNL     1       0.714  -0.558   1.241  0.00  0.00    +0.028 C 
ATOM     10  C   UNL     1       0.004  -0.008   0.003  0.00  0.00    +0.100 C 
ATOM     11  C   UNL     1      -1.403  -0.603  -0.084  0.00  0.00    +0.028 C 
BRANCH  10  12
ATOM     12  C   UNL     1      -0.091   1.493   0.104  0.00  0.00    +0.146 C 
ATOM     13  N   UNL     1       0.394   2.103   1.133  0.00  0.00    -0.076 NA
ATOM     14  N   UNL     1      -0.696   2.213  -0.902  0.00  0.00    -0.343 N 
ATOM     15  H   UNL     1      -1.061   1.755  -1.675  0.00  0.00    +0.144 HD
ATOM     16  H   UNL     1      -0.757   3.179  -0.838  0.00  0.00    +0.144 HD
BRANCH  13  17
ATOM     17  O   UNL     1       0.305   3.513   1.228  0.00  0.00    -0.408 OA
ATOM     18  H   UNL     1       0.696   3.879   2.033  0.00  0.00    +0.328 HD
ENDBRANCH  13  17
ENDBRANCH  10  12
ENDBRANCH   1  10
BRANCH   6  19
ATOM     19  C   UNL     1       5.105   2.576  -2.658  0.00  0.00    +0.057 C 
ATOM     20  C   UNL     1       4.902   2.882  -4.143  0.00  0.00    +0.020 C 
ATOM     21  C   UNL     1       6.182   2.189  -3.673  0.00  0.00    +0.020 C 
ENDBRANCH   6  19
TORSDOF 4
