REMARK  Name = ZINC20566571
REMARK  6 active torsions:
REMARK  status: ('A' for Active; 'I' for Inactive)
REMARK    1  A    between atoms: C_1  and  C_2
REMARK    2  A    between atoms: C_4  and  S_10
REMARK    3  A    between atoms: C_6  and  N_9
REMARK    4  A    between atoms: C_7  and  C_8
REMARK    5  A    between atoms: S_10  and  N_13
REMARK    6  A    between atoms: C_18  and  C_20
REMARK                            x       y       z     vdW  Elec       q    Type
REMARK                         _______ _______ _______ _____ _____    ______ ____
ROOT
ATOM      1  C   UNL     1      -6.750   1.998   1.956  0.00  0.00    +0.044 C 
ATOM      2  C   UNL     1      -5.970   2.391   0.728  0.00  0.00    -0.044 A 
ATOM      3  C   UNL     1      -4.850   3.194   0.849  0.00  0.00    +0.032 A 
ATOM      4  C   UNL     1      -4.131   3.557  -0.275  0.00  0.00    +0.107 A 
ATOM      5  C   UNL     1      -4.532   3.122  -1.523  0.00  0.00    +0.051 A 
ATOM      6  C   UNL     1      -5.654   2.312  -1.647  0.00  0.00    +0.030 A 
ATOM      7  C   UNL     1      -6.374   1.949  -0.516  0.00  0.00    -0.027 A 
ATOM      8  C   UNL     1      -7.593   1.074  -0.646  0.00  0.00    +0.046 C 
ENDROOT
BRANCH   6   9
ATOM      9  N   UNL     1      -6.059   1.866  -2.908  0.00  0.00    -0.358 N 
ATOM     10  H   UNL     1      -6.947   1.224  -3.005  0.00  0.00    +0.142 HD
ATOM     11  H   UNL     1      -5.490   2.157  -3.803  0.00  0.00    +0.142 HD
ENDBRANCH   6   9
BRANCH   4  12
ATOM     12  S   UNL     1      -2.706   4.580  -0.116  0.00  0.00    +0.061 S 
ATOM     13  O   UNL     1      -2.942   5.435   0.994  0.00  0.00    -0.153 OA
ATOM     14  O   UNL     1      -2.417   5.079  -1.414  0.00  0.00    -0.153 OA
BRANCH  12  15
ATOM     15  N   UNL     1      -1.442   3.597   0.305  0.00  0.00    -0.174 NA
ATOM     16  C   UNL     1      -1.031   3.465   1.710  0.00  0.00    +0.110 C 
ATOM     17  C   UNL     1       0.467   3.766   1.816  0.00  0.00    +0.017 C 
ATOM     18  C   UNL     1       1.235   2.861   0.849  0.00  0.00    +0.003 C 
ATOM     19  C   UNL     1       0.785   3.147  -0.585  0.00  0.00    +0.020 C 
ATOM     20  C   UNL     1      -0.710   2.839  -0.719  0.00  0.00    +0.077 C 
ATOM     21  C   UNL     1      -1.197   3.252  -2.109  0.00  0.00    +0.026 C 
ENDBRANCH  12  15
ENDBRANCH   4  12
TORSDOF 3
