REMARK  Name = ZINC52637251
REMARK  5 active torsions:
REMARK  status: ('A' for Active; 'I' for Inactive)
REMARK    1  A    between atoms: C_1  and  C_2
REMARK    2  A    between atoms: C_2  and  N_3
REMARK    3  A    between atoms: C_4  and  N_10
REMARK    4  A    between atoms: C_16  and  C_18
REMARK    5  A    between atoms: N_36  and  C_38
REMARK                            x       y       z     vdW  Elec       q    Type
REMARK                         _______ _______ _______ _____ _____    ______ ____
ROOT
ATOM      1  C   UNL     1      -5.830   0.981  -3.182  0.00  0.00    +0.059 C 
ATOM      2  C   UNL     1      -7.278   1.274  -2.780  0.00  0.00    +0.017 C 
ATOM      3  C   UNL     1      -8.217   0.716  -3.853  0.00  0.00    +0.007 C 
ATOM      4  C   UNL     1      -9.643   0.937  -3.455  0.00  0.00    -0.037 A 
ATOM      5  C   UNL     1     -10.169   1.944  -2.738  0.00  0.00    +0.004 A 
ATOM      6  C   UNL     1     -11.547   2.008  -2.453  0.00  0.00    +0.002 A 
ATOM      7  C   UNL     1     -12.490   1.108  -2.841  0.00  0.00    +0.026 A 
ATOM      8  C   UNL     1     -12.050  -0.011  -3.610  0.00  0.00    +0.044 A 
ATOM      9  N   UNL     1     -12.632  -1.041  -4.141  0.00  0.00    -0.365 N 
ATOM     10  C   UNL     1     -11.613  -1.871  -4.830  0.00  0.00    +0.199 C 
ATOM     11  C   UNL     1     -10.304  -1.173  -4.628  0.00  0.00    -0.025 C 
ATOM     12  C   UNL     1     -10.604  -0.079  -3.908  0.00  0.00    +0.004 A 
ATOM     13  C   UNL     1      -8.886  -1.451  -5.039  0.00  0.00    +0.020 C 
ATOM     14  C   UNL     1      -7.955  -0.784  -4.018  0.00  0.00    -0.057 C 
ATOM     15  N   UNL     1      -6.563  -0.996  -4.433  0.00  0.00    +0.381 N 
ATOM     16  C   UNL     1      -5.654  -0.526  -3.380  0.00  0.00    -0.066 C 
ATOM     17  C   UNL     1      -6.337  -2.428  -4.670  0.00  0.00    -0.096 C 
ATOM     18 CL   UNL     1     -11.558  -3.518  -4.099  0.00  0.00    -0.094 Cl
ATOM     19  H   UNL     1     -13.580  -1.237  -4.096  0.00  0.00    +0.161 HD
ATOM     20  H   UNL     1      -6.385  -0.483  -5.283  0.00  0.00    -0.082 HD
ENDROOT
BRANCH   1  27
ATOM     21  N   UNL     1      -1.158   2.482  -3.023  0.00  0.00    -0.313 N 
ATOM     22  C   UNL     1      -2.079   2.091  -4.100  0.00  0.00    +0.125 C 
ATOM     23  C   UNL     1      -3.006   0.988  -3.574  0.00  0.00    +0.126 C 
ATOM     24  N   UNL     1      -3.566   1.420  -2.286  0.00  0.00    -0.298 N 
ATOM     25  C   UNL     1      -2.646   1.811  -1.209  0.00  0.00    +0.126 C 
ATOM     26  C   UNL     1      -1.718   2.909  -1.733  0.00  0.00    +0.125 C 
ATOM     27  C   UNL     1      -4.900   1.457  -2.095  0.00  0.00    +0.217 C 
ATOM     28  O   UNL     1      -5.352   1.873  -1.050  0.00  0.00    -0.275 OA
BRANCH  21  30
ATOM     29  N   UNL     1       0.858   3.564  -3.633  0.00  0.00    -0.297 N 
ATOM     30  C   UNL     1       0.203   2.445  -3.217  0.00  0.00    +0.104 A 
ATOM     31  C   UNL     1       0.895   1.274  -2.990  0.00  0.00    +0.042 A 
ATOM     32  C   UNL     1       2.275   1.239  -3.187  0.00  0.00    +0.009 A 
ATOM     33  C   UNL     1       2.924   2.380  -3.608  0.00  0.00    +0.070 A 
ATOM     34  C   UNL     1       2.189   3.549  -3.835  0.00  0.00    +0.253 A 
ATOM     35  O   UNL     1       2.758   4.561  -4.213  0.00  0.00    -0.268 OA
BRANCH  29  37
ATOM     36  C   UNL     1      -0.253   4.901  -5.354  0.00  0.00    +0.027 C 
ATOM     37  C   UNL     1       0.105   4.798  -3.869  0.00  0.00    +0.123 C 
ENDBRANCH  29  37
ENDBRANCH  21  30
ENDBRANCH   1  27
TORSDOF 3
