REMARK  Name = ZINC40919912
REMARK  10 active torsions:
REMARK  status: ('A' for Active; 'I' for Inactive)
REMARK    1  A    between atoms: C_1  and  C_2
REMARK    2  A    between atoms: C_2  and  O_3
REMARK    3  A    between atoms: O_3  and  C_4
REMARK    4  A    between atoms: C_6  and  C_19
REMARK    5  A    between atoms: C_9  and  O_10
REMARK    6  A    between atoms: O_10  and  C_11
REMARK    7  A    between atoms: C_11  and  C_12
REMARK    8  A    between atoms: C_21  and  C_30
REMARK    9  A    between atoms: C_22  and  C_29
REMARK   10  A    between atoms: N_32  and  C_33
REMARK                            x       y       z     vdW  Elec       q    Type
REMARK                         _______ _______ _______ _____ _____    ______ ____
ROOT
ATOM      1  C   UNL     1      -0.189  -4.953  -0.576  0.00  0.00    +0.179 C 
ATOM      2  C   UNL     1       0.889  -5.841  -1.138  0.00  0.00    +0.060 C 
ATOM      3  C   UNL     1       0.995  -7.144  -0.839  0.00  0.00    +0.018 C 
ATOM      4  N   UNL     1       0.113  -7.777   0.003  0.00  0.00    -0.286 N 
ATOM      5  C   UNL     1      -1.048  -7.097   0.339  0.00  0.00    +0.240 A 
ATOM      6  N   UNL     1      -1.206  -5.774   0.070  0.00  0.00    -0.201 N 
ATOM      7  N   UNL     1      -2.478  -5.447   0.534  0.00  0.00    -0.042 NA
ATOM      8  N   UNL     1      -2.978  -6.531   1.032  0.00  0.00    -0.021 NA
ATOM      9  N   UNL     1      -2.139  -7.505   0.921  0.00  0.00    -0.092 NA
ATOM     10  C   UNL     1       2.120  -7.941  -1.447  0.00  0.00    +0.061 C 
ATOM     11  H   UNL     1       0.295  -8.665   0.349  0.00  0.00    +0.155 HD
ENDROOT
BRANCH   1  14
ATOM     12  C   UNL     1       0.879  -1.777   1.170  0.00  0.00    +0.162 A 
ATOM     13  C   UNL     1       0.327  -2.645   0.242  0.00  0.00    +0.055 A 
ATOM     14  C   UNL     1       0.413  -4.011   0.435  0.00  0.00    -0.015 A 
ATOM     15  C   UNL     1       1.049  -4.515   1.554  0.00  0.00    +0.010 A 
ATOM     16  C   UNL     1       1.601  -3.655   2.485  0.00  0.00    +0.050 A 
ATOM     17  C   UNL     1       1.524  -2.284   2.294  0.00  0.00    +0.162 A 
BRANCH  12  18
ATOM     18  O   UNL     1       0.796  -0.433   0.981  0.00  0.00    -0.489 OA
BRANCH  18  20
ATOM     19  C   UNL     1       0.126   1.545  -0.235  0.00  0.00    +0.048 C 
ATOM     20  C   UNL     1       0.119   0.016  -0.195  0.00  0.00    +0.226 C 
ENDBRANCH  18  20
ENDBRANCH  12  18
BRANCH  17  21
ATOM     21  O   UNL     1       2.073  -1.437   3.205  0.00  0.00    -0.484 OA
BRANCH  21  22
ATOM     22  C   UNL     1       2.719  -2.029   4.334  0.00  0.00    +0.267 C 
BRANCH  22  23
ATOM     23  C   UNL     1       3.262  -0.944   5.228  0.00  0.00    +0.025 A 
ATOM     24  C   UNL     1       3.084   0.385   4.889  0.00  0.00    +0.010 A 
ATOM     25  C   UNL     1       3.582   1.380   5.709  0.00  0.00    +0.001 A 
ATOM     26  C   UNL     1       4.258   1.049   6.868  0.00  0.00    +0.003 A 
ATOM     27  C   UNL     1       4.437  -0.279   7.209  0.00  0.00    +0.039 A 
ATOM     28  C   UNL     1       3.934  -1.277   6.392  0.00  0.00    +0.130 A 
ATOM     29  F   UNL     1       4.104  -2.574   6.726  0.00  0.00    -0.205 F 
ENDBRANCH  22  23
ENDBRANCH  21  22
ENDBRANCH  17  21
ENDBRANCH   1  14
BRANCH   2  30
ATOM     30  C   UNL     1       1.835  -5.275  -2.024  0.00  0.00    +0.248 C 
ATOM     31  O   UNL     1       1.546  -5.102  -3.195  0.00  0.00    -0.270 OA
ATOM     32  N   UNL     1       3.057  -4.926  -1.574  0.00  0.00    -0.282 N 
ATOM     33  H   UNL     1       3.317  -5.140  -0.664  0.00  0.00    +0.155 HD
BRANCH  32  34
ATOM     34  C   UNL     1       3.949  -4.256  -2.417  0.00  0.00    +0.034 A 
ATOM     35  C   UNL     1       3.467  -3.480  -3.464  0.00  0.00    +0.023 A 
ATOM     36  C   UNL     1       4.350  -2.819  -4.295  0.00  0.00    +0.002 A 
ATOM     37  C   UNL     1       5.713  -2.930  -4.086  0.00  0.00    +0.000 A 
ATOM     38  C   UNL     1       6.195  -3.702  -3.046  0.00  0.00    +0.002 A 
ATOM     39  C   UNL     1       5.317  -4.361  -2.207  0.00  0.00    +0.023 A 
ENDBRANCH  32  34
ENDBRANCH   2  30
TORSDOF 8
