REMARK  Name = ZINC13897598
REMARK  8 active torsions:
REMARK  status: ('A' for Active; 'I' for Inactive)
REMARK    1  A    between atoms: C_1  and  N_2
REMARK    2  A    between atoms: C_6  and  C_7
REMARK    3  A    between atoms: C_10  and  O_15
REMARK    4  A    between atoms: C_12  and  O_13
REMARK    5  A    between atoms: O_13  and  C_14
REMARK    6  A    between atoms: O_15  and  C_16
REMARK    7  A    between atoms: N_20  and  C_21
REMARK    8  A    between atoms: C_24  and  C_27
REMARK                            x       y       z     vdW  Elec       q    Type
REMARK                         _______ _______ _______ _____ _____    ______ ____
ROOT
ATOM      1  C   UNL     1       4.901  -0.476  -0.536  0.00  0.00    +0.140 C 
ATOM      2  N   UNL     1       4.517   0.737  -1.264  0.00  0.00    -0.249 N 
ATOM      3  C   UNL     1       5.401   1.344  -2.036  0.00  0.00    +0.259 C 
ATOM      4  O   UNL     1       6.535   0.919  -2.160  0.00  0.00    -0.269 OA
ATOM      5  C   UNL     1       4.953   2.558  -2.741  0.00  0.00    +0.078 C 
ATOM      6  C   UNL     1       5.641   3.369  -3.586  0.00  0.00    +0.032 C 
ATOM      7  S   UNL     1       3.256   2.673  -2.190  0.00  0.00    -0.049 S 
ATOM      8  C   UNL     1       3.239   1.231  -1.136  0.00  0.00    +0.168 C 
ATOM      9  N   UNL     1       2.244   0.754  -0.416  0.00  0.00    -0.226 NA
ENDROOT
BRANCH   6  10
ATOM     10  C   UNL     1       4.942   4.430  -4.317  0.00  0.00    +0.019 A 
ATOM     11  C   UNL     1       3.548   4.390  -4.452  0.00  0.00    +0.030 A 
ATOM     12  C   UNL     1       2.895   5.391  -5.135  0.00  0.00    +0.060 A 
ATOM     13  C   UNL     1       3.617   6.439  -5.702  0.00  0.00    +0.137 A 
ATOM     14  C   UNL     1       4.998   6.486  -5.578  0.00  0.00    +0.093 A 
ATOM     15  C   UNL     1       5.667   5.489  -4.890  0.00  0.00    +0.131 A 
ATOM     16 BR   UNL     1       1.013   5.340  -5.311  0.00  0.00    -0.046 Br
BRANCH  15  17
ATOM     17  O   UNL     1       7.018   5.534  -4.769  0.00  0.00    -0.494 OA
ATOM     18  C   UNL     1       7.687   6.640  -5.377  0.00  0.00    +0.277 C 
ENDBRANCH  15  17
BRANCH  13  19
ATOM     19  O   UNL     1       2.965   7.419  -6.378  0.00  0.00    -0.494 OA
ATOM     20  C   UNL     1       3.765   8.465  -6.935  0.00  0.00    +0.277 C 
ENDBRANCH  13  19
ENDBRANCH   6  10
BRANCH   9  21
ATOM     21  C   UNL     1       1.038   1.389  -0.416  0.00  0.00    +0.067 A 
ATOM     22  C   UNL     1      -0.143   0.647  -0.541  0.00  0.00    +0.028 A 
ATOM     23  C   UNL     1      -1.350   1.282  -0.546  0.00  0.00    +0.017 A 
ATOM     24  C   UNL     1      -1.408   2.675  -0.416  0.00  0.00    +0.063 A 
ATOM     25  C   UNL     1      -0.227   3.417  -0.291  0.00  0.00    +0.017 A 
ATOM     26  C   UNL     1       0.980   2.782  -0.291  0.00  0.00    +0.028 A 
BRANCH  24  27
ATOM     27  C   UNL     1      -2.711   3.360  -0.415  0.00  0.00    +0.387 C 
ATOM     28  O   UNL     1      -2.761   4.570  -0.307  0.00  0.00    -0.241 OA
ATOM     29  O   UNL     1      -3.848   2.646  -0.535  0.00  0.00    -0.241 OA
ENDBRANCH  24  27
ENDBRANCH   9  21
TORSDOF 5
