REMARK  Name = ZINC39955381
REMARK  3 active torsions:
REMARK  status: ('A' for Active; 'I' for Inactive)
REMARK    1  A    between atoms: N_4  and  C_6
REMARK    2  A    between atoms: C_12  and  C_16
REMARK    3  A    between atoms: N_18  and  C_19
REMARK                            x       y       z     vdW  Elec       q    Type
REMARK                         _______ _______ _______ _____ _____    ______ ____
ROOT
ATOM      1  C   UNL     1       1.560  -1.616   0.108  0.00  0.00    +0.237 C 
ATOM      2  N   UNL     1       0.674  -2.586  -0.550  0.00  0.00    -0.314 N 
ATOM      3  C   UNL     1       0.127  -3.594   0.231  0.00  0.00    +0.043 A 
ATOM      4  C   UNL     1      -0.740  -4.606  -0.230  0.00  0.00    +0.025 A 
ATOM      5  C   UNL     1      -1.235  -5.563   0.616  0.00  0.00    +0.015 A 
ATOM      6  C   UNL     1      -0.895  -5.568   1.972  0.00  0.00    +0.038 A 
ATOM      7  C   UNL     1      -0.036  -4.573   2.454  0.00  0.00    +0.029 A 
ATOM      8  C   UNL     1       0.452  -3.621   1.595  0.00  0.00    +0.033 A 
ATOM      9  S   UNL     1       1.541  -2.234   1.839  0.00  0.00    -0.079 S 
ATOM     10  H   UNL     1       0.479  -2.525  -1.498  0.00  0.00    +0.149 HD
ENDROOT
BRANCH   1  14
ATOM     11  C   UNL     1      -0.423   1.398  -0.134  0.00  0.00    +0.019 A 
ATOM     12  C   UNL     1       0.878   1.931  -0.046  0.00  0.00    +0.019 A 
ATOM     13  C   UNL     1       1.734   0.894   0.051  0.00  0.00    +0.088 A 
ATOM     14  N   UNL     1       1.009  -0.261   0.026  0.00  0.00    -0.326 N 
ATOM     15  C   UNL     1      -0.312   0.054  -0.087  0.00  0.00    +0.088 A 
ENDBRANCH   1  14
BRANCH   6  16
ATOM     16  C   UNL     1      -1.432  -6.601   2.877  0.00  0.00    +0.248 C 
ATOM     17  O   UNL     1      -1.129  -6.595   4.055  0.00  0.00    -0.270 OA
ATOM     18  N   UNL     1      -2.259  -7.553   2.400  0.00  0.00    -0.282 N 
ATOM     19  H   UNL     1      -2.559  -7.516   1.478  0.00  0.00    +0.155 HD
BRANCH  18  20
ATOM     20  C   UNL     1      -2.680  -8.583   3.225  0.00  0.00    +0.034 C 
ATOM     21  C   UNL     1      -4.035  -8.808   3.424  0.00  0.00    +0.029 C 
ATOM     22  C   UNL     1      -4.340  -9.837   4.322  0.00  0.00    -0.016 C 
ATOM     23  C   UNL     1      -5.373 -10.699   4.410  0.00  0.00    +0.025 C 
ATOM     24  C   UNL     1      -5.054 -11.718   5.328  0.00  0.00    +0.106 C 
ATOM     25  N   UNL     1      -3.906 -11.512   5.913  0.00  0.00    -0.279 NA
ATOM     26  C   UNL     1      -3.406 -10.223   5.457  0.00  0.00    +0.158 C 
ATOM     27  C   UNL     1      -2.008 -10.236   4.918  0.00  0.00    +0.006 C 
ATOM     28  C   UNL     1      -1.696  -9.445   3.888  0.00  0.00    +0.021 C 
ENDBRANCH  18  20
ENDBRANCH   6  16
TORSDOF 3
