REMARK  Name = ZINC02063667
REMARK  9 active torsions:
REMARK  status: ('A' for Active; 'I' for Inactive)
REMARK    1  A    between atoms: C_1  and  C_2
REMARK    2  A    between atoms: C_2  and  C_3
REMARK    3  A    between atoms: C_3  and  O_4
REMARK    4  A    between atoms: O_4  and  C_5
REMARK    5  A    between atoms: C_5  and  C_7
REMARK    6  A    between atoms: C_8  and  C_30
REMARK    7  A    between atoms: C_12  and  C_14
REMARK    8  A    between atoms: C_26  and  C_28
REMARK    9  A    between atoms: C_26  and  C_29
REMARK                            x       y       z     vdW  Elec       q    Type
REMARK                         _______ _______ _______ _____ _____    ______ ____
ROOT
ATOM      1  C   UNL     1       2.768   0.150  -1.201  0.00  0.00    +0.065 C 
ATOM      2  C   UNL     1       2.309  -1.114  -1.208  0.00  0.00    +0.016 C 
ATOM      3  N   UNL     1       1.820  -1.679  -0.064  0.00  0.00    -0.321 N 
ATOM      4  C   UNL     1       2.141  -1.161   1.162  0.00  0.00    +0.016 C 
ATOM      5  C   UNL     1       2.591   0.107   1.272  0.00  0.00    +0.024 C 
ATOM      6  C   UNL     1       2.752   0.977   0.051  0.00  0.00    +0.092 C 
ATOM      7  C   UNL     1       2.924   0.652   2.525  0.00  0.00    +0.162 C 
ATOM      8  O   UNL     1       3.340   1.792   2.588  0.00  0.00    -0.292 OA
ATOM      9  C   UNL     1       2.773  -0.150   3.789  0.00  0.00    +0.086 C 
ATOM     10  C   UNL     1       1.649  -1.174   3.597  0.00  0.00    -0.023 C 
ATOM     11  C   UNL     1       1.983  -2.039   2.379  0.00  0.00    +0.058 C 
ATOM     12  C   UNL     1       0.324  -0.446   3.362  0.00  0.00    +0.011 C 
ATOM     13  C   UNL     1       1.537  -2.059   4.840  0.00  0.00    +0.011 C 
ATOM     14  C   UNL     1       2.334  -1.912  -2.486  0.00  0.00    +0.061 C 
ATOM     15  H   UNL     1       1.163  -2.559  -0.123  0.00  0.00    +0.152 HD
ENDROOT
BRANCH   6  16
ATOM     16  C   UNL     1       1.605   1.952  -0.016  0.00  0.00    -0.032 A 
ATOM     17  C   UNL     1       0.308   1.485  -0.132  0.00  0.00    +0.008 A 
ATOM     18  C   UNL     1      -0.747   2.376  -0.199  0.00  0.00    +0.050 A 
ATOM     19  C   UNL     1      -0.508   3.740  -0.139  0.00  0.00    +0.166 A 
ATOM     20  C   UNL     1       0.798   4.210  -0.023  0.00  0.00    +0.167 A 
ATOM     21  C   UNL     1       1.851   3.311   0.038  0.00  0.00    +0.054 A 
ATOM     22  O   UNL     1       0.769   5.574   0.008  0.00  0.00    -0.453 OA
ATOM     23  C   UNL     1      -0.526   5.943  -0.500  0.00  0.00    +0.466 C 
ATOM     24  O   UNL     1      -1.355   4.809  -0.181  0.00  0.00    -0.453 OA
ENDBRANCH   6  16
BRANCH   1  25
ATOM     25  C   UNL     1       3.277   0.710  -2.396  0.00  0.00    +0.338 C 
ATOM     26  O   UNL     1       3.411   0.014  -3.385  0.00  0.00    -0.245 OA
BRANCH  25  27
ATOM     27  O   UNL     1       3.615   2.016  -2.438  0.00  0.00    -0.461 OA
BRANCH  27  28
ATOM     28  C   UNL     1       4.123   2.514  -3.678  0.00  0.00    +0.232 C 
BRANCH  28  30
ATOM     29  C   UNL     1       4.992   4.536  -4.861  0.00  0.00    +0.007 C 
ATOM     30  C   UNL     1       4.449   4.002  -3.534  0.00  0.00    +0.038 C 
ENDBRANCH  28  30
ENDBRANCH  27  28
ENDBRANCH  25  27
ENDBRANCH   1  25
TORSDOF 5
