REMARK  Name = ZINC52577456
REMARK  4 active torsions:
REMARK  status: ('A' for Active; 'I' for Inactive)
REMARK    1  A    between atoms: C_7  and  C_12
REMARK    2  A    between atoms: C_8  and  C_10
REMARK    3  A    between atoms: C_10  and  N_11
REMARK    4  A    between atoms: C_12  and  N_13
REMARK                            x       y       z     vdW  Elec       q    Type
REMARK                         _______ _______ _______ _____ _____    ______ ____
ROOT
ATOM      1  C   UNL     1      -0.017   1.363   0.009  0.00  0.00    +0.001 A 
ATOM      2  C   UNL     1       1.170   2.082   0.002  0.00  0.00    +0.004 A 
ATOM      3  C   UNL     1       2.386   1.432  -0.013  0.00  0.00    +0.047 A 
ATOM      4  C   UNL     1       2.427   0.043  -0.021  0.00  0.00    +0.135 A 
ATOM      5  C   UNL     1       1.222  -0.679  -0.013  0.00  0.00    +0.025 A 
ATOM      6  C   UNL     1       0.002  -0.004   0.002  0.00  0.00    +0.012 A 
ATOM      7  C   UNL     1       1.613  -2.093  -0.025  0.00  0.00    +0.021 A 
ATOM      8  C   UNL     1       2.952  -2.111  -0.038  0.00  0.00    +0.094 A 
ATOM      9  O   UNL     1       3.432  -0.855  -0.036  0.00  0.00    -0.461 OA
ENDROOT
BRANCH   8  10
ATOM     10  C   UNL     1       3.799  -3.358  -0.053  0.00  0.00    -0.010 C 
BRANCH  10  11
ATOM     11  N   UNL     1       4.060  -3.756  -1.443  0.00  0.00    +0.383 N 
ATOM     12  H   UNL     1       3.185  -3.938  -1.911  0.00  0.00    -0.089 HD
ATOM     13  H   UNL     1       4.548  -3.012  -1.919  0.00  0.00    -0.089 HD
ATOM     14  H   UNL     1       4.627  -4.590  -1.453  0.00  0.00    -0.089 HD
ENDBRANCH  10  11
ENDBRANCH   8  10
BRANCH   7  15
ATOM     15  C   UNL     1       0.692  -3.286  -0.022  0.00  0.00    +0.182 C 
BRANCH  15  16
ATOM     16  N   UNL     1       0.380  -3.666  -1.402  0.00  0.00    -0.266 N 
ATOM     17  C   UNL     1       0.555  -4.888  -1.949  0.00  0.00    +0.124 A 
ATOM     18  C   UNL     1       0.147  -4.826  -3.238  0.00  0.00    +0.055 A 
ATOM     19  C   UNL     1      -0.292  -3.521  -3.487  0.00  0.00    +0.149 A 
ATOM     20  N   UNL     1      -0.158  -2.827  -2.386  0.00  0.00    -0.178 NA
ATOM     21 BR   UNL     1       0.169  -6.250  -4.482  0.00  0.00    -0.047 Br
ENDBRANCH  15  16
ENDBRANCH   7  15
TORSDOF 4
