REMARK  Name = ZINC19485062
REMARK  5 active torsions:
REMARK  status: ('A' for Active; 'I' for Inactive)
REMARK    1  A    between atoms: C_1  and  C_2
REMARK    2  A    between atoms: C_2  and  C_5
REMARK    3  A    between atoms: N_3  and  O_4
REMARK    4  A    between atoms: C_10  and  N_11
REMARK    5  A    between atoms: C_12  and  C_14
REMARK                            x       y       z     vdW  Elec       q    Type
REMARK                         _______ _______ _______ _____ _____    ______ ____
ROOT
ATOM      1  C   UNL     1       0.886   8.047   0.224  0.00  0.00    +0.020 A 
ATOM      2  C   UNL     1       1.621   9.230   0.321  0.00  0.00    +0.011 A 
ATOM      3  C   UNL     1       2.999   9.187   0.300  0.00  0.00    +0.001 A 
ATOM      4  C   UNL     1       3.659   7.975   0.184  0.00  0.00    +0.002 A 
ATOM      5  C   UNL     1       2.945   6.796   0.094  0.00  0.00    +0.024 A 
ATOM      6  C   UNL     1       1.558   6.821   0.107  0.00  0.00    +0.043 A 
ENDROOT
BRANCH   6   7
ATOM      7  N   UNL     1       0.835   5.633   0.009  0.00  0.00    -0.278 N 
ATOM      8  C   UNL     1       1.305   4.509   0.585  0.00  0.00    +0.284 C 
ATOM      9  O   UNL     1       2.398   4.511   1.121  0.00  0.00    -0.266 OA
ATOM     10  H   UNL     1      -0.119   5.613  -0.538  0.00  0.00    +0.155 HD
BRANCH   8  11
ATOM     11  C   UNL     1       0.500   3.285   0.567  0.00  0.00    +0.191 A 
ATOM     12  C   UNL     1       0.855   2.083   1.111  0.00  0.00    +0.056 A 
ATOM     13  C   UNL     1      -0.206   1.199   0.864  0.00  0.00    +0.058 A 
ATOM     14  C   UNL     1      -1.149   1.889   0.182  0.00  0.00    +0.171 A 
ATOM     15  O   UNL     1      -0.722   3.147   0.011  0.00  0.00    -0.444 OA
ATOM     16 BR   UNL     1      -2.800   1.194  -0.424  0.00  0.00    -0.008 Br
ENDBRANCH   8  11
ENDBRANCH   6   7
BRANCH   1  18
ATOM     17  C   UNL     1      -1.306   9.411   0.248  0.00  0.00    +0.070 C 
ATOM     18  C   UNL     1      -0.588   8.086   0.244  0.00  0.00    +0.086 C 
ATOM     19  N   UNL     1      -1.264   6.983   0.259  0.00  0.00    -0.092 NA
BRANCH  19  20
ATOM     20  O   UNL     1      -2.680   7.021   0.279  0.00  0.00    -0.409 OA
ATOM     21  H   UNL     1      -3.255   6.083   0.291  0.00  0.00    +0.328 HD
ENDBRANCH  19  20
ENDBRANCH   1  18
TORSDOF 4
