REMARK  Name = ZINC11615601
REMARK  10 active torsions:
REMARK  status: ('A' for Active; 'I' for Inactive)
REMARK    1  A    between atoms: C_1  and  C_2
REMARK    2  A    between atoms: C_7  and  N_8
REMARK    3  A    between atoms: N_8  and  C_9
REMARK    4  A    between atoms: C_10  and  C_22
REMARK    5  A    between atoms: N_14  and  C_21
REMARK    6  A    between atoms: N_17  and  C_20
REMARK    7  A    between atoms: C_26  and  O_28
REMARK    8  A    between atoms: O_28  and  C_29
REMARK    9  A    between atoms: C_29  and  C_30
REMARK   10  A    between atoms: C_29  and  C_31
REMARK                            x       y       z     vdW  Elec       q    Type
REMARK                         _______ _______ _______ _____ _____    ______ ____
ROOT
ATOM      1  C   UNL     1       0.852   5.916  -0.935  0.00  0.00    +0.201 A 
ATOM      2  C   UNL     1       0.137   5.211  -0.011  0.00  0.00    +0.057 A 
ATOM      3  C   UNL     1      -0.003   6.109   1.147  0.00  0.00    +0.112 A 
ATOM      4  C   UNL     1      -0.627   6.007   2.461  0.00  0.00    +0.268 A 
ATOM      5  O   UNL     1      -1.211   4.993   2.797  0.00  0.00    -0.267 OA
ATOM      6  N   UNL     1      -0.546   7.068   3.295  0.00  0.00    -0.263 N 
ATOM      7  C   UNL     1       0.100   8.185   2.919  0.00  0.00    +0.334 A 
ATOM      8  O   UNL     1       0.152   9.119   3.696  0.00  0.00    -0.246 OA
ATOM      9  N   UNL     1       0.690   8.309   1.718  0.00  0.00    -0.267 N 
ATOM     10  C   UNL     1       0.658   7.279   0.804  0.00  0.00    +0.220 A 
ATOM     11  O   UNL     1       1.147   7.130  -0.435  0.00  0.00    -0.424 OA
ATOM     12  C   UNL     1       1.376   9.558   1.377  0.00  0.00    +0.157 C 
ATOM     13  C   UNL     1      -1.168   7.000   4.619  0.00  0.00    +0.157 C 
ENDROOT
BRANCH   2  14
ATOM     14  C   UNL     1      -0.391   3.835  -0.147  0.00  0.00    -0.009 A 
ATOM     15  C   UNL     1      -1.769   3.612  -0.157  0.00  0.00    +0.009 A 
ATOM     16  C   UNL     1      -2.259   2.329  -0.288  0.00  0.00    +0.004 A 
ATOM     17  C   UNL     1      -1.388   1.260  -0.400  0.00  0.00    +0.046 A 
ATOM     18  C   UNL     1      -0.016   1.473  -0.391  0.00  0.00    +0.121 A 
ATOM     19  C   UNL     1       0.485   2.757  -0.265  0.00  0.00    +0.054 A 
BRANCH  18  20
ATOM     20  O   UNL     1       0.835   0.419  -0.506  0.00  0.00    -0.489 OA
BRANCH  20  21
ATOM     21  C   UNL     1       0.254  -0.886  -0.515  0.00  0.00    +0.167 C 
ATOM     22  C   UNL     1      -0.195  -1.235  -1.935  0.00  0.00    +0.051 C 
ATOM     23  C   UNL     1       1.289  -1.908  -0.041  0.00  0.00    +0.051 C 
ENDBRANCH  20  21
ENDBRANCH  18  20
ENDBRANCH   2  14
BRANCH   1  24
ATOM     24  N   UNL     1       1.216   5.455  -2.192  0.00  0.00    -0.285 N 
ATOM     25  H   UNL     1       1.042   4.533  -2.440  0.00  0.00    +0.155 HD
BRANCH  24  32
ATOM     26  C   UNL     1       2.259   4.348  -4.597  0.00  0.00    +0.045 C 
ATOM     27  C   UNL     1       2.358   5.819  -4.288  0.00  0.00    -0.029 A 
ATOM     28  C   UNL     1       2.964   6.676  -5.186  0.00  0.00    +0.005 A 
ATOM     29  C   UNL     1       3.060   8.025  -4.900  0.00  0.00    +0.000 A 
ATOM     30  C   UNL     1       2.545   8.523  -3.717  0.00  0.00    +0.002 A 
ATOM     31  C   UNL     1       1.933   7.673  -2.817  0.00  0.00    +0.023 A 
ATOM     32  C   UNL     1       1.835   6.317  -3.101  0.00  0.00    +0.036 A 
ENDBRANCH  24  32
ENDBRANCH   1  24
TORSDOF 5
