REMARK  Name = ZINC65349259
REMARK  9 active torsions:
REMARK  status: ('A' for Active; 'I' for Inactive)
REMARK    1  A    between atoms: C_1  and  C_2
REMARK    2  A    between atoms: C_2  and  C_3
REMARK    3  A    between atoms: C_2  and  C_4
REMARK    4  A    between atoms: C_2  and  O_5
REMARK    5  A    between atoms: O_5  and  C_6
REMARK    6  A    between atoms: N_8  and  C_9
REMARK    7  A    between atoms: C_12  and  C_15
REMARK    8  A    between atoms: C_18  and  N_24
REMARK    9  A    between atoms: C_20  and  C_21
REMARK                            x       y       z     vdW  Elec       q    Type
REMARK                         _______ _______ _______ _____ _____    ______ ____
ROOT
ATOM      1  C   UNL     1       4.185  -0.830  -3.285  0.00  0.00    +0.036 A 
ATOM      2  C   UNL     1       4.723  -0.160  -2.191  0.00  0.00    +0.024 A 
ATOM      3  C   UNL     1       5.946   0.466  -2.298  0.00  0.00    +0.010 A 
ATOM      4  C   UNL     1       6.645   0.426  -3.505  0.00  0.00    -0.016 A 
ATOM      5  C   UNL     1       6.104  -0.247  -4.601  0.00  0.00    +0.010 A 
ATOM      6  C   UNL     1       4.883  -0.875  -4.487  0.00  0.00    +0.024 A 
ENDROOT
BRANCH   4   7
ATOM      7  C   UNL     1       7.960   1.098  -3.623  0.00  0.00    +0.012 A 
ATOM      8  C   UNL     1       9.005   0.764  -2.764  0.00  0.00    +0.093 A 
ATOM      9  N   UNL     1      10.176   1.358  -2.864  0.00  0.00    -0.349 N 
ATOM     10  C   UNL     1      10.418   2.290  -3.774  0.00  0.00    +0.094 A 
ATOM     11  C   UNL     1       9.434   2.686  -4.672  0.00  0.00    +0.057 A 
ATOM     12  C   UNL     1       8.176   2.083  -4.611  0.00  0.00    +0.075 A 
ATOM     13  H   UNL     1      10.884   1.105  -2.252  0.00  0.00    +0.167 HD
BRANCH  12  14
ATOM     14  C   UNL     1       7.103   2.467  -5.548  0.00  0.00    +0.387 C 
ATOM     15  O   UNL     1       7.343   3.229  -6.474  0.00  0.00    -0.241 OA
ATOM     16  O   UNL     1       5.973   2.024  -5.399  0.00  0.00    -0.241 OA
ENDBRANCH  12  14
BRANCH  10  17
ATOM     17  N   UNL     1      11.675   2.880  -3.830  0.00  0.00    -0.345 N 
ATOM     18  H   UNL     1      12.367   2.609  -3.207  0.00  0.00    +0.144 HD
ATOM     19  H   UNL     1      11.860   3.564  -4.493  0.00  0.00    +0.144 HD
ENDBRANCH  10  17
ENDBRANCH   4   7
BRANCH   1  22
ATOM     20  C   UNL     1       1.969  -0.910  -2.426  0.00  0.00    +0.405 C 
ATOM     21  O   UNL     1       2.193   0.097  -1.785  0.00  0.00    -0.226 OA
ATOM     22  N   UNL     1       2.945  -1.464  -3.173  0.00  0.00    -0.251 N 
ATOM     23  H   UNL     1       2.786  -2.303  -3.634  0.00  0.00    +0.158 HD
BRANCH  20  24
ATOM     24  O   UNL     1       0.747  -1.473  -2.391  0.00  0.00    -0.444 OA
BRANCH  24  26
ATOM     25  C   UNL     1      -0.459   0.598  -2.075  0.00  0.00    +0.055 C 
ATOM     26  C   UNL     1      -0.239  -0.833  -1.578  0.00  0.00    +0.107 C 
ATOM     27  C   UNL     1       0.241  -0.799  -0.125  0.00  0.00    +0.055 C 
ATOM     28  C   UNL     1      -1.554  -1.610  -1.663  0.00  0.00    +0.055 C 
ENDBRANCH  24  26
ENDBRANCH  20  24
ENDBRANCH   1  22
TORSDOF 6
