REMARK  Name = ZINC21188584
REMARK  6 active torsions:
REMARK  status: ('A' for Active; 'I' for Inactive)
REMARK    1  A    between atoms: C_1  and  C_2
REMARK    2  A    between atoms: C_7  and  C_8
REMARK    3  A    between atoms: N_12  and  N_13
REMARK    4  A    between atoms: C_14  and  C_15
REMARK    5  A    between atoms: C_16  and  C_28
REMARK    6  A    between atoms: N_18  and  C_21
REMARK                            x       y       z     vdW  Elec       q    Type
REMARK                         _______ _______ _______ _____ _____    ______ ____
ROOT
ATOM      1  N   UNL     1       0.067  -1.908   4.068  0.00  0.00    -0.170 NA
ATOM      2  C   UNL     1       1.200  -2.525   4.205  0.00  0.00    +0.146 C 
ENDROOT
BRANCH   2   3
ATOM      3  C   UNL     1       1.223  -3.960   4.540  0.00  0.00    +0.054 A 
ATOM      4  C   UNL     1       2.373  -4.760   4.725  0.00  0.00    +0.070 A 
ATOM      5  N   UNL     1       1.984  -5.973   5.008  0.00  0.00    -0.170 NA
ATOM      6  N   UNL     1       0.585  -6.010   5.019  0.00  0.00    -0.221 N 
ATOM      7  C   UNL     1       0.124  -4.773   4.737  0.00  0.00    +0.142 A 
ATOM      8 CL   UNL     1      -1.541  -4.294   4.636  0.00  0.00    -0.061 Cl
ATOM      9  C   UNL     1       3.802  -4.293   4.614  0.00  0.00    +0.068 C 
BRANCH   6  10
ATOM     10  C   UNL     1      -0.204  -7.139   5.282  0.00  0.00    +0.067 A 
ATOM     11  C   UNL     1      -1.411  -7.002   5.954  0.00  0.00    +0.030 A 
ATOM     12  C   UNL     1      -2.187  -8.115   6.212  0.00  0.00    +0.040 A 
ATOM     13  C   UNL     1      -1.761  -9.367   5.802  0.00  0.00    +0.124 A 
ATOM     14  C   UNL     1      -0.557  -9.506   5.131  0.00  0.00    +0.040 A 
ATOM     15  C   UNL     1       0.218  -8.395   4.866  0.00  0.00    +0.030 A 
ATOM     16  F   UNL     1      -2.521 -10.455   6.056  0.00  0.00    -0.205 F 
ENDBRANCH   6  10
ENDBRANCH   2   3
BRANCH   1  21
ATOM     17  C   UNL     1       0.025   0.017   2.493  0.00  0.00    +0.186 A 
ATOM     18  N   UNL     1       0.003   1.321   2.653  0.00  0.00    -0.126 NA
ATOM     19  N   UNL     1       0.012   1.610   3.905  0.00  0.00    -0.119 NA
ATOM     20  C   UNL     1       0.041   0.508   4.623  0.00  0.00    +0.223 A 
ATOM     21  N   UNL     1       0.045  -0.544   3.750  0.00  0.00    -0.186 N 
ATOM     22  S   UNL     1       0.064   0.408   6.382  0.00  0.00    -0.007 SA
BRANCH  17  29
ATOM     23  C   UNL     1      -0.018   1.503   0.010  0.00  0.00    +0.044 C 
ATOM     24  C   UNL     1       0.002  -0.004   0.002  0.00  0.00    -0.040 A 
ATOM     25  C   UNL     1       0.006  -0.689  -1.196  0.00  0.00    +0.004 A 
ATOM     26  C   UNL     1       0.025  -2.072  -1.205  0.00  0.00    +0.000 A 
ATOM     27  C   UNL     1       0.040  -2.778  -0.015  0.00  0.00    +0.001 A 
ATOM     28  C   UNL     1       0.037  -2.106   1.189  0.00  0.00    +0.012 A 
ATOM     29  C   UNL     1       0.023  -0.710   1.206  0.00  0.00    +0.024 A 
ENDBRANCH  17  29
ENDBRANCH   1  21
TORSDOF 4
