REMARK  Name = ZINC39664131
REMARK  11 active torsions:
REMARK  status: ('A' for Active; 'I' for Inactive)
REMARK    1  A    between atoms: C_1  and  C_2
REMARK    2  A    between atoms: C_2  and  C_3
REMARK    3  A    between atoms: C_3  and  C_5
REMARK    4  A    between atoms: C_3  and  C_11
REMARK    5  A    between atoms: C_15  and  C_24
REMARK    6  A    between atoms: N_26  and  C_27
REMARK    7  A    between atoms: C_27  and  C_28
REMARK    8  A    between atoms: C_28  and  C_30
REMARK    9  A    between atoms: C_28  and  N_38
REMARK   10  A    between atoms: C_33  and  O_36
REMARK   11  A    between atoms: O_36  and  C_37
REMARK                            x       y       z     vdW  Elec       q    Type
REMARK                         _______ _______ _______ _____ _____    ______ ____
ROOT
ATOM      1  C   UNL     1      -1.321  -2.980   0.017  0.00  0.00    +0.223 C 
ATOM      2  O   UNL     1      -1.834  -3.767  -0.749  0.00  0.00    -0.275 OA
ATOM      3  N   UNL     1      -0.774  -3.418   1.168  0.00  0.00    -0.300 N 
ATOM      4  C   UNL     1      -0.113  -2.615   2.224  0.00  0.00    +0.121 C 
ATOM      5  C   UNL     1      -0.578  -3.255   3.551  0.00  0.00    +0.100 C 
ATOM      6  C   UNL     1      -0.959  -4.698   3.178  0.00  0.00    -0.004 C 
ATOM      7  C   UNL     1      -0.704  -4.812   1.668  0.00  0.00    +0.115 C 
ATOM      8  C   UNL     1      -2.434  -4.949   3.478  0.00  0.00    -0.010 C 
ATOM      9  C   UNL     1      -2.775  -6.406   3.153  0.00  0.00    -0.082 C 
ATOM     10  N   UNL     1      -1.932  -7.299   3.957  0.00  0.00    +0.379 N 
ATOM     11  C   UNL     1      -0.521  -7.116   3.595  0.00  0.00    -0.082 C 
ATOM     12  C   UNL     1      -0.085  -5.689   3.939  0.00  0.00    -0.010 C 
ATOM     13  H   UNL     1      -2.057  -7.087   4.935  0.00  0.00    -0.086 HD
ATOM     14  H   UNL     1      -2.200  -8.257   3.786  0.00  0.00    -0.086 HD
ENDROOT
BRANCH   5  15
ATOM     15  C   UNL     1       0.544  -3.250   4.557  0.00  0.00    +0.218 C 
ATOM     16  O   UNL     1       1.695  -3.329   4.183  0.00  0.00    -0.275 OA
ATOM     17  N   UNL     1       0.268  -3.157   5.873  0.00  0.00    -0.316 N 
ATOM     18  H   UNL     1      -0.653  -3.094   6.172  0.00  0.00    +0.149 HD
BRANCH  17  19
ATOM     19  C   UNL     1       1.358  -3.152   6.852  0.00  0.00    +0.093 C 
BRANCH  19  20
ATOM     20  C   UNL     1       0.774  -3.176   8.266  0.00  0.00    -0.020 C 
BRANCH  20  21
ATOM     21  C   UNL     1       0.054  -4.481   8.490  0.00  0.00    -0.059 A 
ATOM     22  C   UNL     1       0.771  -5.619   8.809  0.00  0.00    +0.005 A 
ATOM     23  C   UNL     1       0.113  -6.816   9.015  0.00  0.00    +0.046 A 
ATOM     24  C   UNL     1      -1.268  -6.876   8.901  0.00  0.00    +0.120 A 
ATOM     25  C   UNL     1      -1.985  -5.732   8.581  0.00  0.00    +0.046 A 
ATOM     26  C   UNL     1      -1.323  -4.536   8.382  0.00  0.00    +0.005 A 
BRANCH  24  27
ATOM     27  O   UNL     1      -1.917  -8.052   9.102  0.00  0.00    -0.495 OA
ATOM     28  C   UNL     1      -3.340  -8.039   8.969  0.00  0.00    +0.277 C 
ENDBRANCH  24  27
ENDBRANCH  20  21
BRANCH  20  29
ATOM     29  N   UNL     1       1.860  -3.041   9.246  0.00  0.00    +0.385 N 
ATOM     30  C   UNL     1       2.535  -1.728   9.085  0.00  0.00    -0.078 C 
ATOM     31  C   UNL     1       3.209  -1.505  10.463  0.00  0.00    -0.020 C 
ATOM     32  C   UNL     1       2.169  -2.077  11.453  0.00  0.00    -0.020 C 
ATOM     33  C   UNL     1       1.310  -3.046  10.619  0.00  0.00    -0.078 C 
ATOM     34  H   UNL     1       2.525  -3.791   9.134  0.00  0.00    -0.081 HD
ENDBRANCH  20  29
ENDBRANCH  19  20
ENDBRANCH  17  19
ENDBRANCH   5  15
BRANCH   1  35
ATOM     35  C   UNL     1      -1.293  -1.511  -0.319  0.00  0.00    +0.105 C 
BRANCH  35  36
ATOM     36  C   UNL     1      -1.964  -1.287  -1.649  0.00  0.00    -0.036 A 
ATOM     37  C   UNL     1      -1.471  -1.903  -2.784  0.00  0.00    +0.004 A 
ATOM     38  C   UNL     1      -2.087  -1.698  -4.005  0.00  0.00    +0.000 A 
ATOM     39  C   UNL     1      -3.196  -0.877  -4.090  0.00  0.00    +0.000 A 
ATOM     40  C   UNL     1      -3.690  -0.262  -2.955  0.00  0.00    +0.000 A 
ATOM     41  C   UNL     1      -3.077  -0.470  -1.734  0.00  0.00    +0.004 A 
ENDBRANCH  35  36
BRANCH  35  43
ATOM     42  C   UNL     1       0.184   0.483  -0.609  0.00  0.00    +0.005 C 
ATOM     43  C   UNL     1       0.158  -1.031  -0.392  0.00  0.00    +0.014 C 
ENDBRANCH  35  43
ENDBRANCH   1  35
TORSDOF 9
