REMARK  Name = ZINC06623689
REMARK  9 active torsions:
REMARK  status: ('A' for Active; 'I' for Inactive)
REMARK    1  A    between atoms: C_1  and  C_2
REMARK    2  A    between atoms: C_8  and  O_12
REMARK    3  A    between atoms: O_12  and  C_13
REMARK    4  A    between atoms: C_15  and  N_28
REMARK    5  A    between atoms: C_17  and  O_27
REMARK    6  A    between atoms: C_19  and  O_26
REMARK    7  A    between atoms: C_21  and  C_24
REMARK    8  A    between atoms: C_24  and  O_25
REMARK    9  A    between atoms: C_29  and  C_31
REMARK                            x       y       z     vdW  Elec       q    Type
REMARK                         _______ _______ _______ _____ _____    ______ ____
ROOT
ATOM      1  C   UNL     1      -2.373   0.082   0.025  0.00  0.00    +0.331 C 
ATOM      2  C   UNL     1      -3.581  -0.852  -0.093  0.00  0.00    +0.173 C 
ATOM      3  C   UNL     1      -4.867  -0.023  -0.015  0.00  0.00    +0.172 C 
ATOM      4  C   UNL     1      -4.871   0.771   1.296  0.00  0.00    +0.176 C 
ATOM      5  C   UNL     1      -3.614   1.642   1.360  0.00  0.00    +0.179 C 
ATOM      6  O   UNL     1      -2.455   0.812   1.251  0.00  0.00    -0.332 OA
ENDROOT
BRANCH   2   7
ATOM      7  N   UNL     1      -3.530  -1.558  -1.375  0.00  0.00    -0.304 N 
ATOM      8  C   UNL     1      -2.808  -2.689  -1.494  0.00  0.00    +0.210 C 
ATOM      9  O   UNL     1      -2.199  -3.123  -0.539  0.00  0.00    -0.276 OA
ATOM     10  C   UNL     1      -2.756  -3.415  -2.813  0.00  0.00    +0.109 C 
ATOM     11  H   UNL     1      -4.017  -1.211  -2.139  0.00  0.00    +0.149 HD
ENDBRANCH   2   7
BRANCH   4  12
ATOM     12  O   UNL     1      -6.032   1.603   1.346  0.00  0.00    -0.387 OA
ATOM     13  H   UNL     1      -6.097   2.139   2.148  0.00  0.00    +0.210 HD
ENDBRANCH   4  12
BRANCH   3  14
ATOM     14  O   UNL     1      -5.999  -0.893  -0.050  0.00  0.00    -0.387 OA
ATOM     15  H   UNL     1      -6.849  -0.435   0.003  0.00  0.00    +0.210 HD
ENDBRANCH   3  14
BRANCH   1  16
ATOM     16  O   UNL     1      -1.171  -0.690   0.009  0.00  0.00    -0.462 OA
BRANCH  16  24
ATOM     17  C   UNL     1       5.997  -0.756  -0.060  0.00  0.00    +0.065 C 
ATOM     18  C   UNL     1       4.706   0.021  -0.043  0.00  0.00    +0.039 A 
ATOM     19  C   UNL     1       4.753   1.413  -0.036  0.00  0.00    +0.023 A 
ATOM     20  C   UNL     1       3.592   2.134  -0.021  0.00  0.00    +0.012 A 
ATOM     21  C   UNL     1       2.374   1.432  -0.013  0.00  0.00    +0.001 A 
ATOM     22  C   UNL     1       1.142   2.107   0.003  0.00  0.00    +0.013 A 
ATOM     23  C   UNL     1      -0.017   1.395   0.010  0.00  0.00    +0.046 A 
ATOM     24  C   UNL     1       0.002  -0.004   0.002  0.00  0.00    +0.126 A 
ATOM     25  C   UNL     1       1.183  -0.690  -0.013  0.00  0.00    +0.074 A 
ATOM     26  C   UNL     1       2.398   0.014  -0.020  0.00  0.00    +0.075 A 
ATOM     27  N   UNL     1       3.569  -0.631  -0.035  0.00  0.00    -0.252 NA
ENDBRANCH  16  24
ENDBRANCH   1  16
BRANCH   5  28
ATOM     28  C   UNL     1      -3.580   2.392   2.693  0.00  0.00    +0.190 C 
BRANCH  28  29
ATOM     29  O   UNL     1      -2.470   3.291   2.706  0.00  0.00    -0.392 OA
ATOM     30  H   UNL     1      -2.386   3.802   3.523  0.00  0.00    +0.210 HD
ENDBRANCH  28  29
ENDBRANCH   5  28
TORSDOF 7
