REMARK  Name = ZINC18196364
REMARK  3 active torsions:
REMARK  status: ('A' for Active; 'I' for Inactive)
REMARK    1  A    between atoms: C_4  and  C_28
REMARK    2  A    between atoms: C_5  and  C_7
REMARK    3  A    between atoms: C_12  and  C_17
REMARK                            x       y       z     vdW  Elec       q    Type
REMARK                         _______ _______ _______ _____ _____    ______ ____
ROOT
ATOM      1  C   UNL     1       0.894   3.481  -0.087  0.00  0.00    +0.176 C 
ATOM      2  C   UNL     1       1.489   2.103  -0.279  0.00  0.00    +0.041 C 
ATOM      3  C   UNL     1       2.810   1.865  -0.136  0.00  0.00    +0.020 C 
ATOM      4  C   UNL     1       3.375   0.479  -0.341  0.00  0.00    +0.060 C 
ATOM      5  C   UNL     1       2.536  -0.272  -1.377  0.00  0.00    +0.039 C 
ATOM      6  C   UNL     1       1.090  -0.333  -0.873  0.00  0.00    +0.088 C 
ATOM      7  C   UNL     1       0.602   1.066  -0.623  0.00  0.00    +0.164 C 
ATOM      8  O   UNL     1      -0.585   1.309  -0.724  0.00  0.00    -0.292 OA
ATOM      9  N   UNL     1       3.692   2.861   0.206  0.00  0.00    -0.287 N 
ATOM     10  C   UNL     1       3.175   4.049   0.696  0.00  0.00    +0.218 A 
ATOM     11  N   UNL     1       1.859   4.353   0.570  0.00  0.00    -0.221 N 
ATOM     12  N   UNL     1       1.681   5.599   1.169  0.00  0.00    -0.156 NA
ATOM     13  C   UNL     1       2.856   5.978   1.609  0.00  0.00    +0.247 A 
ATOM     14  N   UNL     1       3.759   5.036   1.318  0.00  0.00    -0.201 NA
ATOM     15  H   UNL     1       4.649   2.736   0.108  0.00  0.00    +0.155 HD
ENDROOT
BRANCH   1  20
ATOM     16  C   UNL     1       1.029   4.404  -3.746  0.00  0.00    +0.000 A 
ATOM     17  C   UNL     1      -0.141   5.125  -3.902  0.00  0.00    +0.001 A 
ATOM     18  C   UNL     1      -0.984   5.320  -2.827  0.00  0.00    +0.015 A 
ATOM     19  C   UNL     1      -0.653   4.787  -1.580  0.00  0.00    +0.069 A 
ATOM     20  C   UNL     1       0.529   4.060  -1.429  0.00  0.00    -0.004 A 
ATOM     21  C   UNL     1       1.366   3.878  -2.511  0.00  0.00    +0.007 A 
BRANCH  19  22
ATOM     22  C   UNL     1      -1.551   4.990  -0.424  0.00  0.00    +0.387 C 
ATOM     23  O   UNL     1      -1.168   4.724   0.697  0.00  0.00    -0.241 OA
ATOM     24  O   UNL     1      -2.795   5.471  -0.614  0.00  0.00    -0.241 OA
ENDBRANCH  19  22
ENDBRANCH   1  20
BRANCH   5  25
ATOM     25  C   UNL     1       3.074  -1.669  -1.550  0.00  0.00    -0.006 A 
ATOM     26  C   UNL     1       3.533  -2.274  -2.672  0.00  0.00    +0.011 A 
ATOM     27  C   UNL     1       3.986  -3.577  -2.594  0.00  0.00    +0.008 A 
ATOM     28  C   UNL     1       3.948  -4.216  -1.398  0.00  0.00    +0.045 A 
ATOM     29  S   UNL     1       3.263  -2.959  -0.331  0.00  0.00    -0.101 S 
ENDBRANCH   5  25
TORSDOF 3
