REMARK  Name = ZINC66233968
REMARK  9 active torsions:
REMARK  status: ('A' for Active; 'I' for Inactive)
REMARK    1  A    between atoms: C_1  and  C_2
REMARK    2  A    between atoms: C_5  and  C_8
REMARK    3  A    between atoms: C_10  and  C_13
REMARK    4  A    between atoms: C_13  and  C_14
REMARK    5  A    between atoms: C_14  and  N_15
REMARK    6  A    between atoms: N_18  and  C_19
REMARK    7  A    between atoms: C_19  and  C_20
REMARK    8  A    between atoms: C_20  and  C_21
REMARK    9  A    between atoms: N_25  and  C_26
REMARK                            x       y       z     vdW  Elec       q    Type
REMARK                         _______ _______ _______ _____ _____    ______ ____
ROOT
ATOM      1  N   UNL     1       1.298  -8.593   3.376  0.00  0.00    -0.299 N 
ATOM      2  C   UNL     1       2.256  -8.723   4.315  0.00  0.00    +0.300 C 
ATOM      3  O   UNL     1       3.107  -7.864   4.438  0.00  0.00    -0.253 OA
ATOM      4  N   UNL     1       2.270  -9.806   5.117  0.00  0.00    -0.299 N 
ATOM      5  H   UNL     1       0.618  -9.279   3.277  0.00  0.00    +0.150 HD
ATOM      6  H   UNL     1       1.591 -10.492   5.018  0.00  0.00    +0.150 HD
ENDROOT
BRANCH   1   7
ATOM      7  C   UNL     1       1.282  -7.416   2.504  0.00  0.00    +0.112 C 
BRANCH   7   8
ATOM      8  C   UNL     1       0.101  -7.514   1.536  0.00  0.00    +0.077 C 
BRANCH   8  11
ATOM      9  C   UNL     1       0.058  -4.251  -0.021  0.00  0.00    +0.227 A 
ATOM     10  N   UNL     1       0.068  -5.023   1.040  0.00  0.00    -0.214 NA
ATOM     11  C   UNL     1       0.085  -6.303   0.639  0.00  0.00    +0.081 A 
ATOM     12  C   UNL     1       0.085  -6.314  -0.707  0.00  0.00    +0.221 A 
ATOM     13  O   UNL     1       0.062  -5.030  -1.117  0.00  0.00    -0.443 OA
BRANCH   9  18
ATOM     14  C   UNL     1      -0.018   1.503   0.010  0.00  0.00    +0.044 C 
ATOM     15  C   UNL     1       0.002  -0.004   0.002  0.00  0.00    -0.050 A 
ATOM     16  C   UNL     1       0.006  -0.686  -1.202  0.00  0.00    +0.004 A 
ATOM     17  C   UNL     1       0.024  -2.066  -1.216  0.00  0.00    +0.013 A 
ATOM     18  C   UNL     1       0.039  -2.773  -0.013  0.00  0.00    +0.037 A 
ATOM     19  C   UNL     1       0.036  -2.079   1.198  0.00  0.00    +0.013 A 
ATOM     20  C   UNL     1       0.023  -0.699   1.198  0.00  0.00    +0.004 A 
ENDBRANCH   9  18
ENDBRANCH   8  11
ENDBRANCH   7   8
ENDBRANCH   1   7
BRANCH   4  21
ATOM     21  C   UNL     1       3.312  -9.948   6.137  0.00  0.00    +0.113 C 
BRANCH  21  22
ATOM     22  C   UNL     1       3.100 -11.255   6.904  0.00  0.00    +0.091 C 
BRANCH  22  23
ATOM     23  C   UNL     1       4.171 -11.401   7.954  0.00  0.00    +0.088 A 
ATOM     24  N   UNL     1       4.134 -10.892   9.155  0.00  0.00    -0.350 N 
ATOM     25  C   UNL     1       5.255 -11.225   9.812  0.00  0.00    +0.101 A 
ATOM     26  C   UNL     1       6.016 -11.968   8.986  0.00  0.00    +0.104 A 
ATOM     27  N   UNL     1       5.327 -12.085   7.809  0.00  0.00    -0.339 N 
ATOM     28  C   UNL     1       5.762 -12.813   6.615  0.00  0.00    +0.150 C 
ATOM     29  H   UNL     1       3.409 -10.357   9.515  0.00  0.00    +0.166 HD
ENDBRANCH  22  23
ENDBRANCH  21  22
ENDBRANCH   4  21
TORSDOF 7
