REMARK  Name = ZINC36797421
REMARK  10 active torsions:
REMARK  status: ('A' for Active; 'I' for Inactive)
REMARK    1  A    between atoms: C_1  and  C_2
REMARK    2  A    between atoms: C_2  and  N_3
REMARK    3  A    between atoms: N_3  and  C_4
REMARK    4  A    between atoms: N_3  and  C_9
REMARK    5  A    between atoms: C_4  and  C_5
REMARK    6  A    between atoms: N_7  and  C_8
REMARK    7  A    between atoms: C_9  and  C_11
REMARK    8  A    between atoms: C_9  and  C_12
REMARK    9  A    between atoms: N_14  and  C_15
REMARK   10  A    between atoms: C_20  and  N_21
REMARK                            x       y       z     vdW  Elec       q    Type
REMARK                         _______ _______ _______ _____ _____    ______ ____
ROOT
ATOM      1  C   UNL     1      -0.642  -1.895  -1.346  0.00  0.00    +0.203 C 
ATOM      2  O   UNL     1      -1.416  -0.968  -1.228  0.00  0.00    -0.277 OA
ATOM      3  N   UNL     1      -1.110  -3.155  -1.441  0.00  0.00    -0.285 N 
ATOM      4  H   UNL     1      -0.490  -3.901  -1.482  0.00  0.00    +0.155 HD
ENDROOT
BRANCH   3   5
ATOM      5  C   UNL     1      -2.492  -3.390  -1.480  0.00  0.00    +0.054 A 
ATOM      6  C   UNL     1      -3.365  -2.497  -0.877  0.00  0.00    +0.028 A 
ATOM      7  C   UNL     1      -4.727  -2.729  -0.916  0.00  0.00    +0.040 A 
ATOM      8  C   UNL     1      -5.224  -3.852  -1.556  0.00  0.00    +0.125 A 
ATOM      9  C   UNL     1      -4.359  -4.748  -2.159  0.00  0.00    +0.063 A 
ATOM     10  C   UNL     1      -2.991  -4.518  -2.129  0.00  0.00    +0.049 A 
ATOM     11  F   UNL     1      -6.556  -4.074  -1.590  0.00  0.00    -0.205 F 
BRANCH  10  12
ATOM     12  N   UNL     1      -2.115  -5.419  -2.743  0.00  0.00    -0.356 N 
ATOM     13  H   UNL     1      -1.159  -5.259  -2.718  0.00  0.00    +0.142 HD
ATOM     14  H   UNL     1      -2.464  -6.204  -3.195  0.00  0.00    +0.142 HD
ENDBRANCH  10  12
ENDBRANCH   3   5
BRANCH   1  15
ATOM     15  C   UNL     1       0.842  -1.636  -1.386  0.00  0.00    +0.017 C 
ATOM     16  C   UNL     1       1.348  -1.792  -2.822  0.00  0.00    -0.004 C 
BRANCH  15  17
ATOM     17  N   UNL     1       1.114  -0.271  -0.917  0.00  0.00    +0.393 N 
ATOM     18  H   UNL     1       0.586   0.387  -1.470  0.00  0.00    -0.080 HD
BRANCH  17  20
ATOM     19  C   UNL     1       1.565  -1.105   1.341  0.00  0.00    -0.017 C 
ATOM     20  C   UNL     1       0.721  -0.151   0.494  0.00  0.00    -0.081 C 
ENDBRANCH  17  20
BRANCH  17  21
ATOM     21  C   UNL     1       2.548   0.016  -1.052  0.00  0.00    +0.020 C 
BRANCH  21  22
ATOM     22  C   UNL     1       2.813   1.447  -0.659  0.00  0.00    +0.196 C 
ATOM     23  O   UNL     1       1.897   2.157  -0.302  0.00  0.00    -0.278 OA
ATOM     24  N   UNL     1       4.068   1.937  -0.704  0.00  0.00    -0.320 N 
ATOM     25  C   UNL     1       4.325   3.327  -0.323  0.00  0.00    +0.128 C 
ATOM     26  H   UNL     1       4.801   1.369  -0.990  0.00  0.00    +0.148 HD
ENDBRANCH  21  22
ENDBRANCH  17  21
ENDBRANCH  15  17
ENDBRANCH   1  15
TORSDOF 7
