REMARK  Name = ZINC21177653
REMARK  5 active torsions:
REMARK  status: ('A' for Active; 'I' for Inactive)
REMARK    1  A    between atoms: C_1  and  C_2
REMARK    2  A    between atoms: C_20  and  C_22
REMARK    3  A    between atoms: C_25  and  O_28
REMARK    4  A    between atoms: O_28  and  C_29
REMARK    5  A    between atoms: C_29  and  C_30
REMARK                            x       y       z     vdW  Elec       q    Type
REMARK                         _______ _______ _______ _____ _____    ______ ____
ROOT
ATOM      1  C   UNL     1       1.310   2.260  -2.932  0.00  0.00    +0.068 C 
ATOM      2  C   UNL     1       1.919   3.568  -2.495  0.00  0.00    +0.066 A 
ATOM      3  C   UNL     1       1.837   4.118  -1.223  0.00  0.00    +0.023 A 
ATOM      4  C   UNL     1       2.523   5.303  -1.230  0.00  0.00    +0.135 A 
ATOM      5  N   UNL     1       3.007   5.487  -2.478  0.00  0.00    -0.193 N 
ATOM      6  N   UNL     1       2.618   4.381  -3.252  0.00  0.00    -0.168 NA
ATOM      7  C   UNL     1       3.756   6.573  -2.917  0.00  0.00    +0.196 A 
ATOM      8  N   UNL     1       4.143   7.631  -2.244  0.00  0.00    -0.221 NA
ATOM      9  C   UNL     1       4.877   8.617  -2.801  0.00  0.00    +0.081 A 
ATOM     10  C   UNL     1       5.359   9.799  -2.191  0.00  0.00    +0.029 A 
ATOM     11  C   UNL     1       6.092  10.707  -2.908  0.00  0.00    +0.002 A 
ATOM     12  C   UNL     1       6.386  10.506  -4.249  0.00  0.00    +0.001 A 
ATOM     13  C   UNL     1       5.931   9.362  -4.878  0.00  0.00    +0.017 A 
ATOM     14  C   UNL     1       5.196   8.445  -4.168  0.00  0.00    +0.041 A 
ATOM     15  S   UNL     1       4.429   6.887  -4.542  0.00  0.00    -0.048 S 
ATOM     16  N   UNL     1       2.645   6.091  -0.088  0.00  0.00    -0.270 N 
ATOM     17  C   UNL     1       2.245   5.568   1.091  0.00  0.00    +0.219 C 
ATOM     18  O   UNL     1       2.165   6.294   2.059  0.00  0.00    -0.275 OA
ATOM     19  C   UNL     1       1.896   4.114   1.240  0.00  0.00    +0.109 C 
ATOM     20  C   UNL     1       1.147   3.593   0.010  0.00  0.00    +0.063 C 
ATOM     21  H   UNL     1       3.057   7.108  -0.162  0.00  0.00    +0.156 HD
ENDROOT
BRANCH  20  22
ATOM     22  C   UNL     1       1.171   2.086   0.002  0.00  0.00    -0.039 A 
ATOM     23  C   UNL     1      -0.017   1.377   0.010  0.00  0.00    +0.008 A 
ATOM     24  C   UNL     1       0.002  -0.004   0.002  0.00  0.00    +0.046 A 
ATOM     25  C   UNL     1       1.213  -0.680  -0.013  0.00  0.00    +0.121 A 
ATOM     26  C   UNL     1       2.403   0.033  -0.021  0.00  0.00    +0.046 A 
ATOM     27  C   UNL     1       2.379   1.415  -0.013  0.00  0.00    +0.008 A 
BRANCH  25  28
ATOM     28  O   UNL     1       1.234  -2.039  -0.021  0.00  0.00    -0.488 OA
BRANCH  28  29
ATOM     29  C   UNL     1       2.518  -2.668  -0.037  0.00  0.00    +0.256 C 
BRANCH  29  30
ATOM     30  C   UNL     1       2.343  -4.165  -0.044  0.00  0.00    +0.006 C 
ATOM     31  C   UNL     1       3.057  -4.903  -0.857  0.00  0.00    +0.007 C 
ENDBRANCH  29  30
ENDBRANCH  28  29
ENDBRANCH  25  28
ENDBRANCH  20  22
TORSDOF 4
