REMARK  Name = ZINC20020740
REMARK  7 active torsions:
REMARK  status: ('A' for Active; 'I' for Inactive)
REMARK    1  A    between atoms: C_1  and  C_2
REMARK    2  A    between atoms: C_7  and  N_8
REMARK    3  A    between atoms: N_8  and  S_9
REMARK    4  A    between atoms: S_9  and  C_12
REMARK    5  A    between atoms: C_15  and  O_19
REMARK    6  A    between atoms: C_17  and  N_18
REMARK    7  A    between atoms: O_19  and  C_20
REMARK                            x       y       z     vdW  Elec       q    Type
REMARK                         _______ _______ _______ _____ _____    ______ ____
ROOT
ATOM      1  S   UNL     1      -2.188  -0.800   1.077  0.00  0.00    +0.074 S 
ATOM      2  O   UNL     1      -3.364  -1.594   0.996  0.00  0.00    -0.150 OA
ATOM      3  O   UNL     1      -0.889  -1.338   0.872  0.00  0.00    -0.150 OA
ENDROOT
BRANCH   1   4
ATOM      4  C   UNL     1      -2.183  -0.069   2.681  0.00  0.00    +0.129 A 
ATOM      5  C   UNL     1      -3.182  -0.379   3.583  0.00  0.00    +0.034 A 
ATOM      6  C   UNL     1      -3.181   0.192   4.842  0.00  0.00    +0.047 A 
ATOM      7  C   UNL     1      -2.176   1.079   5.203  0.00  0.00    +0.122 A 
ATOM      8  C   UNL     1      -1.173   1.392   4.300  0.00  0.00    +0.070 A 
ATOM      9  C   UNL     1      -1.172   0.814   3.038  0.00  0.00    +0.055 A 
BRANCH   9  10
ATOM     10  N   UNL     1      -0.159   1.122   2.128  0.00  0.00    -0.356 N 
ATOM     11  H   UNL     1       0.642   1.821   2.412  0.00  0.00    +0.142 HD
ATOM     12  H   UNL     1      -0.161   0.666   1.127  0.00  0.00    +0.142 HD
ENDBRANCH   9  10
BRANCH   7  13
ATOM     13  O   UNL     1      -2.176   1.638   6.441  0.00  0.00    -0.495 OA
ATOM     14  C   UNL     1      -3.241   1.269   7.320  0.00  0.00    +0.277 C 
ENDBRANCH   7  13
ENDBRANCH   1   4
BRANCH   1  15
ATOM     15  N   UNL     1      -2.370   0.428  -0.019  0.00  0.00    -0.216 N 
ATOM     16  H   UNL     1      -1.543   0.687  -0.697  0.00  0.00    +0.174 HD
BRANCH  15  23
ATOM     17  C   UNL     1      -3.279   1.300  -2.570  0.00  0.00    +0.046 C 
ATOM     18  C   UNL     1      -4.055   1.579  -1.308  0.00  0.00    -0.027 A 
ATOM     19  C   UNL     1      -5.242   2.283  -1.368  0.00  0.00    +0.020 A 
ATOM     20  C   UNL     1      -5.954   2.540  -0.210  0.00  0.00    +0.018 A 
ATOM     21  C   UNL     1      -5.480   2.093   1.010  0.00  0.00    +0.017 A 
ATOM     22  C   UNL     1      -4.294   1.389   1.077  0.00  0.00    +0.026 A 
ATOM     23  C   UNL     1      -3.574   1.134  -0.084  0.00  0.00    +0.051 A 
ATOM     24 BR   UNL     1      -7.579   3.503  -0.296  0.00  0.00    -0.050 Br
ENDBRANCH  15  23
ENDBRANCH   1  15
TORSDOF 5
