REMARK  Name = ZINC42866971
REMARK  4 active torsions:
REMARK  status: ('A' for Active; 'I' for Inactive)
REMARK    1  A    between atoms: C_5  and  C_6
REMARK    2  A    between atoms: N_8  and  N_9
REMARK    3  A    between atoms: N_12  and  C_13
REMARK    4  A    between atoms: C_13  and  C_14
REMARK                            x       y       z     vdW  Elec       q    Type
REMARK                         _______ _______ _______ _____ _____    ______ ____
ROOT
ATOM      1  C   UNL     1      -1.120  -0.947  -0.017  0.00  0.00    +0.267 C 
ATOM      2  O   UNL     1      -2.264  -0.531  -0.028  0.00  0.00    -0.268 OA
ATOM      3  N   UNL     1      -0.886  -2.274  -0.021  0.00  0.00    -0.229 N 
ATOM      4  H   UNL     1       0.026  -2.605  -0.012  0.00  0.00    +0.173 HD
ENDROOT
BRANCH   1   9
ATOM      5  C   UNL     1      -0.017   1.373   0.010  0.00  0.00    +0.024 A 
ATOM      6  C   UNL     1       1.220   2.026   0.001  0.00  0.00    -0.036 A 
ATOM      7  C   UNL     1       2.318   1.249  -0.055  0.00  0.00    -0.006 A 
ATOM      8  S   UNL     1       1.751  -0.336   0.022  0.00  0.00    -0.088 S 
ATOM      9  C   UNL     1       0.002  -0.004   0.002  0.00  0.00    +0.076 A 
ATOM     10  C   UNL     1       3.782   1.565  -0.240  0.00  0.00    +0.043 C 
ATOM     11  C   UNL     1       4.036   3.063  -0.409  0.00  0.00    +0.005 C 
ATOM     12  C   UNL     1       4.022   3.772   0.935  0.00  0.00    +0.000 C 
ATOM     13  C   UNL     1       2.973   3.221   1.880  0.00  0.00    +0.000 C 
ATOM     14  C   UNL     1       1.654   3.921   1.538  0.00  0.00    +0.005 C 
ATOM     15  C   UNL     1       1.248   3.543   0.113  0.00  0.00    +0.036 C 
ENDBRANCH   1   9
BRANCH   3  16
ATOM     16  N   UNL     1      -1.959  -3.175  -0.039  0.00  0.00    -0.218 N 
ATOM     17  C   UNL     1      -1.724  -4.502  -0.044  0.00  0.00    +0.316 C 
ATOM     18  O   UNL     1      -2.655  -5.284  -0.060  0.00  0.00    -0.251 OA
ATOM     19  N   UNL     1      -0.458  -4.962  -0.032  0.00  0.00    -0.296 N 
ATOM     20  H   UNL     1      -2.870  -2.843  -0.049  0.00  0.00    +0.174 HD
ATOM     21  H   UNL     1       0.285  -4.339  -0.019  0.00  0.00    +0.150 HD
BRANCH  19  22
ATOM     22  C   UNL     1      -0.203  -6.405  -0.037  0.00  0.00    +0.137 C 
BRANCH  22  23
ATOM     23  C   UNL     1       1.306  -6.656  -0.020  0.00  0.00    +0.135 C 
ATOM     24  C   UNL     1       1.587  -8.169  -0.147  0.00  0.00    +0.035 C 
ATOM     25  C   UNL     1       2.779  -8.366   0.828  0.00  0.00    +0.031 C 
ATOM     26  C   UNL     1       2.434  -7.331   1.928  0.00  0.00    +0.160 C 
ATOM     27  O   UNL     1       1.859  -6.215   1.226  0.00  0.00    -0.375 OA
ENDBRANCH  22  23
ENDBRANCH  19  22
ENDBRANCH   3  16
TORSDOF 4
