REMARK  Name = ZINC46763237
REMARK  9 active torsions:
REMARK  status: ('A' for Active; 'I' for Inactive)
REMARK    1  A    between atoms: C_1  and  C_2
REMARK    2  A    between atoms: C_5  and  C_29
REMARK    3  A    between atoms: N_8  and  C_10
REMARK    4  A    between atoms: C_10  and  C_11
REMARK    5  A    between atoms: C_11  and  C_12
REMARK    6  A    between atoms: C_12  and  C_13
REMARK    7  A    between atoms: C_13  and  N_14
REMARK    8  A    between atoms: N_17  and  N_18
REMARK    9  A    between atoms: C_19  and  C_21
REMARK                            x       y       z     vdW  Elec       q    Type
REMARK                         _______ _______ _______ _____ _____    ______ ____
ROOT
ATOM      1  N   UNL     1       6.033  -2.576   4.436  0.00  0.00    -0.298 N 
ATOM      2  C   UNL     1       7.352  -2.312   4.518  0.00  0.00    +0.316 C 
ATOM      3  O   UNL     1       7.900  -1.674   3.640  0.00  0.00    -0.251 OA
ATOM      4  N   UNL     1       8.063  -2.753   5.575  0.00  0.00    -0.218 N 
ATOM      5  H   UNL     1       5.596  -3.085   5.136  0.00  0.00    +0.150 HD
ATOM      6  H   UNL     1       9.012  -2.563   5.634  0.00  0.00    +0.174 HD
ENDROOT
BRANCH   4   7
ATOM      7  N   UNL     1       7.431  -3.488   6.587  0.00  0.00    -0.233 N 
ATOM      8  C   UNL     1       8.142  -3.929   7.643  0.00  0.00    +0.234 C 
ATOM      9  O   UNL     1       9.329  -3.691   7.717  0.00  0.00    -0.274 OA
ATOM     10  H   UNL     1       6.482  -3.678   6.527  0.00  0.00    +0.173 HD
BRANCH   8  11
ATOM     11  C   UNL     1       7.463  -4.720   8.732  0.00  0.00    +0.099 C 
ATOM     12  C   UNL     1       6.370  -3.862   9.391  0.00  0.00    +0.037 C 
ATOM     13  C   UNL     1       5.891  -4.533  10.701  0.00  0.00    +0.166 C 
ATOM     14  S   UNL     1       7.377  -5.474  11.239  0.00  0.00    -0.030 S 
ATOM     15  O   UNL     1       7.903  -4.875  12.415  0.00  0.00    -0.174 OA
ATOM     16  O   UNL     1       7.070  -6.862  11.239  0.00  0.00    -0.174 OA
ATOM     17  C   UNL     1       8.499  -5.107   9.825  0.00  0.00    +0.178 C 
ENDBRANCH   8  11
ENDBRANCH   4   7
BRANCH   1  18
ATOM     18  C   UNL     1       5.260  -2.096   3.288  0.00  0.00    +0.106 C 
BRANCH  18  19
ATOM     19  C   UNL     1       3.800  -2.529   3.438  0.00  0.00    +0.017 C 
BRANCH  19  20
ATOM     20  C   UNL     1       2.993  -2.028   2.239  0.00  0.00    -0.017 C 
BRANCH  20  21
ATOM     21  C   UNL     1       1.534  -2.461   2.390  0.00  0.00    -0.079 C 
BRANCH  21  27
ATOM     22  C   UNL     1      -0.019   1.526   0.010  0.00  0.00    +0.005 C 
ATOM     23  C   UNL     1       0.002  -0.004   0.002  0.00  0.00    -0.031 C 
ATOM     24  C   UNL     1      -1.434  -0.535   0.015  0.00  0.00    +0.003 C 
ATOM     25  C   UNL     1      -1.402  -2.064   0.086  0.00  0.00    -0.031 C 
ATOM     26  C   UNL     1      -0.613  -2.496   1.324  0.00  0.00    -0.076 C 
ATOM     27  N   UNL     1       0.758  -1.980   1.239  0.00  0.00    +0.380 N 
ATOM     28  C   UNL     1       0.740  -0.512   1.242  0.00  0.00    -0.076 C 
ATOM     29  C   UNL     1      -2.832  -2.602   0.177  0.00  0.00    +0.005 C 
ATOM     30  H   UNL     1       1.188  -2.307   0.386  0.00  0.00    -0.082 HD
ENDBRANCH  21  27
ENDBRANCH  20  21
ENDBRANCH  19  20
ENDBRANCH  18  19
ENDBRANCH   1  18
TORSDOF 7
