REMARK  Name = ZINC19726921
REMARK  2 active torsions:
REMARK  status: ('A' for Active; 'I' for Inactive)
REMARK    1  A    between atoms: C_8  and  C_11
REMARK    2  A    between atoms: C_11  and  C_12
REMARK                            x       y       z     vdW  Elec       q    Type
REMARK                         _______ _______ _______ _____ _____    ______ ____
ROOT
ATOM      1  C   UNL     1       2.733   3.784  -0.338  0.00  0.00    +0.005 C 
ATOM      2  C   UNL     1       2.446   3.178  -1.735  0.00  0.00    +0.005 C 
ATOM      3  C   UNL     1       1.928   1.755  -1.431  0.00  0.00    +0.065 C 
ATOM      4  C   UNL     1       1.377   1.792  -0.002  0.00  0.00    +0.171 C 
ATOM      5  C   UNL     1       1.575   3.221   0.526  0.00  0.00    +0.065 C 
ATOM      6  O   UNL     1       2.053   0.847   0.832  0.00  0.00    -0.346 OA
ATOM      7  C   UNL     1       1.237  -0.340   0.868  0.00  0.00    +0.196 C 
ATOM      8  C   UNL     1       0.002  -0.004   0.002  0.00  0.00    +0.161 C 
ATOM      9  O   UNL     1      -0.018   1.445   0.010  0.00  0.00    -0.342 OA
ENDROOT
BRANCH   8  10
ATOM     10  C   UNL     1      -1.272  -0.566   0.636  0.00  0.00    +0.152 C 
BRANCH  10  11
ATOM     11  C   UNL     1      -2.429  -0.232  -0.210  0.00  0.00    +0.065 C 
ATOM     12  N   UNL     1      -3.323   0.026  -0.863  0.00  0.00    -0.196 NA
ENDBRANCH  10  11
ENDBRANCH   8  10
TORSDOF 2
