REMARK  Name = ZINC02148935
REMARK  4 active torsions:
REMARK  status: ('A' for Active; 'I' for Inactive)
REMARK    1  A    between atoms: C_4  and  C_7
REMARK    2  A    between atoms: C_7  and  N_8
REMARK    3  A    between atoms: C_28  and  C_30
REMARK    4  A    between atoms: C_34  and  N_36
REMARK                            x       y       z     vdW  Elec       q    Type
REMARK                         _______ _______ _______ _____ _____    ______ ____
ROOT
ATOM      1  N   UNL     1       1.137   3.170  -0.990  0.00  0.00    -0.287 N 
ATOM      2  C   UNL     1       1.242   1.722  -0.924  0.00  0.00    +0.204 C 
ATOM      3  C   UNL     1      -0.059   1.081  -0.568  0.00  0.00    +0.234 C 
ATOM      4  O   UNL     1      -0.095  -0.130  -0.506  0.00  0.00    -0.274 OA
ATOM      5  N   UNL     1      -1.187   1.750  -0.318  0.00  0.00    -0.276 N 
ATOM      6  C   UNL     1      -1.257   3.210  -0.278  0.00  0.00    +0.167 C 
ATOM      7  C   UNL     1       0.026   3.846  -0.706  0.00  0.00    +0.237 C 
ATOM      8  O   UNL     1       0.057   5.055  -0.800  0.00  0.00    -0.274 OA
ATOM      9  C   UNL     1      -1.608   3.663   1.146  0.00  0.00    +0.069 C 
ATOM     10  C   UNL     1      -2.735   2.807   1.665  0.00  0.00    -0.015 A 
ATOM     11  C   UNL     1      -3.616   3.066   2.786  0.00  0.00    +0.003 A 
ATOM     12  C   UNL     1      -3.709   4.126   3.693  0.00  0.00    +0.010 A 
ATOM     13  C   UNL     1      -4.688   4.037   4.652  0.00  0.00    +0.001 A 
ATOM     14  C   UNL     1      -5.549   2.955   4.727  0.00  0.00    +0.002 A 
ATOM     15  C   UNL     1      -5.480   1.893   3.842  0.00  0.00    +0.026 A 
ATOM     16  C   UNL     1      -4.496   1.956   2.857  0.00  0.00    +0.047 A 
ATOM     17  N   UNL     1      -4.156   1.103   1.847  0.00  0.00    -0.356 N 
ATOM     18  H   UNL     1      -4.594   0.258   1.659  0.00  0.00    +0.166 HD
ATOM     19  C   UNL     1      -3.104   1.619   1.139  0.00  0.00    +0.046 A 
ATOM     20  C   UNL     1      -2.429   0.992  -0.060  0.00  0.00    +0.154 C 
ENDROOT
BRANCH  20  21
ATOM     21  C   UNL     1      -2.099  -0.449   0.234  0.00  0.00    -0.019 A 
ATOM     22  C   UNL     1      -1.419  -0.781   1.391  0.00  0.00    +0.006 A 
ATOM     23  C   UNL     1      -1.117  -2.102   1.661  0.00  0.00    +0.003 A 
ATOM     24  C   UNL     1      -1.495  -3.093   0.773  0.00  0.00    +0.033 A 
ATOM     25  C   UNL     1      -2.176  -2.761  -0.383  0.00  0.00    +0.127 A 
ATOM     26  C   UNL     1      -2.482  -1.440  -0.650  0.00  0.00    +0.038 A 
BRANCH  25  27
ATOM     27  N   UNL     1      -2.580  -3.821  -1.333  0.00  0.00    +0.056 N 
ATOM     28  O   UNL     1      -2.313  -4.986  -1.096  0.00  0.00    -0.126 OA
ATOM     29  O   UNL     1      -3.180  -3.530  -2.352  0.00  0.00    -0.126 OA
ENDBRANCH  25  27
ENDBRANCH  20  21
BRANCH   1  30
ATOM     30  C   UNL     1       2.324   3.930  -1.392  0.00  0.00    +0.143 C 
BRANCH  30  34
ATOM     31  C   UNL     1       2.336   4.412  -5.636  0.00  0.00    +0.000 A 
ATOM     32  C   UNL     1       1.719   5.354  -4.835  0.00  0.00    +0.000 A 
ATOM     33  C   UNL     1       1.714   5.198  -3.462  0.00  0.00    +0.005 A 
ATOM     34  C   UNL     1       2.328   4.100  -2.889  0.00  0.00    -0.030 A 
ATOM     35  C   UNL     1       2.950   3.160  -3.689  0.00  0.00    +0.005 A 
ATOM     36  C   UNL     1       2.950   3.313  -5.063  0.00  0.00    +0.000 A 
ENDBRANCH  30  34
ENDBRANCH   1  30
TORSDOF 4
