REMARK  Name = ZINC41091006
REMARK  3 active torsions:
REMARK  status: ('A' for Active; 'I' for Inactive)
REMARK    1  A    between atoms: C_1  and  C_2
REMARK    2  A    between atoms: C_2  and  C_3
REMARK    3  A    between atoms: N_15  and  C_16
REMARK                            x       y       z     vdW  Elec       q    Type
REMARK                         _______ _______ _______ _____ _____    ______ ____
ROOT
ATOM      1  C   UNL     1       0.731  -0.503   1.223  0.00  0.00    +0.132 A 
ATOM      2  N   UNL     1       2.037  -0.695   1.161  0.00  0.00    -0.217 NA
ATOM      3  C   UNL     1       2.734  -1.132   2.198  0.00  0.00    +0.131 A 
ATOM      4  C   UNL     1       2.057  -1.404   3.419  0.00  0.00    +0.051 A 
ATOM      5  C   UNL     1       2.620  -1.892   4.689  0.00  0.00    -0.025 A 
ATOM      6  C   UNL     1       1.760  -2.071   5.704  0.00  0.00    -0.004 A 
ATOM      7  S   UNL     1       0.172  -1.608   5.053  0.00  0.00    -0.073 S 
ATOM      8  C   UNL     1       0.669  -1.176   3.409  0.00  0.00    +0.114 A 
ATOM      9  N   UNL     1       0.051  -0.733   2.330  0.00  0.00    -0.225 NA
ATOM     10  C   UNL     1       2.445  -2.576   6.946  0.00  0.00    +0.043 C 
ATOM     11  C   UNL     1       3.808  -3.105   6.450  0.00  0.00    +0.010 C 
ATOM     12  C   UNL     1       4.023  -2.267   5.174  0.00  0.00    +0.037 C 
ATOM     13  N   UNL     1       4.101  -1.322   2.096  0.00  0.00    -0.326 N 
ATOM     14  H   UNL     1       4.604  -1.642   2.860  0.00  0.00    +0.148 HD
ENDROOT
BRANCH  13  15
ATOM     15  C   UNL     1       4.787  -1.039   0.833  0.00  0.00    +0.072 C 
ATOM     16  C   UNL     1       5.829  -2.050   0.353  0.00  0.00    +0.024 C 
ATOM     17  C   UNL     1       6.276  -0.693   0.900  0.00  0.00    +0.024 C 
ENDBRANCH  13  15
BRANCH   1  19
ATOM     18  C   UNL     1      -0.019   1.526   0.010  0.00  0.00    +0.012 C 
ATOM     19  C   UNL     1       0.002  -0.004   0.002  0.00  0.00    +0.073 C 
ENDBRANCH   1  19
TORSDOF 2
