REMARK  Name = ZINC08157396
REMARK  9 active torsions:
REMARK  status: ('A' for Active; 'I' for Inactive)
REMARK    1  A    between atoms: C_1  and  C_2
REMARK    2  A    between atoms: C_4  and  C_28
REMARK    3  A    between atoms: C_5  and  N_9
REMARK    4  A    between atoms: C_6  and  C_8
REMARK    5  A    between atoms: C_10  and  C_12
REMARK    6  A    between atoms: C_12  and  N_55
REMARK    7  A    between atoms: C_13  and  N_55
REMARK    8  A    between atoms: C_14  and  C_15
REMARK    9  A    between atoms: C_14  and  N_55
REMARK                            x       y       z     vdW  Elec       q    Type
REMARK                         _______ _______ _______ _____ _____    ______ ____
ROOT
ATOM      1  C   UNL     1      -6.291   1.871  -0.128  0.00  0.00    -0.095 C 
ATOM      2  N   UNL     1      -5.991   2.883  -1.162  0.00  0.00    +0.389 N 
ATOM      3  H   UNL     1      -5.607   2.410  -1.989  0.00  0.00    -0.081 HD
ENDROOT
BRANCH   2   4
ATOM      4  C   UNL     1      -4.993   3.846  -0.653  0.00  0.00    +0.019 C 
BRANCH   4   6
ATOM      5  N   UNL     1      -2.598   3.812  -0.036  0.00  0.00    -0.287 N 
ATOM      6  C   UNL     1      -3.676   3.135  -0.477  0.00  0.00    +0.201 C 
ATOM      7  O   UNL     1      -3.587   1.952  -0.732  0.00  0.00    -0.278 OA
ATOM      8  H   UNL     1      -2.685   4.739   0.234  0.00  0.00    +0.155 HD
BRANCH   5  13
ATOM      9  C   UNL     1       2.452   1.240   0.235  0.00  0.00    +0.044 C 
ATOM     10  C   UNL     1       1.110   1.923   0.163  0.00  0.00    -0.050 A 
ATOM     11  C   UNL     1       0.499   2.115  -1.062  0.00  0.00    +0.008 A 
ATOM     12  C   UNL     1      -0.728   2.745  -1.132  0.00  0.00    -0.029 A 
ATOM     13  C   UNL     1      -1.352   3.178   0.031  0.00  0.00    +0.039 A 
ATOM     14  C   UNL     1      -0.735   2.983   1.260  0.00  0.00    -0.029 A 
ATOM     15  C   UNL     1       0.494   2.356   1.322  0.00  0.00    +0.008 A 
ATOM     16  C   UNL     1      -1.406   3.456   2.523  0.00  0.00    +0.045 C 
ATOM     17  C   UNL     1      -1.391   2.960  -2.469  0.00  0.00    +0.045 C 
ENDBRANCH   5  13
ENDBRANCH   4   6
ENDBRANCH   2   4
BRANCH   2  18
ATOM     18  C   UNL     1      -7.228   3.593  -1.547  0.00  0.00    +0.019 C 
BRANCH  18  19
ATOM     19  C   UNL     1      -8.140   2.630  -2.263  0.00  0.00    +0.204 C 
ATOM     20  O   UNL     1      -7.801   1.476  -2.418  0.00  0.00    -0.277 OA
ATOM     21  N   UNL     1      -9.332   3.051  -2.731  0.00  0.00    -0.262 N 
ATOM     22  C   UNL     1      -9.769   4.443  -2.551  0.00  0.00    +0.209 C 
ATOM     23  C   UNL     1     -11.224   4.461  -2.173  0.00  0.00    +0.235 C 
ATOM     24  O   UNL     1     -11.654   5.366  -1.491  0.00  0.00    -0.274 OA
ATOM     25  N   UNL     1     -12.054   3.482  -2.580  0.00  0.00    -0.283 N 
ATOM     26  C   UNL     1     -11.573   2.400  -3.326  0.00  0.00    +0.055 A 
ATOM     27  C   UNL     1     -10.198   2.173  -3.401  0.00  0.00    +0.058 A 
ATOM     28  C   UNL     1      -9.709   1.100  -4.124  0.00  0.00    +0.025 A 
ATOM     29  C   UNL     1     -10.588   0.254  -4.777  0.00  0.00    +0.002 A 
ATOM     30  C   UNL     1     -11.950   0.479  -4.707  0.00  0.00    +0.002 A 
ATOM     31  C   UNL     1     -12.446   1.549  -3.984  0.00  0.00    +0.025 A 
ATOM     32  H   UNL     1     -12.996   3.527  -2.353  0.00  0.00    +0.155 HD
ENDBRANCH  18  19
ENDBRANCH   2  18
TORSDOF 5
