REMARK  Name = ZINC62789297
REMARK  3 active torsions:
REMARK  status: ('A' for Active; 'I' for Inactive)
REMARK    1  A    between atoms: C_3  and  C_17
REMARK    2  A    between atoms: C_4  and  N_8
REMARK    3  A    between atoms: N_18  and  O_19
REMARK                            x       y       z     vdW  Elec       q    Type
REMARK                         _______ _______ _______ _____ _____    ______ ____
ROOT
ATOM      1  C   UNL     1       0.094   1.574  -0.197  0.00  0.00    +0.021 A 
ATOM      2  C   UNL     1       1.325   2.196  -0.192  0.00  0.00    +0.014 A 
ATOM      3  C   UNL     1       2.488   1.438  -0.065  0.00  0.00    +0.039 A 
ATOM      4  C   UNL     1       2.398   0.044   0.058  0.00  0.00    +0.042 A 
ATOM      5  C   UNL     1       1.153  -0.567   0.051  0.00  0.00    +0.043 A 
ATOM      6  C   UNL     1       0.007   0.196  -0.076  0.00  0.00    +0.043 A 
ATOM      7 CL   UNL     1      -1.548  -0.575  -0.083  0.00  0.00    -0.083 Cl
ENDROOT
BRANCH   4   8
ATOM      8  N   UNL     1       3.553  -0.723   0.186  0.00  0.00    -0.325 N 
ATOM      9  C   UNL     1       4.030  -1.136   1.514  0.00  0.00    +0.110 C 
ATOM     10  C   UNL     1       3.944  -2.668   1.601  0.00  0.00    +0.061 C 
ATOM     11  C   UNL     1       4.447  -3.250   0.320  0.00  0.00    -0.004 A 
ATOM     12  C   UNL     1       4.626  -2.619  -0.872  0.00  0.00    -0.020 A 
ATOM     13  C   UNL     1       5.104  -3.396  -1.926  0.00  0.00    +0.013 A 
ATOM     14  C   UNL     1       5.370  -4.708  -1.733  0.00  0.00    +0.046 A 
ATOM     15  S   UNL     1       4.949  -4.919  -0.009  0.00  0.00    -0.101 S 
ATOM     16  C   UNL     1       4.309  -1.135  -1.005  0.00  0.00    +0.141 C 
ENDBRANCH   4   8
BRANCH   3  17
ATOM     17  C   UNL     1       3.810   2.100  -0.059  0.00  0.00    +0.164 C 
ATOM     18  N   UNL     1       4.160   2.862  -1.055  0.00  0.00    -0.071 NA
ATOM     19  N   UNL     1       4.675   1.911   1.005  0.00  0.00    -0.340 N 
ATOM     20  H   UNL     1       4.414   1.343   1.747  0.00  0.00    +0.144 HD
ATOM     21  H   UNL     1       5.542   2.345   1.009  0.00  0.00    +0.144 HD
BRANCH  18  22
ATOM     22  O   UNL     1       3.240   3.133  -2.097  0.00  0.00    -0.408 OA
ATOM     23  H   UNL     1       3.563   3.768  -2.752  0.00  0.00    +0.328 HD
ENDBRANCH  18  22
ENDBRANCH   3  17
TORSDOF 3
