REMARK  Name = ZINC49947120
REMARK  7 active torsions:
REMARK  status: ('A' for Active; 'I' for Inactive)
REMARK    1  A    between atoms: C_1  and  C_2
REMARK    2  A    between atoms: C_2  and  C_4
REMARK    3  A    between atoms: C_5  and  O_22
REMARK    4  A    between atoms: C_7  and  N_21
REMARK    5  A    between atoms: C_8  and  C_19
REMARK    6  A    between atoms: O_22  and  C_23
REMARK    7  A    between atoms: C_23  and  C_24
REMARK                            x       y       z     vdW  Elec       q    Type
REMARK                         _______ _______ _______ _____ _____    ______ ____
ROOT
ATOM      1  C   UNL     1      -1.192  -0.718   0.115  0.00  0.00    +0.099 C 
ATOM      2  C   UNL     1      -1.158  -2.075   0.215  0.00  0.00    +0.297 C 
ATOM      3  O   UNL     1      -2.282  -2.801   0.323  0.00  0.00    -0.410 OA
ATOM      4  C   UNL     1      -3.434  -2.213   0.693  0.00  0.00    +0.203 C 
ATOM      5  C   UNL     1      -3.604  -0.870   0.622  0.00  0.00    +0.110 C 
ATOM      6  C   UNL     1      -2.500   0.018   0.131  0.00  0.00    +0.148 C 
ATOM      7  C   UNL     1      -2.825   0.547  -1.244  0.00  0.00    -0.001 A 
ATOM      8  C   UNL     1      -3.046  -0.064  -2.458  0.00  0.00    +0.007 A 
ATOM      9  C   UNL     1      -3.330   0.702  -3.575  0.00  0.00    +0.000 A 
ATOM     10  C   UNL     1      -3.392   2.080  -3.467  0.00  0.00    +0.002 A 
ATOM     11  C   UNL     1      -3.171   2.695  -2.252  0.00  0.00    +0.023 A 
ATOM     12  C   UNL     1      -2.885   1.930  -1.123  0.00  0.00    +0.038 A 
ATOM     13  N   UNL     1      -2.629   2.311   0.195  0.00  0.00    -0.284 N 
ATOM     14  C   UNL     1      -2.394   1.254   0.993  0.00  0.00    +0.238 C 
ATOM     15  O   UNL     1      -2.146   1.287   2.180  0.00  0.00    -0.274 OA
ATOM     16  H   UNL     1      -2.621   3.232   0.500  0.00  0.00    +0.155 HD
ENDROOT
BRANCH   1  18
ATOM     17  C   UNL     1      -0.022   1.502  -0.037  0.00  0.00    +0.091 C 
ATOM     18  C   UNL     1       0.002  -0.004   0.002  0.00  0.00    +0.165 C 
ATOM     19  O   UNL     1       1.062  -0.597  -0.065  0.00  0.00    -0.292 OA
ENDBRANCH   1  18
BRANCH   4  20
ATOM     20  N   UNL     1      -4.465  -2.994   1.154  0.00  0.00    -0.328 N 
ATOM     21  H   UNL     1      -4.357  -3.956   1.210  0.00  0.00    +0.145 HD
ATOM     22  H   UNL     1      -5.301  -2.583   1.424  0.00  0.00    +0.145 HD
ENDBRANCH   4  20
BRANCH   5  23
ATOM     23  C   UNL     1      -4.850  -0.292   1.025  0.00  0.00    +0.102 C 
ATOM     24  N   UNL     1      -5.839   0.167   1.345  0.00  0.00    -0.191 NA
ENDBRANCH   5  23
BRANCH   2  25
ATOM     25  O   UNL     1       0.034  -2.705   0.205  0.00  0.00    -0.459 OA
BRANCH  25  26
ATOM     26  C   UNL     1       0.015  -4.130   0.313  0.00  0.00    +0.267 C 
BRANCH  26  27
ATOM     27  C   UNL     1       1.427  -4.655   0.285  0.00  0.00    -0.010 A 
ATOM     28  C   UNL     1       2.019  -4.980  -0.921  0.00  0.00    +0.007 A 
ATOM     29  C   UNL     1       3.315  -5.462  -0.948  0.00  0.00    +0.000 A 
ATOM     30  C   UNL     1       4.018  -5.618   0.232  0.00  0.00    +0.000 A 
ATOM     31  C   UNL     1       3.426  -5.292   1.438  0.00  0.00    +0.000 A 
ATOM     32  C   UNL     1       2.132  -4.806   1.464  0.00  0.00    +0.007 A 
ENDBRANCH  26  27
ENDBRANCH  25  26
ENDBRANCH   2  25
TORSDOF 6
