REMARK  Name = ZINC40998918
REMARK  1 active torsions:
REMARK  status: ('A' for Active; 'I' for Inactive)
REMARK    1  A    between atoms: C_2  and  N_10
REMARK                            x       y       z     vdW  Elec       q    Type
REMARK                         _______ _______ _______ _____ _____    ______ ____
ROOT
ATOM      1  N   UNL     1       1.701   3.123   0.002  0.00  0.00    -0.324 N 
ATOM      2  C   UNL     1       1.944   3.948  -1.194  0.00  0.00    +0.106 C 
ATOM      3  C   UNL     1       2.984   5.002  -0.741  0.00  0.00    +0.022 C 
ATOM      4  C   UNL     1       2.537   5.296   0.711  0.00  0.00    -0.008 C 
ATOM      5  C   UNL     1       1.973   3.932   1.198  0.00  0.00    +0.058 C 
ATOM      6  C   UNL     1       0.640   4.274   1.889  0.00  0.00    -0.060 C 
ATOM      7  N   UNL     1       0.485   5.743   1.837  0.00  0.00    +0.380 N 
ATOM      8  C   UNL     1       1.289   6.209   0.669  0.00  0.00    -0.077 C 
ATOM      9  H   UNL     1      -0.487   5.987   1.718  0.00  0.00    -0.086 HD
ATOM     10  H   UNL     1       0.849   6.161   2.680  0.00  0.00    -0.086 HD
ENDROOT
BRANCH   1  12
ATOM     11  C   UNL     1      -0.016   1.355   0.009  0.00  0.00    +0.130 A 
ATOM     12  C   UNL     1       1.272   1.782  -0.001  0.00  0.00    +0.099 A 
ATOM     13  C   UNL     1       2.100   0.651  -0.015  0.00  0.00    +0.256 A 
ATOM     14  N   UNL     1       1.341  -0.415  -0.013  0.00  0.00    -0.147 NA
ATOM     15  N   UNL     1       0.002  -0.004   0.002  0.00  0.00    -0.281 N 
ATOM     16  H   UNL     1      -0.774  -0.586   0.007  0.00  0.00    +0.188 HD
ATOM     17  N   UNL     1       3.580   0.660  -0.029  0.00  0.00    +0.079 N 
ATOM     18  O   UNL     1       4.178   1.712  -0.029  0.00  0.00    -0.124 OA
ATOM     19  O   UNL     1       4.191  -0.383  -0.040  0.00  0.00    -0.124 OA
ENDBRANCH   1  12
TORSDOF 1
