REMARK  Name = ZINC19554220
REMARK  8 active torsions:
REMARK  status: ('A' for Active; 'I' for Inactive)
REMARK    1  A    between atoms: C_1  and  C_2
REMARK    2  A    between atoms: C_3  and  C_8
REMARK    3  A    between atoms: N_6  and  C_7
REMARK    4  A    between atoms: C_10  and  C_13
REMARK    5  A    between atoms: N_15  and  C_16
REMARK    6  A    between atoms: C_16  and  C_22
REMARK    7  A    between atoms: C_22  and  N_23
REMARK    8  A    between atoms: C_26  and  C_29
REMARK                            x       y       z     vdW  Elec       q    Type
REMARK                         _______ _______ _______ _____ _____    ______ ____
ROOT
ATOM      1  C   UNL     1       3.016   4.419   3.183  0.00  0.00    +0.282 C 
ATOM      2  O   UNL     1       4.023   3.833   3.530  0.00  0.00    -0.267 OA
ATOM      3  N   UNL     1       2.592   4.333   1.907  0.00  0.00    -0.305 N 
ATOM      4  H   UNL     1       1.637   4.793   1.613  0.00  0.00    +0.150 HD
ENDROOT
BRANCH   3   5
ATOM      5  C   UNL     1       3.403   3.628   0.911  0.00  0.00    +0.020 C 
ATOM      6  C   UNL     1       2.754   3.769  -0.467  0.00  0.00    +0.024 C 
ATOM      7  C   UNL     1       2.664   5.250  -0.840  0.00  0.00    +0.002 C 
ATOM      8  C   UNL     1       4.069   5.854  -0.873  0.00  0.00    +0.000 C 
ATOM      9  C   UNL     1       4.718   5.713   0.506  0.00  0.00    +0.002 C 
ATOM     10  C   UNL     1       4.808   4.232   0.878  0.00  0.00    +0.024 C 
BRANCH   5  11
ATOM     11  C   UNL     1       3.493   2.147   1.283  0.00  0.00    -0.053 C 
BRANCH  11  12
ATOM     12  N   UNL     1       2.168   1.527   1.151  0.00  0.00    +0.381 N 
ATOM     13  C   UNL     1       2.263   0.063   1.216  0.00  0.00    -0.078 C 
ATOM     14  C   UNL     1       0.890  -0.551   0.930  0.00  0.00    -0.016 C 
ATOM     15  C   UNL     1      -0.117  -0.041   1.963  0.00  0.00    -0.018 C 
ATOM     16  C   UNL     1      -0.162   1.489   1.909  0.00  0.00    -0.016 C 
ATOM     17  C   UNL     1       1.241   2.044   2.166  0.00  0.00    -0.078 C 
ATOM     18  C   UNL     1      -1.504  -0.604   1.646  0.00  0.00    +0.007 C 
ATOM     19  H   UNL     1       1.765   1.794   0.163  0.00  0.00    -0.082 HD
ENDBRANCH  11  12
ENDBRANCH   5  11
ENDBRANCH   3   5
BRANCH   1  22
ATOM     20  C   UNL     1       1.518   6.253   5.951  0.00  0.00    +0.117 A 
ATOM     21  C   UNL     1       2.555   5.401   5.481  0.00  0.00    +0.086 A 
ATOM     22  C   UNL     1       2.257   5.223   4.160  0.00  0.00    +0.222 A 
ATOM     23  O   UNL     1       1.131   5.923   3.928  0.00  0.00    -0.349 OA
ATOM     24  N   UNL     1       0.738   6.484   4.925  0.00  0.00    -0.077 NA
BRANCH  20  27
ATOM     25  C   UNL     1      -0.786   8.132   6.937  0.00  0.00    +0.066 C 
ATOM     26  C   UNL     1       0.349   7.592   7.768  0.00  0.00    +0.045 A 
ATOM     27  C   UNL     1       1.350   6.774   7.331  0.00  0.00    +0.044 A 
ATOM     28  C   UNL     1       2.198   6.518   8.427  0.00  0.00    +0.144 A 
ATOM     29  N   UNL     1       1.720   7.149   9.466  0.00  0.00    -0.179 NA
ATOM     30  N   UNL     1       0.558   7.828   9.078  0.00  0.00    -0.271 N 
ATOM     31  C   UNL     1      -0.282   8.657   9.946  0.00  0.00    +0.172 C 
ENDBRANCH  20  27
ENDBRANCH   1  22
TORSDOF 5
