REMARK  Name = ZINC01828906
REMARK  7 active torsions:
REMARK  status: ('A' for Active; 'I' for Inactive)
REMARK    1  A    between atoms: C_1  and  O_2
REMARK    2  A    between atoms: O_2  and  C_3
REMARK    3  A    between atoms: C_6  and  C_11
REMARK    4  A    between atoms: C_8  and  O_9
REMARK    5  A    between atoms: O_9  and  C_10
REMARK    6  A    between atoms: N_27  and  C_30
REMARK    7  A    between atoms: C_30  and  C_31
REMARK                            x       y       z     vdW  Elec       q    Type
REMARK                         _______ _______ _______ _____ _____    ______ ____
ROOT
ATOM      1  C   UNL     1       2.580  -2.537   4.298  0.00  0.00    +0.047 C 
ATOM      2  C   UNL     1       3.167  -1.900   5.330  0.00  0.00    +0.023 C 
ATOM      3  C   UNL     1       3.697  -2.989   6.221  0.00  0.00    +0.138 C 
ATOM      4  C   UNL     1       3.364  -2.852   7.677  0.00  0.00    +0.017 A 
ATOM      5  C   UNL     1       3.151  -1.653   8.303  0.00  0.00    +0.009 A 
ATOM      6  C   UNL     1       2.833  -1.631   9.652  0.00  0.00    +0.001 A 
ATOM      7  C   UNL     1       2.731  -2.818  10.354  0.00  0.00    +0.004 A 
ATOM      8  C   UNL     1       2.951  -4.028   9.725  0.00  0.00    +0.046 A 
ATOM      9  C   UNL     1       3.278  -4.061   8.378  0.00  0.00    +0.128 A 
ATOM     10  O   UNL     1       3.537  -5.235   7.753  0.00  0.00    -0.469 OA
ATOM     11  C   UNL     1       3.373  -5.374   6.334  0.00  0.00    +0.177 C 
ATOM     12  N   UNL     1       2.867  -4.149   5.774  0.00  0.00    -0.177 NA
ATOM     13  N   UNL     1       2.705  -3.932   4.460  0.00  0.00    -0.273 N 
ATOM     14  C   UNL     1       4.735  -5.709   5.714  0.00  0.00    +0.048 C 
ATOM     15  C   UNL     1       5.242  -7.030   6.297  0.00  0.00    -0.073 C 
ATOM     16  N   UNL     1       4.289  -8.103   5.987  0.00  0.00    +0.383 N 
ATOM     17  C   UNL     1       2.999  -7.825   6.630  0.00  0.00    -0.073 C 
ATOM     18  C   UNL     1       2.409  -6.534   6.060  0.00  0.00    +0.048 C 
ATOM     19  H   UNL     1       2.681  -4.603   3.760  0.00  0.00    +0.167 HD
ATOM     20  H   UNL     1       4.161  -8.160   4.988  0.00  0.00    -0.081 HD
ENDROOT
BRANCH   1  24
ATOM     21  C   UNL     1       0.626  -0.619   1.042  0.00  0.00    +0.162 A 
ATOM     22  C   UNL     1       1.202   0.140   2.050  0.00  0.00    +0.050 A 
ATOM     23  C   UNL     1       1.836  -0.479   3.107  0.00  0.00    +0.013 A 
ATOM     24  C   UNL     1       1.899  -1.871   3.164  0.00  0.00    +0.000 A 
ATOM     25  C   UNL     1       1.321  -2.635   2.150  0.00  0.00    +0.059 A 
ATOM     26  C   UNL     1       0.681  -2.009   1.096  0.00  0.00    +0.162 A 
BRANCH  21  28
ATOM     27  C   UNL     1      -0.017   1.425   0.010  0.00  0.00    +0.277 C 
ATOM     28  O   UNL     1       0.002  -0.004   0.002  0.00  0.00    -0.491 OA
ENDBRANCH  21  28
BRANCH  26  29
ATOM     29  O   UNL     1       0.111  -2.751   0.109  0.00  0.00    -0.491 OA
ATOM     30  C   UNL     1       0.205  -4.172   0.229  0.00  0.00    +0.277 C 
ENDBRANCH  26  29
ENDBRANCH   1  24
BRANCH  16  31
ATOM     31  C   UNL     1       4.816  -9.382   6.483  0.00  0.00    -0.043 C 
BRANCH  31  32
ATOM     32  C   UNL     1       3.900 -10.501   6.059  0.00  0.00    -0.064 A 
ATOM     33  C   UNL     1       2.848 -10.878   6.872  0.00  0.00    +0.002 A 
ATOM     34  C   UNL     1       2.007 -11.905   6.483  0.00  0.00    +0.000 A 
ATOM     35  C   UNL     1       2.220 -12.554   5.282  0.00  0.00    +0.000 A 
ATOM     36  C   UNL     1       3.272 -12.176   4.468  0.00  0.00    +0.000 A 
ATOM     37  C   UNL     1       4.110 -11.147   4.855  0.00  0.00    +0.002 A 
ENDBRANCH  31  32
ENDBRANCH  16  31
TORSDOF 5
