REMARK  Name = ZINC56806576
REMARK  4 active torsions:
REMARK  status: ('A' for Active; 'I' for Inactive)
REMARK    1  A    between atoms: C_1  and  C_2
REMARK    2  A    between atoms: N_4  and  N_5
REMARK    3  A    between atoms: N_8  and  C_9
REMARK    4  A    between atoms: N_18  and  C_20
REMARK                            x       y       z     vdW  Elec       q    Type
REMARK                         _______ _______ _______ _____ _____    ______ ____
ROOT
ATOM      1  C   UNL     1      -4.726  -2.874   0.032  0.00  0.00    +0.077 C 
ATOM      2  C   UNL     1      -5.154  -3.218  -1.397  0.00  0.00    -0.007 C 
ATOM      3  C   UNL     1      -5.293  -1.947  -2.223  0.00  0.00    +0.003 C 
ATOM      4  C   UNL     1      -6.239  -0.934  -1.599  0.00  0.00    +0.001 C 
ATOM      5  C   UNL     1      -6.006  -0.728  -0.111  0.00  0.00    +0.003 C 
ATOM      6  C   UNL     1      -5.846  -2.035   0.653  0.00  0.00    -0.007 C 
ATOM      7  C   UNL     1      -7.138  -2.841   0.667  0.00  0.00    -0.073 C 
ATOM      8  N   UNL     1      -7.528  -3.320  -0.655  0.00  0.00    +0.382 N 
ATOM      9  C   UNL     1      -6.454  -4.011  -1.363  0.00  0.00    -0.073 C 
ATOM     10  H   UNL     1      -7.882  -2.559  -1.213  0.00  0.00    -0.081 HD
ENDROOT
BRANCH   1  14
ATOM     11  N   UNL     1      -1.137  -2.095   0.002  0.00  0.00    -0.218 N 
ATOM     12  C   UNL     1      -2.295  -2.784   0.009  0.00  0.00    +0.316 C 
ATOM     13  O   UNL     1      -2.278  -4.000   0.002  0.00  0.00    -0.251 OA
ATOM     14  N   UNL     1      -3.471  -2.126   0.024  0.00  0.00    -0.295 N 
ATOM     15  H   UNL     1      -0.290  -2.568  -0.009  0.00  0.00    +0.174 HD
ATOM     16  H   UNL     1      -3.484  -1.157   0.029  0.00  0.00    +0.151 HD
BRANCH  11  20
ATOM     17  C   UNL     1      -0.018   1.503   0.010  0.00  0.00    +0.110 C 
ATOM     18  C   UNL     1       0.002  -0.004   0.002  0.00  0.00    +0.226 C 
ATOM     19  O   UNL     1       1.060  -0.596  -0.011  0.00  0.00    -0.275 OA
ATOM     20  N   UNL     1      -1.156  -0.694   0.009  0.00  0.00    -0.233 N 
ATOM     21  H   UNL     1      -2.002  -0.220   0.020  0.00  0.00    +0.173 HD
ENDBRANCH  11  20
ENDBRANCH   1  14
BRANCH   8  22
ATOM     22  C   UNL     1      -8.641  -4.263  -0.487  0.00  0.00    -0.069 C 
ATOM     23  C   UNL     1      -9.896  -4.032  -1.332  0.00  0.00    -0.017 C 
ATOM     24  C   UNL     1      -9.919  -3.737   0.169  0.00  0.00    -0.017 C 
ENDBRANCH   8  22
TORSDOF 3
