REMARK  Name = ZINC21661773
REMARK  4 active torsions:
REMARK  status: ('A' for Active; 'I' for Inactive)
REMARK    1  A    between atoms: C_4  and  C_7
REMARK    2  A    between atoms: C_9  and  C_23
REMARK    3  A    between atoms: N_12  and  C_14
REMARK    4  A    between atoms: C_14  and  C_15
REMARK                            x       y       z     vdW  Elec       q    Type
REMARK                         _______ _______ _______ _____ _____    ______ ____
ROOT
ATOM      1  C   UNL     1       3.699  -0.689  -0.038  0.00  0.00    +0.092 A 
ATOM      2  C   UNL     1       3.718  -2.103  -0.052  0.00  0.00    +0.048 A 
ATOM      3  C   UNL     1       4.927  -2.732  -0.068  0.00  0.00    +0.123 A 
ATOM      4  C   UNL     1       6.090  -1.929  -0.070  0.00  0.00    +0.279 A 
ATOM      5  O   UNL     1       7.195  -2.448  -0.085  0.00  0.00    -0.266 OA
ATOM      6  N   UNL     1       5.970  -0.589  -0.056  0.00  0.00    -0.221 N 
ATOM      7  N   UNL     1       4.823  -0.012  -0.046  0.00  0.00    -0.168 NA
ENDROOT
BRANCH   1  11
ATOM      8  C   UNL     1      -0.017   1.379   0.010  0.00  0.00    +0.000 A 
ATOM      9  C   UNL     1       1.169   2.092   0.002  0.00  0.00    +0.001 A 
ATOM     10  C   UNL     1       2.377   1.426  -0.013  0.00  0.00    +0.010 A 
ATOM     11  C   UNL     1       2.402   0.033  -0.021  0.00  0.00    +0.002 A 
ATOM     12  C   UNL     1       1.205  -0.680  -0.013  0.00  0.00    +0.010 A 
ATOM     13  C   UNL     1       0.002  -0.004   0.002  0.00  0.00    +0.001 A 
ENDBRANCH   1  11
BRANCH   3  14
ATOM     14  C   UNL     1       5.021  -4.236  -0.083  0.00  0.00    +0.423 C 
ATOM     15  F   UNL     1       3.734  -4.784  -0.077  0.00  0.00    -0.166 F 
ATOM     16  F   UNL     1       5.699  -4.650  -1.234  0.00  0.00    -0.166 F 
ATOM     17  F   UNL     1       5.718  -4.671   1.050  0.00  0.00    -0.166 F 
ENDBRANCH   3  14
BRANCH   6  18
ATOM     18  C   UNL     1       7.181   0.235  -0.059  0.00  0.00    +0.223 C 
BRANCH  18  19
ATOM     19  C   UNL     1       7.585   0.531  -1.480  0.00  0.00    +0.158 A 
ATOM     20  N   UNL     1       8.401  -0.289  -2.118  0.00  0.00    -0.198 NA
ATOM     21  C   UNL     1       8.760  -0.032  -3.373  0.00  0.00    +0.217 A 
ATOM     22  N   UNL     1       8.296   1.052  -3.986  0.00  0.00    -0.181 NA
ATOM     23  C   UNL     1       7.475   1.875  -3.341  0.00  0.00    +0.217 A 
ATOM     24  N   UNL     1       7.117   1.608  -2.087  0.00  0.00    -0.198 NA
ATOM     25  N   UNL     1       6.991   3.002  -3.973  0.00  0.00    -0.327 N 
ATOM     26  N   UNL     1       9.612  -0.889  -4.038  0.00  0.00    -0.327 N 
ATOM     27  H   UNL     1       7.249   3.195  -4.888  0.00  0.00    +0.145 HD
ATOM     28  H   UNL     1       6.392   3.603  -3.501  0.00  0.00    +0.145 HD
ATOM     29  H   UNL     1       9.951  -1.680  -3.591  0.00  0.00    +0.145 HD
ATOM     30  H   UNL     1       9.873  -0.700  -4.954  0.00  0.00    +0.145 HD
ENDBRANCH  18  19
ENDBRANCH   6  18
TORSDOF 4
