REMARK  Name = ZINC03497838
REMARK  7 active torsions:
REMARK  status: ('A' for Active; 'I' for Inactive)
REMARK    1  A    between atoms: C_1  and  C_2
REMARK    2  A    between atoms: C_5  and  N_9
REMARK    3  A    between atoms: C_6  and  C_8
REMARK    4  A    between atoms: C_10  and  C_12
REMARK    5  A    between atoms: C_12  and  O_13
REMARK    6  A    between atoms: O_13  and  C_14
REMARK    7  A    between atoms: C_14  and  C_16
REMARK                            x       y       z     vdW  Elec       q    Type
REMARK                         _______ _______ _______ _____ _____    ______ ____
ROOT
ATOM      1  C   UNL     1      -3.712  -1.062  -0.201  0.00  0.00    +0.328 C 
ENDROOT
BRANCH   1   3
ATOM      2  N   UNL     1      -2.428   1.041   0.019  0.00  0.00    -0.282 N 
ATOM      3  C   UNL     1      -2.415  -0.302  -0.090  0.00  0.00    +0.255 C 
ATOM      4  O   UNL     1      -1.359  -0.900  -0.098  0.00  0.00    -0.272 OA
ATOM      5  H   UNL     1      -3.271   1.512   0.107  0.00  0.00    +0.155 HD
BRANCH   2  10
ATOM      6  C   UNL     1       2.446   3.944  -0.044  0.00  0.00    +0.044 C 
ATOM      7  C   UNL     1       1.152   3.172  -0.025  0.00  0.00    -0.050 A 
ATOM      8  C   UNL     1       1.082   1.928  -0.626  0.00  0.00    +0.005 A 
ATOM      9  C   UNL     1      -0.102   1.218  -0.610  0.00  0.00    +0.024 A 
ATOM     10  C   UNL     1      -1.225   1.756   0.006  0.00  0.00    +0.036 A 
ATOM     11  C   UNL     1      -1.150   3.002   0.613  0.00  0.00    -0.029 A 
ATOM     12  C   UNL     1       0.038   3.708   0.594  0.00  0.00    +0.008 A 
ATOM     13  C   UNL     1      -2.364   3.587   1.288  0.00  0.00    +0.045 C 
ENDBRANCH   2  10
ENDBRANCH   1   3
BRANCH   1  14
ATOM     14  O   UNL     1      -3.433  -2.483  -0.307  0.00  0.00    -0.453 OA
BRANCH  14  15
ATOM     15  C   UNL     1      -4.488  -3.305  -0.414  0.00  0.00    +0.352 C 
ATOM     16  O   UNL     1      -5.609  -2.852  -0.420  0.00  0.00    -0.247 OA
BRANCH  15  17
ATOM     17  C   UNL     1      -4.277  -4.793  -0.527  0.00  0.00    +0.318 C 
ATOM     18  C   UNL     1      -3.563  -5.115  -1.847  0.00  0.00    +0.285 C 
ATOM     19  O   UNL     1      -3.391  -6.534  -1.929  0.00  0.00    -0.484 OA
ATOM     20  C   UNL     1      -4.473  -7.300  -1.620  0.00  0.00    +0.162 A 
ATOM     21  C   UNL     1      -4.498  -8.631  -2.011  0.00  0.00    +0.049 A 
ATOM     22  C   UNL     1      -5.587  -9.423  -1.699  0.00  0.00    +0.004 A 
ATOM     23  C   UNL     1      -6.653  -8.892  -0.997  0.00  0.00    +0.004 A 
ATOM     24  C   UNL     1      -6.634  -7.567  -0.605  0.00  0.00    +0.049 A 
ATOM     25  C   UNL     1      -5.545  -6.766  -0.916  0.00  0.00    +0.163 A 
ATOM     26  O   UNL     1      -5.542  -5.462  -0.526  0.00  0.00    -0.471 OA
ENDBRANCH  15  17
ENDBRANCH  14  15
ENDBRANCH   1  14
TORSDOF 5
