REMARK  Name = ZINC09359789
REMARK  8 active torsions:
REMARK  status: ('A' for Active; 'I' for Inactive)
REMARK    1  A    between atoms: C_1  and  C_2
REMARK    2  A    between atoms: C_2  and  C_3
REMARK    3  A    between atoms: C_3  and  C_4
REMARK    4  A    between atoms: C_4  and  C_5
REMARK    5  A    between atoms: C_5  and  C_7
REMARK    6  A    between atoms: C_5  and  N_8
REMARK    7  A    between atoms: C_11  and  C_17
REMARK    8  A    between atoms: C_18  and  O_20
REMARK                            x       y       z     vdW  Elec       q    Type
REMARK                         _______ _______ _______ _____ _____    ______ ____
ROOT
ATOM      1  N   UNL     1       1.581  -3.979  -2.474  0.00  0.00    -0.242 N 
ATOM      2  C   UNL     1       2.745  -4.661  -2.486  0.00  0.00    +0.143 A 
ATOM      3  C   UNL     1       2.428  -6.020  -2.426  0.00  0.00    +0.083 A 
ATOM      4  C   UNL     1       3.460  -6.981  -2.424  0.00  0.00    -0.030 A 
ATOM      5  C   UNL     1       4.753  -6.563  -2.480  0.00  0.00    +0.074 A 
ATOM      6  C   UNL     1       5.043  -5.188  -2.540  0.00  0.00    +0.250 A 
ATOM      7  O   UNL     1       6.206  -4.820  -2.591  0.00  0.00    -0.268 OA
ATOM      8  N   UNL     1       4.057  -4.272  -2.542  0.00  0.00    -0.307 N 
ATOM      9  H   UNL     1       4.277  -3.328  -2.584  0.00  0.00    +0.170 HD
ATOM     10  C   UNL     1       3.135  -8.452  -2.359  0.00  0.00    +0.045 C 
ATOM     11  C   UNL     1       0.969  -6.103  -2.377  0.00  0.00    +0.241 A 
ATOM     12  N   UNL     1       0.512  -4.878  -2.401  0.00  0.00    -0.131 NA
ENDROOT
BRANCH   1  13
ATOM     13  C   UNL     1       1.455  -2.521  -2.524  0.00  0.00    +0.106 C 
ATOM     14  C   UNL     1       0.648  -2.120  -3.760  0.00  0.00    +0.032 C 
BRANCH  13  15
ATOM     15  C   UNL     1       0.739  -2.027  -1.265  0.00  0.00    +0.026 C 
BRANCH  15  16
ATOM     16  C   UNL     1       0.718  -0.497  -1.257  0.00  0.00    +0.002 C 
BRANCH  16  18
ATOM     17  C   UNL     1      -0.019   1.526   0.010  0.00  0.00    +0.004 C 
ATOM     18  C   UNL     1       0.002  -0.004   0.002  0.00  0.00    -0.003 C 
ENDBRANCH  16  18
ENDBRANCH  15  16
ENDBRANCH  13  15
ENDBRANCH   1  13
BRANCH  11  19
ATOM     19  O   UNL     1       0.227  -7.240  -2.312  0.00  0.00    -0.491 OA
ATOM     20  H   UNL     1       0.041  -7.537  -1.410  0.00  0.00    +0.294 HD
ENDBRANCH  11  19
TORSDOF 5
