REMARK  Name = ZINC06710579
REMARK  5 active torsions:
REMARK  status: ('A' for Active; 'I' for Inactive)
REMARK    1  A    between atoms: C_1  and  C_2
REMARK    2  A    between atoms: C_4  and  N_7
REMARK    3  A    between atoms: C_8  and  C_10
REMARK    4  A    between atoms: C_11  and  N_23
REMARK    5  A    between atoms: C_22  and  N_41
REMARK                            x       y       z     vdW  Elec       q    Type
REMARK                         _______ _______ _______ _____ _____    ______ ____
ROOT
ATOM      1  C   UNL     1      -1.777   6.090   0.062  0.00  0.00    +0.097 A 
ATOM      2  C   UNL     1      -0.457   5.694   0.048  0.00  0.00    +0.053 A 
ATOM      3  C   UNL     1      -0.164   4.269   0.033  0.00  0.00    +0.029 A 
ATOM      4  C   UNL     1       1.095   3.624   0.016  0.00  0.00    +0.016 A 
ATOM      5  C   UNL     1       1.151   2.245   0.003  0.00  0.00    -0.042 A 
ATOM      6  C   UNL     1      -0.018   1.504   0.010  0.00  0.00    +0.042 A 
ATOM      7  N   UNL     1      -1.193   2.114   0.030  0.00  0.00    -0.244 NA
ATOM      8  C   UNL     1      -1.296   3.423   0.036  0.00  0.00    +0.111 A 
ATOM      9  S   UNL     1      -2.670   4.548   0.058  0.00  0.00    -0.062 S 
ATOM     10  C   UNL     1       0.002  -0.004   0.002  0.00  0.00    +0.037 C 
ATOM     11  C   UNL     1       1.380  -0.505  -0.430  0.00  0.00    -0.073 C 
ATOM     12  C   UNL     1       2.506   1.586  -0.021  0.00  0.00    -0.042 C 
ATOM     13  C   UNL     1       3.700  -0.497   0.271  0.00  0.00    -0.096 C 
ATOM     14  N   UNL     1       2.392   0.181   0.402  0.00  0.00    +0.381 N 
ATOM     15  H   UNL     1       2.096   0.149   1.384  0.00  0.00    -0.082 HD
ENDROOT
BRANCH   1  17
ATOM     16  N   UNL     1      -3.632   7.603   0.091  0.00  0.00    -0.250 N 
ATOM     17  C   UNL     1      -2.299   7.406   0.078  0.00  0.00    +0.259 C 
ATOM     18  O   UNL     1      -1.543   8.361   0.079  0.00  0.00    -0.269 OA
ATOM     19  H   UNL     1      -4.234   6.842   0.090  0.00  0.00    +0.158 HD
BRANCH  16  23
ATOM     20  C   UNL     1      -6.614  11.588   0.151  0.00  0.00    +0.069 C 
ATOM     21  C   UNL     1      -5.427  10.659   0.132  0.00  0.00    +0.082 A 
ATOM     22  C   UNL     1      -5.460   9.250   0.121  0.00  0.00    +0.092 A 
ATOM     23  C   UNL     1      -4.143   8.891   0.106  0.00  0.00    +0.224 A 
ATOM     24  O   UNL     1      -3.442  10.036   0.116  0.00  0.00    -0.339 OA
ATOM     25  N   UNL     1      -4.170  11.001   0.124  0.00  0.00    -0.081 NA
ENDBRANCH  16  23
ENDBRANCH   1  17
BRANCH   2  26
ATOM     26  N   UNL     1       0.566   6.631   0.046  0.00  0.00    -0.356 N 
ATOM     27  H   UNL     1       1.491   6.339   0.036  0.00  0.00    +0.142 HD
ATOM     28  H   UNL     1       0.357   7.578   0.056  0.00  0.00    +0.142 HD
ENDBRANCH   2  26
TORSDOF 3
