REMARK  Name = ZINC53071395
REMARK  9 active torsions:
REMARK  status: ('A' for Active; 'I' for Inactive)
REMARK    1  A    between atoms: C_1  and  C_2
REMARK    2  A    between atoms: C_2  and  C_3
REMARK    3  A    between atoms: C_3  and  C_4
REMARK    4  A    between atoms: C_3  and  C_6
REMARK    5  A    between atoms: C_3  and  N_8
REMARK    6  A    between atoms: C_4  and  C_5
REMARK    7  A    between atoms: C_6  and  O_7
REMARK    8  A    between atoms: C_9  and  C_11
REMARK    9  A    between atoms: C_12  and  C_22
REMARK                            x       y       z     vdW  Elec       q    Type
REMARK                         _______ _______ _______ _____ _____    ______ ____
ROOT
ATOM      1  N   UNL     1       0.081   0.085  -2.441  0.00  0.00    -0.303 N 
ATOM      2  C   UNL     1      -1.221  -0.155  -2.692  0.00  0.00    +0.252 C 
ATOM      3  O   UNL     1      -1.868  -0.855  -1.935  0.00  0.00    -0.270 OA
ATOM      4  H   UNL     1       0.597   0.642  -3.044  0.00  0.00    +0.150 HD
ENDROOT
BRANCH   2   5
ATOM      5  C   UNL     1      -1.858   0.427  -3.877  0.00  0.00    +0.079 A 
ATOM      6  C   UNL     1      -3.151   0.307  -4.294  0.00  0.00    -0.017 A 
ATOM      7  C   UNL     1      -3.567   0.948  -5.463  0.00  0.00    +0.076 A 
ATOM      8  C   UNL     1      -4.904   0.958  -6.100  0.00  0.00    +0.260 A 
ATOM      9  O   UNL     1      -5.836   0.349  -5.606  0.00  0.00    -0.267 OA
ATOM     10  N   UNL     1      -5.062   1.657  -7.241  0.00  0.00    -0.313 N 
ATOM     11  H   UNL     1      -5.932   1.675  -7.671  0.00  0.00    +0.170 HD
ATOM     12  C   UNL     1      -4.032   2.338  -7.800  0.00  0.00    +0.200 A 
ATOM     13  N   UNL     1      -2.841   2.350  -7.265  0.00  0.00    -0.230 NA
ATOM     14  C   UNL     1      -2.577   1.695  -6.142  0.00  0.00    +0.116 A 
ATOM     15  S   UNL     1      -1.137   1.477  -5.128  0.00  0.00    -0.064 S 
ATOM     16  C   UNL     1      -4.129  -0.516  -3.495  0.00  0.00    +0.046 C 
ENDBRANCH   2   5
BRANCH   1  17
ATOM     17  C   UNL     1       0.718  -0.497  -1.257  0.00  0.00    +0.057 C 
BRANCH  17  19
ATOM     18  C   UNL     1      -0.019   1.526   0.010  0.00  0.00    +0.006 C 
ATOM     19  C   UNL     1       0.002  -0.004   0.002  0.00  0.00    +0.024 C 
ENDBRANCH  17  19
BRANCH  17  20
ATOM     20  C   UNL     1       2.187  -0.073  -1.207  0.00  0.00    +0.024 C 
ATOM     21  C   UNL     1       2.852  -0.681   0.029  0.00  0.00    +0.006 C 
ENDBRANCH  17  20
BRANCH  17  22
ATOM     22  C   UNL     1       0.630  -2.023  -1.329  0.00  0.00    +0.181 C 
BRANCH  22  23
ATOM     23  O   UNL     1       1.299  -2.484  -2.504  0.00  0.00    -0.393 OA
ATOM     24  H   UNL     1       1.283  -3.445  -2.615  0.00  0.00    +0.209 HD
ENDBRANCH  22  23
ENDBRANCH  17  22
ENDBRANCH   1  17
TORSDOF 6
