REMARK  Name = ZINC09278426
REMARK  11 active torsions:
REMARK  status: ('A' for Active; 'I' for Inactive)
REMARK    1  A    between atoms: C_1  and  C_2
REMARK    2  A    between atoms: C_2  and  C_3
REMARK    3  A    between atoms: C_3  and  N_54
REMARK    4  A    between atoms: C_4  and  C_5
REMARK    5  A    between atoms: C_4  and  N_54
REMARK    6  A    between atoms: C_5  and  C_6
REMARK    7  A    between atoms: C_7  and  C_8
REMARK    8  A    between atoms: C_7  and  N_54
REMARK    9  A    between atoms: N_12  and  C_13
REMARK   10  A    between atoms: C_13  and  C_14
REMARK   11  A    between atoms: N_28  and  C_29
REMARK                            x       y       z     vdW  Elec       q    Type
REMARK                         _______ _______ _______ _____ _____    ______ ____
ROOT
ATOM      1  C   UNL     1      -1.298   1.460   1.722  0.00  0.00    +0.096 A 
ATOM      2  N   UNL     1      -1.260   2.372   2.659  0.00  0.00    -0.216 NA
ATOM      3  C   UNL     1      -1.776   1.882   3.789  0.00  0.00    +0.168 A 
ATOM      4  C   UNL     1      -2.152   0.569   3.534  0.00  0.00    +0.152 A 
ATOM      5  N   UNL     1      -1.836   0.327   2.212  0.00  0.00    -0.319 N 
ATOM      6  C   UNL     1      -2.728  -0.195   4.572  0.00  0.00    +0.280 A 
ATOM      7  O   UNL     1      -3.066  -1.348   4.373  0.00  0.00    -0.265 OA
ATOM      8  N   UNL     1      -2.901   0.368   5.786  0.00  0.00    -0.273 N 
ATOM      9  H   UNL     1      -3.309  -0.169   6.524  0.00  0.00    +0.173 HD
ATOM     10  C   UNL     1      -2.532   1.639   6.019  0.00  0.00    +0.331 A 
ATOM     11  O   UNL     1      -2.703   2.113   7.126  0.00  0.00    -0.246 OA
ATOM     12  N   UNL     1      -1.979   2.402   5.057  0.00  0.00    -0.280 N 
ATOM     13  C   UNL     1      -1.591   3.784   5.352  0.00  0.00    +0.155 C 
ENDROOT
BRANCH   1  14
ATOM     14  C   UNL     1      -0.806   1.646   0.309  0.00  0.00    -0.003 C 
BRANCH  14  15
ATOM     15  N   UNL     1      -1.905   2.199  -0.510  0.00  0.00    +0.384 N 
ATOM     16  H   UNL     1      -2.730   1.594  -0.414  0.00  0.00    -0.081 HD
BRANCH  15  17
ATOM     17  C   UNL     1      -2.249   3.558  -0.042  0.00  0.00    -0.079 C 
BRANCH  17  19
ATOM     18  C   UNL     1      -1.395   5.865   0.395  0.00  0.00    +0.002 C 
ATOM     19  C   UNL     1      -1.058   4.502  -0.214  0.00  0.00    -0.022 C 
ENDBRANCH  17  19
ENDBRANCH  15  17
BRANCH  15  20
ATOM     20  C   UNL     1      -1.504   2.241  -1.932  0.00  0.00    -0.079 C 
BRANCH  20  21
ATOM     21  C   UNL     1      -2.749   2.485  -2.787  0.00  0.00    -0.022 C 
ATOM     22  C   UNL     1      -2.378   2.382  -4.268  0.00  0.00    +0.002 C 
ENDBRANCH  20  21
ENDBRANCH  15  20
ENDBRANCH  14  15
ENDBRANCH   1  14
BRANCH   5  23
ATOM     23  C   UNL     1      -2.048  -0.925   1.482  0.00  0.00    +0.161 C 
BRANCH  23  24
ATOM     24  C   UNL     1      -3.182  -0.751   0.504  0.00  0.00    +0.009 A 
ATOM     25  C   UNL     1      -4.478  -0.609   0.966  0.00  0.00    +0.047 A 
ATOM     26  C   UNL     1      -5.518  -0.444   0.068  0.00  0.00    +0.020 A 
ATOM     27  C   UNL     1      -5.263  -0.431  -1.290  0.00  0.00    +0.003 A 
ATOM     28  C   UNL     1      -3.969  -0.579  -1.753  0.00  0.00    +0.020 A 
ATOM     29  C   UNL     1      -2.927  -0.739  -0.856  0.00  0.00    +0.047 A 
ATOM     30 CL   UNL     1      -1.302  -0.923  -1.436  0.00  0.00    -0.083 Cl
ATOM     31 CL   UNL     1      -4.799  -0.632   2.672  0.00  0.00    -0.083 Cl
ENDBRANCH  23  24
ENDBRANCH   5  23
TORSDOF 8
