REMARK  Name = ZINC19129181
REMARK  10 active torsions:
REMARK  status: ('A' for Active; 'I' for Inactive)
REMARK    1  A    between atoms: C_1  and  C_2
REMARK    2  A    between atoms: C_6  and  C_12
REMARK    3  A    between atoms: C_8  and  N_11
REMARK    4  A    between atoms: N_17  and  C_19
REMARK    5  A    between atoms: C_19  and  C_20
REMARK    6  A    between atoms: C_22  and  O_29
REMARK    7  A    between atoms: C_23  and  O_28
REMARK    8  A    between atoms: C_24  and  O_26
REMARK    9  A    between atoms: O_26  and  C_27
REMARK   10  A    between atoms: O_29  and  C_30
REMARK                            x       y       z     vdW  Elec       q    Type
REMARK                         _______ _______ _______ _____ _____    ______ ____
ROOT
ATOM      1  C   UNL     1       0.074  -5.729  -1.519  0.00  0.00    +0.052 C 
ATOM      2  C   UNL     1       1.394  -6.463  -1.268  0.00  0.00    +0.012 C 
ATOM      3  C   UNL     1       1.425  -7.743  -2.108  0.00  0.00    +0.016 C 
ATOM      4  C   UNL     1       1.252  -7.382  -3.585  0.00  0.00    +0.085 C 
ATOM      5  N   UNL     1      -0.026  -6.683  -3.773  0.00  0.00    -0.298 NA
ATOM      6  C   UNL     1      -0.062  -5.427  -3.013  0.00  0.00    +0.094 C 
ENDROOT
BRANCH   1  12
ATOM      7  C   UNL     1      -0.018   1.503   0.010  0.00  0.00    +0.067 C 
ATOM      8  C   UNL     1       0.002  -0.004   0.002  0.00  0.00    +0.063 A 
ATOM      9  C   UNL     1       0.008  -0.804  -1.132  0.00  0.00    +0.073 A 
ATOM     10  C   UNL     1       0.028  -2.127  -0.713  0.00  0.00    +0.158 A 
ATOM     11  N   UNL     1       0.041  -3.290  -1.381  0.00  0.00    -0.232 NA
ATOM     12  C   UNL     1       0.060  -4.439  -0.741  0.00  0.00    +0.051 A 
ATOM     13  C   UNL     1       0.066  -4.469   0.653  0.00  0.00    +0.067 A 
ATOM     14  C   UNL     1       0.053  -3.292   1.351  0.00  0.00    +0.122 A 
ATOM     15  N   UNL     1       0.034  -2.111   0.658  0.00  0.00    -0.201 N 
ATOM     16  N   UNL     1       0.023  -0.773   1.067  0.00  0.00    -0.169 NA
BRANCH  14  17
ATOM     17  N   UNL     1       0.059  -3.294   2.729  0.00  0.00    -0.343 N 
ATOM     18  H   UNL     1       0.073  -4.135   3.213  0.00  0.00    +0.144 HD
ATOM     19  H   UNL     1       0.050  -2.455   3.216  0.00  0.00    +0.144 HD
ENDBRANCH  14  17
ENDBRANCH   1  12
BRANCH   5  20
ATOM     20  C   UNL     1      -0.291  -6.443  -5.198  0.00  0.00    +0.119 C 
BRANCH  20  21
ATOM     21  C   UNL     1      -0.497  -7.761  -5.899  0.00  0.00    -0.026 A 
ATOM     22  C   UNL     1       0.584  -8.429  -6.443  0.00  0.00    +0.054 A 
ATOM     23  C   UNL     1       0.399  -9.642  -7.090  0.00  0.00    +0.165 A 
ATOM     24  C   UNL     1      -0.876 -10.186  -7.189  0.00  0.00    +0.201 A 
ATOM     25  C   UNL     1      -1.960  -9.512  -6.640  0.00  0.00    +0.165 A 
ATOM     26  C   UNL     1      -1.766  -8.302  -5.991  0.00  0.00    +0.054 A 
BRANCH  25  27
ATOM     27  O   UNL     1      -3.210 -10.040  -6.735  0.00  0.00    -0.491 OA
ATOM     28  C   UNL     1      -4.277  -9.293  -6.148  0.00  0.00    +0.277 C 
ENDBRANCH  25  27
BRANCH  24  29
ATOM     29  O   UNL     1      -1.062 -11.376  -7.823  0.00  0.00    -0.501 OA
ATOM     30  H   UNL     1      -0.994 -12.146  -7.242  0.00  0.00    +0.292 HD
ENDBRANCH  24  29
BRANCH  23  31
ATOM     31  O   UNL     1       1.463 -10.297  -7.626  0.00  0.00    -0.491 OA
ATOM     32  C   UNL     1       2.743  -9.679  -7.486  0.00  0.00    +0.277 C 
ENDBRANCH  23  31
ENDBRANCH  20  21
ENDBRANCH   5  20
TORSDOF 7
