REMARK  Name = ZINC09944402
REMARK  10 active torsions:
REMARK  status: ('A' for Active; 'I' for Inactive)
REMARK    1  A    between atoms: C_1  and  C_2
REMARK    2  A    between atoms: C_2  and  C_4
REMARK    3  A    between atoms: C_2  and  S_10
REMARK    4  A    between atoms: S_10  and  C_11
REMARK    5  A    between atoms: C_14  and  C_17
REMARK    6  A    between atoms: N_15  and  C_16
REMARK    7  A    between atoms: C_24  and  C_27
REMARK    8  A    between atoms: C_27  and  C_28
REMARK    9  A    between atoms: C_27  and  C_29
REMARK   10  A    between atoms: C_27  and  C_30
REMARK                            x       y       z     vdW  Elec       q    Type
REMARK                         _______ _______ _______ _____ _____    ______ ____
ROOT
ATOM      1  C   UNL     1      -2.033   1.821   1.356  0.00  0.00    +0.192 A 
ATOM      2  N   UNL     1      -2.222   2.217   2.594  0.00  0.00    -0.122 NA
ATOM      3  N   UNL     1      -1.106   2.231   3.230  0.00  0.00    -0.128 NA
ATOM      4  C   UNL     1      -0.133   1.837   2.438  0.00  0.00    +0.171 A 
ATOM      5  N   UNL     1      -0.698   1.558   1.213  0.00  0.00    -0.305 N 
ATOM      6  C   UNL     1      -0.013   1.086   0.008  0.00  0.00    +0.153 C 
ENDROOT
BRANCH   4   7
ATOM      7  C   UNL     1       1.291   1.717   2.792  0.00  0.00    +0.057 A 
ATOM      8  C   UNL     1       1.958   2.232   3.871  0.00  0.00    +0.023 A 
ATOM      9  C   UNL     1       3.319   1.992   4.019  0.00  0.00    -0.036 A 
ATOM     10  C   UNL     1       3.919   1.248   3.046  0.00  0.00    -0.006 A 
ATOM     11  S   UNL     1       2.600   0.869   1.923  0.00  0.00    -0.090 S 
ATOM     12  C   UNL     1       5.357   0.851   2.961  0.00  0.00    +0.043 C 
ATOM     13  C   UNL     1       6.007   1.097   4.331  0.00  0.00    +0.009 C 
ATOM     14  C   UNL     1       5.617   2.496   4.817  0.00  0.00    -0.001 C 
ATOM     15  C   UNL     1       4.135   2.524   5.193  0.00  0.00    +0.040 C 
BRANCH  14  16
ATOM     16  C   UNL     1       6.458   2.862   6.041  0.00  0.00    -0.035 C 
ATOM     17  C   UNL     1       6.196   1.853   7.160  0.00  0.00    +0.011 C 
ATOM     18  C   UNL     1       7.942   2.834   5.667  0.00  0.00    +0.011 C 
ATOM     19  C   UNL     1       6.080   4.264   6.520  0.00  0.00    +0.011 C 
ENDBRANCH  14  16
ENDBRANCH   4   7
BRANCH   1  20
ATOM     20  S   UNL     1      -3.269   1.654   0.112  0.00  0.00    -0.074 S 
BRANCH  20  22
ATOM     21  C   UNL     1      -4.996   1.171   2.172  0.00  0.00    +0.029 C 
ATOM     22  C   UNL     1      -4.729   2.173   1.048  0.00  0.00    +0.137 C 
BRANCH  22  23
ATOM     23  C   UNL     1      -5.922   2.227   0.129  0.00  0.00    +0.233 C 
ATOM     24  O   UNL     1      -5.945   1.547  -0.875  0.00  0.00    -0.274 OA
ATOM     25  N   UNL     1      -6.963   3.031   0.422  0.00  0.00    -0.239 N 
ATOM     26  C   UNL     1      -8.030   3.079  -0.400  0.00  0.00    +0.303 C 
ATOM     27  O   UNL     1      -8.053   2.397  -1.406  0.00  0.00    -0.253 OA
ATOM     28  N   UNL     1      -9.071   3.883  -0.106  0.00  0.00    -0.313 N 
ATOM     29  H   UNL     1      -6.944   3.575   1.225  0.00  0.00    +0.159 HD
ATOM     30  H   UNL     1      -9.053   4.427   0.696  0.00  0.00    +0.146 HD
ATOM     31  H   UNL     1      -9.839   3.918  -0.698  0.00  0.00    +0.146 HD
ENDBRANCH  22  23
ENDBRANCH  20  22
ENDBRANCH   1  20
TORSDOF 5
