REMARK  Name = ZINC64520688
REMARK  8 active torsions:
REMARK  status: ('A' for Active; 'I' for Inactive)
REMARK    1  A    between atoms: C_1  and  N_2
REMARK    2  A    between atoms: C_5  and  C_7
REMARK    3  A    between atoms: C_18  and  C_20
REMARK    4  A    between atoms: C_20  and  C_21
REMARK    5  A    between atoms: C_21  and  C_22
REMARK    6  A    between atoms: N_24  and  C_25
REMARK    7  A    between atoms: C_25  and  C_26
REMARK    8  A    between atoms: C_26  and  C_27
REMARK                            x       y       z     vdW  Elec       q    Type
REMARK                         _______ _______ _______ _____ _____    ______ ____
ROOT
ATOM      1  C   UNL     1      -0.018   1.461   0.010  0.00  0.00    +0.172 C 
ATOM      2  N   UNL     1       0.002  -0.004   0.002  0.00  0.00    -0.270 N 
ATOM      3  C   UNL     1       0.007  -0.768  -1.104  0.00  0.00    +0.046 A 
ATOM      4  C   UNL     1       0.032  -2.061  -0.695  0.00  0.00    +0.023 A 
ATOM      5  C   UNL     1       0.036  -2.024   0.709  0.00  0.00    +0.152 A 
ATOM      6  N   UNL     1       0.023  -0.748   1.054  0.00  0.00    -0.166 NA
ATOM      7  C   UNL     1       0.054  -3.245  -1.623  0.00  0.00    +0.147 C 
ATOM      8  N   UNL     1      -0.229  -2.739  -2.980  0.00  0.00    -0.297 N 
ATOM      9  C   UNL     1       0.447  -1.509  -3.421  0.00  0.00    +0.114 C 
ATOM     10  C   UNL     1      -0.013  -0.336  -2.547  0.00  0.00    +0.074 C 
ATOM     11  C   UNL     1      -1.085  -3.387  -3.794  0.00  0.00    +0.216 C 
ATOM     12  O   UNL     1      -1.634  -4.400  -3.415  0.00  0.00    -0.276 OA
ENDROOT
BRANCH   5  13
ATOM     13  C   UNL     1       0.056  -3.185   1.622  0.00  0.00    +0.267 C 
ATOM     14  O   UNL     1       0.071  -4.314   1.170  0.00  0.00    -0.268 OA
ATOM     15  N   UNL     1       0.057  -2.993   2.956  0.00  0.00    -0.296 N 
ATOM     16  C   UNL     1       0.034  -1.689   3.634  0.00  0.00    +0.108 C 
ATOM     17  C   UNL     1       0.071  -1.961   5.153  0.00  0.00    +0.020 C 
ATOM     18  C   UNL     1       0.685  -3.384   5.235  0.00  0.00    +0.020 C 
ATOM     19  C   UNL     1       0.076  -4.057   3.977  0.00  0.00    +0.108 C 
ENDBRANCH   5  13
BRANCH  11  20
ATOM     20  C   UNL     1      -1.360  -2.853  -5.176  0.00  0.00    +0.105 C 
BRANCH  20  21
ATOM     21  C   UNL     1      -2.359  -3.768  -5.887  0.00  0.00    +0.105 C 
BRANCH  21  22
ATOM     22  C   UNL     1      -2.634  -3.234  -7.269  0.00  0.00    +0.213 C 
ATOM     23  O   UNL     1      -2.086  -2.221  -7.649  0.00  0.00    -0.276 OA
ATOM     24  N   UNL     1      -3.490  -3.882  -8.084  0.00  0.00    -0.315 N 
ATOM     25  H   UNL     1      -3.929  -4.692  -7.781  0.00  0.00    +0.149 HD
BRANCH  24  26
ATOM     26  C   UNL     1      -3.758  -3.363  -9.428  0.00  0.00    +0.108 C 
BRANCH  26  27
ATOM     27  C   UNL     1      -4.757  -4.278 -10.138  0.00  0.00    +0.052 C 
BRANCH  27  28
ATOM     28  C   UNL     1      -5.032  -3.744 -11.520  0.00  0.00    -0.040 C 
ATOM     29  C   UNL     1      -4.429  -4.119 -12.672  0.00  0.00    -0.001 A 
ATOM     30  C   UNL     1      -3.376  -5.097 -12.970  0.00  0.00    +0.010 A 
ATOM     31  C   UNL     1      -2.969  -5.252 -14.251  0.00  0.00    +0.001 A 
ATOM     32  C   UNL     1      -3.527  -4.505 -15.297  0.00  0.00    +0.002 A 
ATOM     33  C   UNL     1      -4.498  -3.588 -15.102  0.00  0.00    +0.026 A 
ATOM     34  C   UNL     1      -5.002  -3.342 -13.795  0.00  0.00    +0.043 A 
ATOM     35  N   UNL     1      -5.923  -2.520 -13.354  0.00  0.00    -0.380 N 
ATOM     36  C   UNL     1      -6.043  -2.686 -11.902  0.00  0.00    +0.144 C 
ATOM     37  H   UNL     1      -6.441  -1.907 -13.899  0.00  0.00    +0.160 HD
ENDBRANCH  27  28
ENDBRANCH  26  27
ENDBRANCH  24  26
ENDBRANCH  21  22
ENDBRANCH  20  21
ENDBRANCH  11  20
TORSDOF 7
