REMARK  Name = ZINC19940536
REMARK  15 active torsions:
REMARK  status: ('A' for Active; 'I' for Inactive)
REMARK    1  A    between atoms: C_1  and  C_2
REMARK    2  A    between atoms: C_2  and  N_3
REMARK    3  A    between atoms: N_3  and  C_4
REMARK    4  A    between atoms: N_3  and  C_6
REMARK    5  A    between atoms: C_4  and  C_5
REMARK    6  A    between atoms: C_6  and  C_7
REMARK    7  A    between atoms: C_7  and  C_8
REMARK    8  A    between atoms: C_8  and  N_9
REMARK    9  A    between atoms: N_9  and  C_10
REMARK   10  A    between atoms: C_10  and  N_12
REMARK   11  A    between atoms: N_12  and  C_13
REMARK   12  A    between atoms: N_12  and  C_21
REMARK   13  A    between atoms: C_13  and  C_14
REMARK   14  A    between atoms: C_14  and  N_15
REMARK   15  A    between atoms: C_21  and  C_22
REMARK                            x       y       z     vdW  Elec       q    Type
REMARK                         _______ _______ _______ _____ _____    ______ ____
ROOT
ATOM      1  N   UNL     1      -1.903   0.524  -0.215  0.00  0.00    -0.307 N 
ENDROOT
BRANCH   1   2
ATOM      2  C   UNL     1      -1.716  -0.223  -1.321  0.00  0.00    +0.133 C 
ATOM      3  S   UNL     1      -1.924  -1.921  -1.252  0.00  0.00    -0.019 S 
BRANCH   2   4
ATOM      4  N   UNL     1      -1.363   0.366  -2.481  0.00  0.00    -0.326 N 
ATOM      5  H   UNL     1      -1.229   1.457  -2.525  0.00  0.00    +0.148 HD
BRANCH   4   6
ATOM      6  C   UNL     1      -1.159  -0.447  -3.683  0.00  0.00    +0.101 C 
BRANCH   6   7
ATOM      7  C   UNL     1      -0.769   0.460  -4.851  0.00  0.00    +0.000 C 
BRANCH   7   8
ATOM      8  C   UNL     1      -0.556  -0.388  -6.106  0.00  0.00    -0.077 C 
BRANCH   8   9
ATOM      9  N   UNL     1      -0.181   0.482  -7.228  0.00  0.00    +0.379 N 
ATOM     10  H   UNL     1      -0.928   1.287  -7.296  0.00  0.00    -0.082 HD
BRANCH   9  12
ATOM     11  C   UNL     1       2.196   0.011  -6.874  0.00  0.00    -0.017 C 
ATOM     12  C   UNL     1       1.131   1.102  -6.998  0.00  0.00    -0.082 C 
ENDBRANCH   9  12
BRANCH   9  13
ATOM     13  C   UNL     1      -0.199  -0.257  -8.498  0.00  0.00    -0.082 C 
ATOM     14  C   UNL     1      -0.194   0.732  -9.665  0.00  0.00    -0.017 C 
ENDBRANCH   9  13
ENDBRANCH   8   9
ENDBRANCH   7   8
ENDBRANCH   6   7
ENDBRANCH   4   6
ENDBRANCH   2   4
ENDBRANCH   1   2
BRANCH   1  15
ATOM     15  C   UNL     1      -1.725   1.977  -0.274  0.00  0.00    +0.122 C 
BRANCH  15  16
ATOM     16  C   UNL     1      -0.270   2.325   0.048  0.00  0.00    +0.103 C 
BRANCH  16  17
ATOM     17  N   UNL     1      -0.091   3.782  -0.011  0.00  0.00    -0.297 NA
ATOM     18  C   UNL     1      -0.267   4.279  -1.383  0.00  0.00    +0.112 C 
ATOM     19  C   UNL     1      -0.132   5.804  -1.389  0.00  0.00    +0.175 C 
ATOM     20  O   UNL     1       1.138   6.167  -0.841  0.00  0.00    -0.377 OA
ATOM     21  C   UNL     1       1.343   5.700   0.495  0.00  0.00    +0.175 C 
ATOM     22  C   UNL     1       1.222   4.174   0.520  0.00  0.00    +0.112 C 
ENDBRANCH  16  17
ENDBRANCH  15  16
ENDBRANCH   1  15
BRANCH   1  23
ATOM     23  C   UNL     1      -2.286  -0.116   1.046  0.00  0.00    +0.147 C 
BRANCH  23  24
ATOM     24  C   UNL     1      -3.789  -0.181   1.140  0.00  0.00    +0.035 A 
ATOM     25  C   UNL     1      -4.444  -1.301   0.741  0.00  0.00    +0.020 A 
ATOM     26  C   UNL     1      -5.902  -1.335   0.850  0.00  0.00    +0.003 A 
ATOM     27  C   UNL     1      -6.630  -2.464   0.457  0.00  0.00    +0.059 A 
ATOM     28  C   UNL     1      -8.005  -2.465   0.567  0.00  0.00    +0.163 A 
ATOM     29  C   UNL     1      -8.671  -1.344   1.069  0.00  0.00    +0.164 A 
ATOM     30  C   UNL     1      -7.960  -0.223   1.460  0.00  0.00    +0.075 A 
ATOM     31  C   UNL     1      -6.575  -0.205   1.354  0.00  0.00    +0.053 A 
ATOM     32  N   UNL     1      -5.850   0.905   1.738  0.00  0.00    -0.322 N 
ATOM     33  H   UNL     1      -6.368   1.792   2.131  0.00  0.00    +0.169 HD
ATOM     34  C   UNL     1      -4.509   0.924   1.638  0.00  0.00    +0.254 A 
ATOM     35  O   UNL     1      -3.901   1.922   1.986  0.00  0.00    -0.268 OA
ATOM     36  O   UNL     1     -10.027  -1.339   1.185  0.00  0.00    -0.485 OA
ATOM     37  C   UNL     1     -10.741  -2.330   0.439  0.00  0.00    +0.270 C 
ATOM     38  C   UNL     1     -10.046  -3.682   0.648  0.00  0.00    +0.270 C 
ATOM     39  O   UNL     1      -8.699  -3.571   0.178  0.00  0.00    -0.485 OA
ENDBRANCH  23  24
ENDBRANCH   1  23
TORSDOF 13
