REMARK  Name = ZINC07778663
REMARK  3 active torsions:
REMARK  status: ('A' for Active; 'I' for Inactive)
REMARK    1  A    between atoms: C_10  and  C_13
REMARK    2  A    between atoms: C_13  and  C_14
REMARK    3  A    between atoms: N_16  and  C_17
REMARK                            x       y       z     vdW  Elec       q    Type
REMARK                         _______ _______ _______ _____ _____    ______ ____
ROOT
ATOM      1  C   UNL     1      -1.624   1.864   4.587  0.00  0.00    +0.221 C 
ATOM      2  O   UNL     1      -1.637   1.113   5.539  0.00  0.00    -0.275 OA
ATOM      3  N   UNL     1      -2.749   2.069   3.874  0.00  0.00    -0.285 N 
ATOM      4  H   UNL     1      -2.756   2.720   3.155  0.00  0.00    +0.155 HD
ENDROOT
BRANCH   3   5
ATOM      5  C   UNL     1      -3.908   1.341   4.171  0.00  0.00    +0.037 A 
ATOM      6  C   UNL     1      -4.770   0.962   3.151  0.00  0.00    +0.027 A 
ATOM      7  C   UNL     1      -5.912   0.238   3.441  0.00  0.00    +0.051 A 
ATOM      8  C   UNL     1      -6.204  -0.099   4.750  0.00  0.00    +0.167 A 
ATOM      9  C   UNL     1      -5.343   0.285   5.778  0.00  0.00    +0.169 A 
ATOM     10  C   UNL     1      -4.198   1.004   5.487  0.00  0.00    +0.072 A 
ATOM     11  O   UNL     1      -5.859  -0.168   6.964  0.00  0.00    -0.447 OA
ATOM     12  C   UNL     1      -6.746  -1.226   6.572  0.00  0.00    +0.254 C 
ATOM     13  O   UNL     1      -7.252  -0.791   5.302  0.00  0.00    -0.448 OA
ATOM     14  C   UNL     1      -7.879  -1.405   7.589  0.00  0.00    +0.093 C 
ATOM     15  C   UNL     1      -8.144  -2.933   7.588  0.00  0.00    +0.008 C 
ATOM     16  C   UNL     1      -6.723  -3.530   7.428  0.00  0.00    +0.008 C 
ATOM     17  C   UNL     1      -6.011  -2.561   6.457  0.00  0.00    +0.093 C 
ENDBRANCH   3   5
BRANCH   1  18
ATOM     18  C   UNL     1      -0.349   2.570   4.202  0.00  0.00    +0.150 C 
BRANCH  18  28
ATOM     19  C   UNL     1       0.956   6.665   7.218  0.00  0.00    +0.002 A 
ATOM     20  C   UNL     1      -0.044   5.963   7.866  0.00  0.00    +0.004 A 
ATOM     21  C   UNL     1      -0.223   4.615   7.615  0.00  0.00    +0.047 A 
ATOM     22  C   UNL     1       0.601   3.965   6.712  0.00  0.00    +0.143 A 
ATOM     23  C   UNL     1       1.600   4.675   6.050  0.00  0.00    +0.076 A 
ATOM     24  C   UNL     1       1.779   6.024   6.310  0.00  0.00    +0.027 A 
ATOM     25  N   UNL     1       2.407   4.018   5.111  0.00  0.00    -0.280 N 
ATOM     26  C   UNL     1       2.070   2.775   4.708  0.00  0.00    +0.259 C 
ATOM     27  O   UNL     1       2.812   2.148   3.981  0.00  0.00    -0.271 OA
ATOM     28  C   UNL     1       0.769   2.166   5.166  0.00  0.00    +0.268 C 
ATOM     29  O   UNL     1       0.455   2.633   6.479  0.00  0.00    -0.477 OA
ATOM     30  H   UNL     1       3.197   4.452   4.754  0.00  0.00    +0.155 HD
ENDBRANCH  18  28
ENDBRANCH   1  18
TORSDOF 3
