REMARK  Name = ZINC08750728
REMARK  6 active torsions:
REMARK  status: ('A' for Active; 'I' for Inactive)
REMARK    1  A    between atoms: C_3  and  C_6
REMARK    2  A    between atoms: C_14  and  C_17
REMARK    3  A    between atoms: C_17  and  N_51
REMARK    4  A    between atoms: N_20  and  C_23
REMARK    5  A    between atoms: C_26  and  S_28
REMARK    6  A    between atoms: S_28  and  N_31
REMARK                            x       y       z     vdW  Elec       q    Type
REMARK                         _______ _______ _______ _____ _____    ______ ____
ROOT
ATOM      1  C   UNL     1       0.989  -4.248  -4.558  0.00  0.00    -0.059 C 
ATOM      2  C   UNL     1       0.180  -4.377  -5.850  0.00  0.00    +0.088 C 
ATOM      3  N   UNL     1       0.990  -5.063  -6.866  0.00  0.00    -0.320 N 
ATOM      4  C   UNL     1       2.228  -4.320  -7.138  0.00  0.00    +0.088 C 
ATOM      5  C   UNL     1       3.038  -4.192  -5.846  0.00  0.00    -0.059 C 
ATOM      6  N   UNL     1       2.220  -3.481  -4.840  0.00  0.00    +0.386 N 
ATOM      7  H   UNL     1       1.961  -2.559  -5.212  0.00  0.00    -0.081 HD
ENDROOT
BRANCH   3   8
ATOM      8  C   UNL     1       0.262  -5.262  -8.033  0.00  0.00    +0.099 A 
ATOM      9  C   UNL     1      -0.944  -5.954  -7.984  0.00  0.00    +0.043 A 
ATOM     10  C   UNL     1      -1.661  -6.139  -9.152  0.00  0.00    +0.033 A 
ATOM     11  C   UNL     1      -1.141  -5.635 -10.336  0.00  0.00    +0.121 A 
ATOM     12  C   UNL     1       0.065  -4.964 -10.313  0.00  0.00    +0.112 A 
ATOM     13  N   UNL     1       0.794  -4.758  -9.184  0.00  0.00    -0.348 N 
ATOM     14  H   UNL     1       1.688  -4.254  -9.196  0.00  0.00    +0.167 HD
BRANCH  11  15
ATOM     15  S   UNL     1      -2.011  -5.849 -11.853  0.00  0.00    +0.057 S 
ATOM     16  O   UNL     1      -3.378  -6.037 -11.514  0.00  0.00    -0.153 OA
ATOM     17  O   UNL     1      -1.577  -4.811 -12.721  0.00  0.00    -0.153 OA
BRANCH  15  18
ATOM     18  N   UNL     1      -1.489  -7.272 -12.520  0.00  0.00    -0.203 NA
ATOM     19  H   UNL     1      -0.820  -7.806 -12.063  0.00  0.00    +0.144 HD
ATOM     20  H   UNL     1      -1.853  -7.573 -13.368  0.00  0.00    +0.144 HD
ENDBRANCH  15  18
ENDBRANCH  11  15
ENDBRANCH   3   8
BRANCH   6  21
ATOM     21  C   UNL     1       2.997  -3.295  -3.596  0.00  0.00    -0.003 C 
BRANCH  21  30
ATOM     22  C   UNL     1       0.002  -0.004   0.002  0.00  0.00    +0.010 A 
ATOM     23  C   UNL     1      -0.726  -0.711   0.902  0.00  0.00    +0.057 A 
ATOM     24  S   UNL     1      -0.369  -2.405   0.477  0.00  0.00    -0.078 S 
ATOM     25  C   UNL     1       0.743  -2.125  -0.874  0.00  0.00    +0.092 A 
ATOM     26  C   UNL     1       0.810  -0.732  -0.970  0.00  0.00    +0.080 A 
ATOM     27  C   UNL     1       1.689  -0.218  -2.042  0.00  0.00    +0.282 A 
ATOM     28  O   UNL     1       1.819   0.984  -2.213  0.00  0.00    -0.265 OA
ATOM     29  N   UNL     1       2.341  -1.091  -2.824  0.00  0.00    -0.197 NA
ATOM     30  C   UNL     1       2.230  -2.382  -2.675  0.00  0.00    +0.095 A 
ATOM     31  N   UNL     1       1.447  -2.922  -1.719  0.00  0.00    -0.339 N 
ATOM     32  H   UNL     1       1.386  -3.886  -1.635  0.00  0.00    +0.167 HD
BRANCH  22  35
ATOM     33  C   UNL     1      -0.863   3.682   0.030  0.00  0.00    +0.008 A 
ATOM     34  C   UNL     1      -1.093   2.322   0.019  0.00  0.00    +0.016 A 
ATOM     35  C   UNL     1      -0.018   1.474   0.010  0.00  0.00    +0.021 A 
ATOM     36  S   UNL     1       1.353   2.618   0.003  0.00  0.00    -0.097 S 
ATOM     37  C   UNL     1       0.415   4.136   0.020  0.00  0.00    +0.046 A 
ENDBRANCH  22  35
ENDBRANCH  21  30
ENDBRANCH   6  21
TORSDOF 6
