REMARK  Name = ZINC39707572
REMARK  3 active torsions:
REMARK  status: ('A' for Active; 'I' for Inactive)
REMARK    1  A    between atoms: C_6  and  C_7
REMARK    2  A    between atoms: C_19  and  N_23
REMARK    3  A    between atoms: C_20  and  C_21
REMARK                            x       y       z     vdW  Elec       q    Type
REMARK                         _______ _______ _______ _____ _____    ______ ____
ROOT
ATOM      1  C   UNL     1      -1.293  -0.775   0.011  0.00  0.00    +0.085 C 
ATOM      2  C   UNL     1      -1.375  -1.653  -1.245  0.00  0.00    +0.171 C 
ATOM      3  C   UNL     1      -0.921  -0.870  -2.442  0.00  0.00    +0.233 C 
ATOM      4  O   UNL     1      -1.505   0.150  -2.739  0.00  0.00    -0.274 OA
ATOM      5  N   UNL     1       0.116  -1.273  -3.193  0.00  0.00    -0.238 N 
ATOM      6  C   UNL     1       0.799  -2.391  -2.898  0.00  0.00    +0.332 C 
ATOM      7  O   UNL     1       1.716  -2.733  -3.620  0.00  0.00    -0.250 OA
ATOM      8  N   UNL     1       0.495  -3.139  -1.827  0.00  0.00    -0.131 NA
ATOM      9  C   UNL     1      -0.486  -2.853  -1.023  0.00  0.00    +0.204 C 
ATOM     10  O   UNL     1      -0.745  -3.619   0.060  0.00  0.00    -0.428 OA
ATOM     11  C   UNL     1      -1.073  -2.970   1.200  0.00  0.00    +0.200 C 
ATOM     12  C   UNL     1      -1.349  -1.649   1.234  0.00  0.00    +0.095 C 
ATOM     13  H   UNL     1       0.378  -0.746  -3.964  0.00  0.00    +0.159 HD
ENDROOT
BRANCH   1  19
ATOM     14  C   UNL     1      -0.017   1.378   0.010  0.00  0.00    +0.006 A 
ATOM     15  C   UNL     1       1.171   2.086   0.002  0.00  0.00    +0.022 A 
ATOM     16  C   UNL     1       2.378   1.412  -0.013  0.00  0.00    +0.059 A 
ATOM     17  C   UNL     1       2.397   0.027  -0.021  0.00  0.00    +0.060 A 
ATOM     18  C   UNL     1       1.208  -0.680  -0.013  0.00  0.00    +0.025 A 
ATOM     19  C   UNL     1       0.002  -0.004   0.002  0.00  0.00    -0.036 A 
ATOM     20 CL   UNL     1       3.912  -0.821  -0.040  0.00  0.00    -0.082 Cl
ATOM     21 CL   UNL     1       3.869   2.301  -0.023  0.00  0.00    -0.082 Cl
ENDBRANCH   1  19
BRANCH  11  22
ATOM     22  N   UNL     1      -1.128  -3.685   2.371  0.00  0.00    -0.328 N 
ATOM     23  H   UNL     1      -0.933  -4.635   2.369  0.00  0.00    +0.145 HD
ATOM     24  H   UNL     1      -1.361  -3.239   3.200  0.00  0.00    +0.145 HD
ENDBRANCH  11  22
BRANCH  12  25
ATOM     25  C   UNL     1      -1.710  -1.055   2.486  0.00  0.00    +0.100 C 
ATOM     26  N   UNL     1      -1.996  -0.583   3.479  0.00  0.00    -0.191 NA
ENDBRANCH  12  25
TORSDOF 3
