REMARK  Name = ZINC18223064
REMARK  3 active torsions:
REMARK  status: ('A' for Active; 'I' for Inactive)
REMARK    1  A    between atoms: C_8  and  C_13
REMARK    2  A    between atoms: C_13  and  C_14
REMARK    3  A    between atoms: C_13  and  C_20
REMARK                            x       y       z     vdW  Elec       q    Type
REMARK                         _______ _______ _______ _____ _____    ______ ____
ROOT
ATOM      1  C   UNL     1       2.677  -4.256  -0.046  0.00  0.00    +0.116 C 
ENDROOT
BRANCH   1   9
ATOM      2  C   UNL     1      -2.147  -0.608   1.493  0.00  0.00    +0.001 A 
ATOM      3  C   UNL     1      -1.420   0.574   1.517  0.00  0.00    +0.002 A 
ATOM      4  C   UNL     1      -0.071   0.575   1.237  0.00  0.00    +0.026 A 
ATOM      5  C   UNL     1       0.573  -0.619   0.927  0.00  0.00    +0.053 A 
ATOM      6  C   UNL     1      -0.163  -1.815   0.903  0.00  0.00    +0.045 A 
ATOM      7  C   UNL     1      -1.528  -1.800   1.188  0.00  0.00    +0.014 A 
ATOM      8  C   UNL     1       0.538  -3.069   0.572  0.00  0.00    +0.197 A 
ATOM      9  C   UNL     1       1.916  -3.002   0.296  0.00  0.00    +0.077 A 
ATOM     10  C   UNL     1       2.562  -1.804   0.339  0.00  0.00    +0.257 A 
ATOM     11  O   UNL     1       3.885  -1.768   0.070  0.00  0.00    -0.267 OA
ATOM     12  N   UNL     1       1.923  -0.644   0.643  0.00  0.00    -0.322 N 
ATOM     13  H   UNL     1       2.427   0.184   0.660  0.00  0.00    +0.169 HD
ATOM     14  O   UNL     1      -0.059  -4.134   0.539  0.00  0.00    -0.287 OA
ENDBRANCH   1   9
BRANCH   1  15
ATOM     15  C   UNL     1       1.993  -4.962  -1.189  0.00  0.00    +0.077 A 
ATOM     16  C   UNL     1       1.245  -4.224  -2.123  0.00  0.00    +0.197 A 
ATOM     17  C   UNL     1       0.595  -4.960  -3.224  0.00  0.00    +0.045 A 
ATOM     18  C   UNL     1      -0.163  -4.298  -4.190  0.00  0.00    +0.014 A 
ATOM     19  C   UNL     1      -0.754  -5.021  -5.203  0.00  0.00    +0.001 A 
ATOM     20  C   UNL     1      -0.599  -6.398  -5.265  0.00  0.00    +0.002 A 
ATOM     21  C   UNL     1       0.147  -7.065  -4.318  0.00  0.00    +0.026 A 
ATOM     22  C   UNL     1       0.753  -6.354  -3.287  0.00  0.00    +0.053 A 
ATOM     23  N   UNL     1       1.505  -6.997  -2.326  0.00  0.00    -0.322 N 
ATOM     24  H   UNL     1       1.611  -7.960  -2.374  0.00  0.00    +0.169 HD
ATOM     25  C   UNL     1       2.106  -6.313  -1.318  0.00  0.00    +0.257 A 
ATOM     26  O   UNL     1       2.835  -6.996  -0.409  0.00  0.00    -0.267 OA
ATOM     27  O   UNL     1       1.137  -3.012  -2.026  0.00  0.00    -0.287 OA
ENDBRANCH   1  15
BRANCH   1  28
ATOM     28  C   UNL     1       2.715  -5.165   1.155  0.00  0.00    +0.054 A 
ATOM     29  C   UNL     1       1.647  -6.004   1.411  0.00  0.00    +0.024 A 
ATOM     30  C   UNL     1       1.691  -6.836   2.519  0.00  0.00    +0.003 A 
ATOM     31  C   UNL     1       2.814  -6.793   3.332  0.00  0.00    +0.020 A 
ATOM     32  C   UNL     1       3.844  -5.928   3.013  0.00  0.00    +0.111 A 
ATOM     33  N   UNL     1       3.769  -5.154   1.947  0.00  0.00    -0.259 NA
ENDBRANCH   1  28
TORSDOF 3
