REMARK  Name = ZINC36375405
REMARK  11 active torsions:
REMARK  status: ('A' for Active; 'I' for Inactive)
REMARK    1  A    between atoms: C_1  and  C_2
REMARK    2  A    between atoms: C_2  and  C_36
REMARK    3  A    between atoms: C_3  and  C_4
REMARK    4  A    between atoms: C_4  and  C_5
REMARK    5  A    between atoms: C_12  and  C_19
REMARK    6  A    between atoms: C_12  and  C_20
REMARK    7  A    between atoms: C_13  and  O_18
REMARK    8  A    between atoms: C_15  and  O_17
REMARK    9  A    between atoms: C_22  and  C_29
REMARK   10  A    between atoms: C_24  and  O_28
REMARK   11  A    between atoms: C_32  and  O_35
REMARK                            x       y       z     vdW  Elec       q    Type
REMARK                         _______ _______ _______ _____ _____    ______ ____
ROOT
ATOM      1  C   UNL     1      -0.869  -0.564   3.379  0.00  0.00    -0.001 A 
ATOM      2  C   UNL     1      -2.139  -0.071   3.466  0.00  0.00    +0.022 A 
ATOM      3  C   UNL     1      -3.054  -0.667   4.338  0.00  0.00    +0.063 A 
ATOM      4  C   UNL     1      -2.671  -1.773   5.116  0.00  0.00    +0.141 A 
ATOM      5  C   UNL     1      -1.374  -2.259   5.018  0.00  0.00    +0.068 A 
ATOM      6  C   UNL     1      -0.476  -1.660   4.150  0.00  0.00    +0.134 A 
ATOM      7  O   UNL     1       0.801  -2.104   4.029  0.00  0.00    -0.483 OA
ATOM      8  C   UNL     1       1.101  -3.416   4.505  0.00  0.00    +0.133 C 
ATOM      9  C   UNL     1       0.540  -3.554   5.927  0.00  0.00    +0.191 C 
ATOM     10  C   UNL     1      -0.982  -3.446   5.861  0.00  0.00    +0.184 C 
ATOM     11  C   UNL     1       2.617  -3.622   4.527  0.00  0.00    +0.058 C 
ATOM     12  C   UNL     1       0.451  -4.457   3.592  0.00  0.00    +0.058 C 
ATOM     13  O   UNL     1      -3.551  -2.370   5.953  0.00  0.00    -0.480 OA
ATOM     14  C   UNL     1      -4.678  -1.623   6.409  0.00  0.00    +0.240 C 
ATOM     15  C   UNL     1      -5.417  -1.027   5.201  0.00  0.00    +0.230 C 
ATOM     16  C   UNL     1      -4.426  -0.151   4.456  0.00  0.00    +0.199 C 
ATOM     17  O   UNL     1      -4.748   0.918   3.983  0.00  0.00    -0.289 OA
ENDROOT
BRANCH  14  18
ATOM     18  C   UNL     1      -5.609  -2.530   7.171  0.00  0.00    -0.004 A 
ATOM     19  C   UNL     1      -5.757  -3.849   6.783  0.00  0.00    +0.011 A 
ATOM     20  C   UNL     1      -6.610  -4.684   7.480  0.00  0.00    +0.046 A 
ATOM     21  C   UNL     1      -7.318  -4.197   8.569  0.00  0.00    +0.117 A 
ATOM     22  C   UNL     1      -7.168  -2.873   8.956  0.00  0.00    +0.046 A 
ATOM     23  C   UNL     1      -6.310  -2.045   8.259  0.00  0.00    +0.011 A 
BRANCH  21  24
ATOM     24  O   UNL     1      -8.158  -5.016   9.255  0.00  0.00    -0.507 OA
ATOM     25  H   UNL     1      -7.738  -5.485   9.989  0.00  0.00    +0.292 HD
ENDBRANCH  21  24
ENDBRANCH  14  18
BRANCH  10  26
ATOM     26  O   UNL     1      -1.516  -3.291   7.178  0.00  0.00    -0.384 OA
ATOM     27  H   UNL     1      -1.369  -4.054   7.754  0.00  0.00    +0.210 HD
ENDBRANCH  10  26
BRANCH   9  28
ATOM     28  O   UNL     1       1.054  -2.506   6.751  0.00  0.00    -0.385 OA
ATOM     29  H   UNL     1       0.739  -2.534   7.665  0.00  0.00    +0.210 HD
ENDBRANCH   9  28
BRANCH  15  30
ATOM     30  O   UNL     1      -5.879  -2.076   4.348  0.00  0.00    -0.380 OA
ATOM     31  H   UNL     1      -6.355  -1.766   3.566  0.00  0.00    +0.211 HD
ENDBRANCH  15  30
BRANCH   1  32
ATOM     32  C   UNL     1       0.117   0.078   2.437  0.00  0.00    +0.066 C 
BRANCH  32  35
ATOM     33  C   UNL     1      -0.209   1.485   0.015  0.00  0.00    +0.038 C 
ATOM     34  C   UNL     1      -0.094  -0.018   0.006  0.00  0.00    -0.079 C 
ATOM     35  C   UNL     1       0.115  -0.665   1.125  0.00  0.00    -0.023 C 
ATOM     36  C   UNL     1      -0.219  -0.775  -1.291  0.00  0.00    +0.038 C 
ENDBRANCH  32  35
ENDBRANCH   1  32
TORSDOF 7
