REMARK  Name = ZINC08655304
REMARK  7 active torsions:
REMARK  status: ('A' for Active; 'I' for Inactive)
REMARK    1  A    between atoms: C_1  and  O_2
REMARK    2  A    between atoms: O_2  and  C_3
REMARK    3  A    between atoms: N_5  and  N_6
REMARK    4  A    between atoms: C_7  and  C_8
REMARK    5  A    between atoms: C_7  and  C_20
REMARK    6  A    between atoms: C_8  and  C_9
REMARK    7  A    between atoms: C_9  and  O_19
REMARK                            x       y       z     vdW  Elec       q    Type
REMARK                         _______ _______ _______ _____ _____    ______ ____
ROOT
ATOM      1  N   UNL     1      -2.630   0.128   0.259  0.00  0.00    -0.181 NA
ATOM      2  C   UNL     1      -3.582  -0.674  -0.108  0.00  0.00    +0.071 C 
ENDROOT
BRANCH   2   3
ATOM      3  C   UNL     1      -4.891  -0.129  -0.513  0.00  0.00    +0.016 A 
ATOM      4  C   UNL     1      -5.894  -0.984  -0.975  0.00  0.00    +0.012 A 
ATOM      5  C   UNL     1      -7.118  -0.468  -1.348  0.00  0.00    +0.021 A 
ATOM      6  C   UNL     1      -7.350   0.896  -1.274  0.00  0.00    +0.042 A 
ATOM      7  C   UNL     1      -6.359   1.750  -0.822  0.00  0.00    +0.040 A 
ATOM      8  C   UNL     1      -5.131   1.246  -0.441  0.00  0.00    +0.051 A 
ATOM      9 CL   UNL     1      -3.888   2.319   0.125  0.00  0.00    -0.083 Cl
ATOM     10 CL   UNL     1      -8.891   1.537  -1.751  0.00  0.00    -0.083 Cl
ENDBRANCH   2   3
BRANCH   1  13
ATOM     11  C   UNL     1      -0.340   0.464   0.814  0.00  0.00    +0.420 C 
ATOM     12  O   UNL     1       0.769   0.025   1.049  0.00  0.00    -0.225 OA
ATOM     13  N   UNL     1      -1.352  -0.379   0.529  0.00  0.00    -0.172 N 
ATOM     14  H   UNL     1      -1.196  -1.336   0.512  0.00  0.00    +0.181 HD
BRANCH  11  16
ATOM     15  C   UNL     1       0.580   2.640   1.152  0.00  0.00    +0.282 C 
ATOM     16  O   UNL     1      -0.556   1.793   0.838  0.00  0.00    -0.453 OA
ENDBRANCH  11  16
ENDBRANCH   1  13
BRANCH   2  17
ATOM     17  C   UNL     1      -3.349  -2.163  -0.120  0.00  0.00    +0.107 C 
BRANCH  17  18
ATOM     18  C   UNL     1      -3.590  -2.728   1.281  0.00  0.00    +0.174 C 
ATOM     19  C   UNL     1      -3.335  -4.218   1.302  0.00  0.00    +0.014 A 
ATOM     20  C   UNL     1      -2.216  -4.980   1.050  0.00  0.00    +0.009 A 
ATOM     21  C   UNL     1      -2.283  -6.358   1.152  0.00  0.00    +0.000 A 
ATOM     22  C   UNL     1      -3.475  -6.965   1.505  0.00  0.00    +0.002 A 
ATOM     23  C   UNL     1      -4.597  -6.204   1.758  0.00  0.00    +0.024 A 
ATOM     24  C   UNL     1      -4.537  -4.815   1.658  0.00  0.00    +0.040 A 
ATOM     25  N   UNL     1      -5.517  -3.843   1.861  0.00  0.00    -0.282 N 
ATOM     26  C   UNL     1      -5.049  -2.599   1.662  0.00  0.00    +0.254 C 
ATOM     27  O   UNL     1      -5.678  -1.567   1.768  0.00  0.00    -0.272 OA
ATOM     28  H   UNL     1      -6.431  -4.042   2.117  0.00  0.00    +0.155 HD
BRANCH  18  29
ATOM     29  O   UNL     1      -2.759  -2.064   2.236  0.00  0.00    -0.374 OA
ATOM     30  H   UNL     1      -2.870  -2.383   3.143  0.00  0.00    +0.211 HD
ENDBRANCH  18  29
ENDBRANCH  17  18
ENDBRANCH   2  17
TORSDOF 6
