REMARK  Name = ZINC34734921
REMARK  7 active torsions:
REMARK  status: ('A' for Active; 'I' for Inactive)
REMARK    1  A    between atoms: C_1  and  C_2
REMARK    2  A    between atoms: C_2  and  C_34
REMARK    3  A    between atoms: N_11  and  C_28
REMARK    4  A    between atoms: N_17  and  C_20
REMARK    5  A    between atoms: C_20  and  C_21
REMARK    6  A    between atoms: C_21  and  C_22
REMARK    7  A    between atoms: C_28  and  C_29
REMARK                            x       y       z     vdW  Elec       q    Type
REMARK                         _______ _______ _______ _____ _____    ______ ____
ROOT
ATOM      1  C   UNL     1      -0.026   1.595   0.053  0.00  0.00    +0.041 C 
ATOM      2  C   UNL     1       0.053   0.069   0.134  0.00  0.00    +0.068 C 
ATOM      3  C   UNL     1      -1.362  -0.514   0.117  0.00  0.00    +0.071 C 
ATOM      4  C   UNL     1      -2.038  -0.159   1.439  0.00  0.00    -0.018 A 
ATOM      5  C   UNL     1      -1.278   0.226   2.492  0.00  0.00    +0.021 A 
ATOM      6  S   UNL     1      -2.427   0.541   3.804  0.00  0.00    -0.071 S 
ATOM      7  C   UNL     1      -3.920   0.158   2.943  0.00  0.00    +0.118 A 
ATOM      8  C   UNL     1      -3.473  -0.206   1.651  0.00  0.00    +0.076 A 
ATOM      9  C   UNL     1      -4.472  -0.580   0.695  0.00  0.00    +0.264 A 
ATOM     10  O   UNL     1      -4.187  -0.910  -0.443  0.00  0.00    -0.267 OA
ATOM     11  N   UNL     1      -5.753  -0.545   1.133  0.00  0.00    -0.271 N 
ATOM     12  C   UNL     1      -6.093  -0.180   2.399  0.00  0.00    +0.202 A 
ATOM     13  N   UNL     1      -5.196   0.171   3.309  0.00  0.00    -0.208 NA
ATOM     14  N   UNL     1      -7.421  -0.176   2.748  0.00  0.00    -0.304 N 
ATOM     15  C   UNL     1      -8.052  -1.369   3.334  0.00  0.00    +0.089 C 
ATOM     16  C   UNL     1      -8.796  -0.949   4.606  0.00  0.00    -0.060 C 
ATOM     17  N   UNL     1      -9.730   0.138   4.290  0.00  0.00    +0.382 N 
ATOM     18  C   UNL     1      -8.986   1.327   3.857  0.00  0.00    -0.060 C 
ATOM     19  C   UNL     1      -8.250   1.022   2.553  0.00  0.00    +0.089 C 
ATOM     20  C   UNL     1       0.214   0.348   2.508  0.00  0.00    +0.203 C 
ATOM     21  O   UNL     1       0.726  -0.308   1.338  0.00  0.00    -0.368 OA
ATOM     22  C   UNL     1       0.833  -0.462  -1.071  0.00  0.00    +0.041 C 
ATOM     23  H   UNL     1     -10.350  -0.157   3.550  0.00  0.00    -0.082 HD
ENDROOT
BRANCH  17  24
ATOM     24  C   UNL     1     -10.520   0.465   5.484  0.00  0.00    -0.074 C 
BRANCH  24  25
ATOM     25  C   UNL     1     -11.579   1.510   5.126  0.00  0.00    +0.016 C 
BRANCH  25  26
ATOM     26  C   UNL     1     -12.389   1.845   6.351  0.00  0.00    -0.049 A 
ATOM     27  C   UNL     1     -13.529   1.121   6.645  0.00  0.00    +0.003 A 
ATOM     28  C   UNL     1     -14.273   1.429   7.769  0.00  0.00    +0.000 A 
ATOM     29  C   UNL     1     -13.876   2.461   8.599  0.00  0.00    +0.000 A 
ATOM     30  C   UNL     1     -12.735   3.184   8.306  0.00  0.00    +0.000 A 
ATOM     31  C   UNL     1     -11.990   2.874   7.184  0.00  0.00    +0.003 A 
ENDBRANCH  25  26
ENDBRANCH  24  25
ENDBRANCH  17  24
BRANCH  11  32
ATOM     32  C   UNL     1      -6.821  -0.915   0.201  0.00  0.00    +0.223 C 
BRANCH  32  33
ATOM     33  C   UNL     1      -7.014  -2.410   0.228  0.00  0.00    +0.230 C 
ATOM     34  O   UNL     1      -6.328  -3.097   0.954  0.00  0.00    -0.274 OA
ATOM     35  N   UNL     1      -7.950  -2.982  -0.555  0.00  0.00    -0.328 N 
ATOM     36  H   UNL     1      -8.499  -2.432  -1.135  0.00  0.00    +0.145 HD
ATOM     37  H   UNL     1      -8.075  -3.944  -0.538  0.00  0.00    +0.145 HD
ENDBRANCH  32  33
ENDBRANCH  11  32
TORSDOF 5
