REMARK  Name = ZINC31027028
REMARK  6 active torsions:
REMARK  status: ('A' for Active; 'I' for Inactive)
REMARK    1  A    between atoms: C_1  and  C_2
REMARK    2  A    between atoms: C_2  and  C_4
REMARK    3  A    between atoms: C_2  and  N_15
REMARK    4  A    between atoms: C_7  and  N_10
REMARK    5  A    between atoms: N_18  and  C_19
REMARK    6  A    between atoms: C_19  and  C_20
REMARK                            x       y       z     vdW  Elec       q    Type
REMARK                         _______ _______ _______ _____ _____    ______ ____
ROOT
ATOM      1  N   UNL     1       2.291   7.928   0.908  0.00  0.00    -0.293 N 
ATOM      2  C   UNL     1       2.786   9.050   1.468  0.00  0.00    +0.300 C 
ATOM      3  O   UNL     1       3.926   9.397   1.226  0.00  0.00    -0.253 OA
ATOM      4  N   UNL     1       2.018   9.786   2.296  0.00  0.00    -0.296 N 
ATOM      5  H   UNL     1       1.260   7.614   1.126  0.00  0.00    +0.151 HD
ATOM      6  H   UNL     1       0.987   9.471   2.514  0.00  0.00    +0.150 HD
ENDROOT
BRANCH   1   8
ATOM      7  C   UNL     1       3.039   7.699  -1.409  0.00  0.00    +0.033 C 
ATOM      8  C   UNL     1       3.125   7.128   0.008  0.00  0.00    +0.102 C 
BRANCH   8   9
ATOM      9  C   UNL     1       2.638   5.702   0.006  0.00  0.00    -0.027 A 
ATOM     10  C   UNL     1       3.549   4.662  -0.008  0.00  0.00    +0.007 A 
ATOM     11  C   UNL     1       3.106   3.354  -0.010  0.00  0.00    +0.026 A 
ATOM     12  C   UNL     1       1.744   3.084   0.002  0.00  0.00    +0.047 A 
ATOM     13  C   UNL     1       0.832   4.131   0.010  0.00  0.00    +0.026 A 
ATOM     14  C   UNL     1       1.281   5.437   0.017  0.00  0.00    +0.007 A 
BRANCH  12  15
ATOM     15  N   UNL     1       1.290   1.757  -0.001  0.00  0.00    -0.306 N 
ATOM     16  C   UNL     1      -0.016   1.342   0.009  0.00  0.00    +0.112 A 
ATOM     17  C   UNL     1       0.002  -0.004   0.002  0.00  0.00    +0.130 A 
ATOM     18  N   UNL     1       1.282  -0.406  -0.012  0.00  0.00    -0.244 NA
ATOM     19  C   UNL     1       2.063   0.640  -0.014  0.00  0.00    +0.204 A 
ENDBRANCH  12  15
ENDBRANCH   8   9
ENDBRANCH   1   8
BRANCH   4  20
ATOM     20  C   UNL     1       2.557  11.004   2.904  0.00  0.00    +0.153 C 
BRANCH  20  21
ATOM     21  C   UNL     1       1.489  11.645   3.793  0.00  0.00    +0.228 C 
ATOM     22  C   UNL     1       2.043  12.931   4.423  0.00  0.00    +0.275 C 
ATOM     23  O   UNL     1       1.016  13.510   5.234  0.00  0.00    -0.485 OA
ATOM     24  C   UNL     1      -0.227  13.589   4.685  0.00  0.00    +0.162 A 
ATOM     25  C   UNL     1      -1.167  14.440   5.248  0.00  0.00    +0.049 A 
ATOM     26  C   UNL     1      -2.435  14.526   4.705  0.00  0.00    +0.004 A 
ATOM     27  C   UNL     1      -2.770  13.765   3.601  0.00  0.00    +0.004 A 
ATOM     28  C   UNL     1      -1.838  12.917   3.034  0.00  0.00    +0.049 A 
ATOM     29  C   UNL     1      -0.563  12.826   3.573  0.00  0.00    +0.163 A 
ATOM     30  O   UNL     1       0.346  11.988   3.003  0.00  0.00    -0.480 OA
ENDBRANCH  20  21
ENDBRANCH   4  20
TORSDOF 5
