REMARK  Name = ZINC67414932
REMARK  7 active torsions:
REMARK  status: ('A' for Active; 'I' for Inactive)
REMARK    1  A    between atoms: C_1  and  C_2
REMARK    2  A    between atoms: N_4  and  C_5
REMARK    3  A    between atoms: C_5  and  C_6
REMARK    4  A    between atoms: N_11  and  C_13
REMARK    5  A    between atoms: C_13  and  C_14
REMARK    6  A    between atoms: C_14  and  C_15
REMARK    7  A    between atoms: N_17  and  N_18
REMARK                            x       y       z     vdW  Elec       q    Type
REMARK                         _______ _______ _______ _____ _____    ______ ____
ROOT
ATOM      1  C   UNL     1       0.709  -8.078  -5.485  0.00  0.00    +0.228 C 
ATOM      2  O   UNL     1       0.761  -8.690  -4.440  0.00  0.00    -0.274 OA
ATOM      3  N   UNL     1       0.848  -8.730  -6.656  0.00  0.00    -0.224 N 
ATOM      4  H   UNL     1       0.806  -8.240  -7.493  0.00  0.00    +0.174 HD
ENDROOT
BRANCH   3   5
ATOM      5  N   UNL     1       1.054 -10.116  -6.666  0.00  0.00    -0.137 N 
ATOM      6  C   UNL     1       2.242 -10.704  -6.916  0.00  0.00    +0.263 C 
ATOM      7  O   UNL     1       3.294 -10.157  -7.165  0.00  0.00    -0.271 OA
ATOM      8  C   UNL     1       1.984 -12.191  -6.819  0.00  0.00    +0.114 C 
ATOM      9  C   UNL     1       2.825 -12.804  -5.705  0.00  0.00    +0.035 C 
ATOM     10  C   UNL     1       2.526 -14.303  -5.604  0.00  0.00    +0.003 C 
ATOM     11  C   UNL     1       2.849 -14.977  -6.939  0.00  0.00    +0.000 C 
ATOM     12  C   UNL     1       1.982 -14.367  -8.042  0.00  0.00    +0.003 C 
ATOM     13  C   UNL     1       2.278 -12.869  -8.153  0.00  0.00    +0.035 C 
ATOM     14  N   UNL     1       0.555 -12.284  -6.497  0.00  0.00    -0.284 N 
ATOM     15  C   UNL     1       0.097 -11.020  -6.423  0.00  0.00    +0.326 C 
ATOM     16  O   UNL     1      -1.056 -10.732  -6.168  0.00  0.00    -0.251 OA
ATOM     17  H   UNL     1       0.042 -13.097  -6.361  0.00  0.00    +0.151 HD
ENDBRANCH   3   5
BRANCH   1  18
ATOM     18  C   UNL     1       0.488  -6.587  -5.475  0.00  0.00    +0.079 C 
BRANCH  18  19
ATOM     19  C   UNL     1       0.363  -6.100  -4.030  0.00  0.00    -0.070 C 
BRANCH  19  24
ATOM     20  C   UNL     1       0.013  -2.639  -2.622  0.00  0.00    -0.011 C 
ATOM     21  C   UNL     1      -1.308  -2.250  -3.292  0.00  0.00    +0.001 C 
ATOM     22  C   UNL     1      -1.337  -2.824  -4.712  0.00  0.00    -0.018 C 
ATOM     23  C   UNL     1      -1.144  -4.341  -4.646  0.00  0.00    -0.079 C 
ATOM     24  N   UNL     1       0.147  -4.647  -4.020  0.00  0.00    +0.380 N 
ATOM     25  C   UNL     1       0.157  -4.162  -2.634  0.00  0.00    -0.074 C 
ATOM     26  H   UNL     1       0.887  -4.196  -4.538  0.00  0.00    -0.082 HD
BRANCH  20  27
ATOM     27  C   UNL     1       0.020  -2.136  -1.177  0.00  0.00    +0.105 C 
BRANCH  27  31
ATOM     28  C   UNL     1      -0.018   1.503   0.010  0.00  0.00    +0.109 C 
ATOM     29  C   UNL     1       0.002  -0.004   0.002  0.00  0.00    +0.210 C 
ATOM     30  O   UNL     1       0.020  -0.616   1.049  0.00  0.00    -0.276 OA
ATOM     31  N   UNL     1       0.000  -0.672  -1.169  0.00  0.00    -0.315 N 
ATOM     32  H   UNL     1      -0.015  -0.182  -2.006  0.00  0.00    +0.149 HD
ENDBRANCH  27  31
ENDBRANCH  20  27
ENDBRANCH  19  24
ENDBRANCH  18  19
ENDBRANCH   1  18
TORSDOF 6
