REMARK  Name = ZINC61500563
REMARK  3 active torsions:
REMARK  status: ('A' for Active; 'I' for Inactive)
REMARK    1  A    between atoms: C_11  and  C_13
REMARK    2  A    between atoms: N_15  and  N_16
REMARK    3  A    between atoms: C_17  and  C_19
REMARK                            x       y       z     vdW  Elec       q    Type
REMARK                         _______ _______ _______ _____ _____    ______ ____
ROOT
ATOM      1  C   UNL     1       1.768  -6.301  -0.052  0.00  0.00    +0.267 C 
ATOM      2  O   UNL     1       2.800  -6.946  -0.066  0.00  0.00    -0.268 OA
ATOM      3  N   UNL     1       0.578  -6.933  -0.044  0.00  0.00    -0.230 N 
ATOM      4  H   UNL     1      -0.244  -6.419  -0.033  0.00  0.00    +0.173 HD
ENDROOT
BRANCH   1  15
ATOM      5  C   UNL     1      -0.016   1.356   0.009  0.00  0.00    +0.001 A 
ATOM      6  C   UNL     1       1.158   2.096   0.002  0.00  0.00    +0.001 A 
ATOM      7  C   UNL     1       2.374   1.441  -0.013  0.00  0.00    +0.016 A 
ATOM      8  C   UNL     1       2.405   0.061  -0.021  0.00  0.00    +0.021 A 
ATOM      9  C   UNL     1       1.228  -0.710  -0.013  0.00  0.00    +0.004 A 
ATOM     10  C   UNL     1       0.002  -0.004   0.002  0.00  0.00    +0.010 A 
ATOM     11  C   UNL     1       1.430  -2.160  -0.023  0.00  0.00    +0.035 A 
ATOM     12  C   UNL     1       2.740  -2.636  -0.038  0.00  0.00    +0.028 A 
ATOM     13  S   UNL     1       3.712  -1.134  -0.040  0.00  0.00    -0.088 S 
ATOM     14  C   UNL     1       2.924  -4.010  -0.048  0.00  0.00    +0.036 A 
ATOM     15  C   UNL     1       1.820  -4.837  -0.043  0.00  0.00    +0.077 A 
ATOM     16  S   UNL     1       0.471  -3.671  -0.023  0.00  0.00    -0.082 S 
ENDBRANCH   1  15
BRANCH   3  17
ATOM     17  N   UNL     1       0.529  -8.334  -0.053  0.00  0.00    -0.230 N 
ATOM     18  C   UNL     1      -0.661  -8.966  -0.045  0.00  0.00    +0.263 C 
ATOM     19  O   UNL     1      -1.693  -8.321  -0.031  0.00  0.00    -0.269 OA
ATOM     20  H   UNL     1       1.351  -8.848  -0.064  0.00  0.00    +0.173 HD
BRANCH  18  21
ATOM     21  C   UNL     1      -0.713 -10.439  -0.054  0.00  0.00    +0.076 A 
ATOM     22  C   UNL     1      -1.915 -11.286  -0.054  0.00  0.00    +0.054 A 
ATOM     23  C   UNL     1      -1.473 -12.553  -0.064  0.00  0.00    +0.195 A 
ATOM     24  O   UNL     1      -0.131 -12.550  -0.071  0.00  0.00    -0.470 OA
ATOM     25  C   UNL     1       0.344 -11.301  -0.071  0.00  0.00    +0.208 A 
ENDBRANCH  18  21
ENDBRANCH   3  17
TORSDOF 3
