REMARK  Name = ZINC39667169
REMARK  11 active torsions:
REMARK  status: ('A' for Active; 'I' for Inactive)
REMARK    1  A    between atoms: C_1  and  C_2
REMARK    2  A    between atoms: C_5  and  C_9
REMARK    3  A    between atoms: C_6  and  C_8
REMARK    4  A    between atoms: C_9  and  C_10
REMARK    5  A    between atoms: C_10  and  N_11
REMARK    6  A    between atoms: C_12  and  C_14
REMARK    7  A    between atoms: C_25  and  C_27
REMARK    8  A    between atoms: C_27  and  C_28
REMARK    9  A    between atoms: C_28  and  C_29
REMARK   10  A    between atoms: C_32  and  O_35
REMARK   11  A    between atoms: O_35  and  C_36
REMARK                            x       y       z     vdW  Elec       q    Type
REMARK                         _______ _______ _______ _____ _____    ______ ____
ROOT
ATOM      1  C   UNL     1      -2.485  -8.466   0.197  0.00  0.00    +0.100 C 
ATOM      2  C   UNL     1      -1.599  -8.999   1.346  0.00  0.00    +0.121 C 
ATOM      3  N   UNL     1      -2.545  -9.266   2.455  0.00  0.00    -0.300 N 
ATOM      4  C   UNL     1      -3.741  -9.837   1.790  0.00  0.00    +0.115 C 
ATOM      5  C   UNL     1      -3.889  -9.021   0.491  0.00  0.00    -0.004 C 
ATOM      6  C   UNL     1      -4.877  -7.877   0.698  0.00  0.00    -0.010 C 
ATOM      7  C   UNL     1      -6.276  -8.454   0.932  0.00  0.00    -0.082 C 
ATOM      8  N   UNL     1      -6.672  -9.266  -0.225  0.00  0.00    +0.379 N 
ATOM      9  C   UNL     1      -5.771 -10.417  -0.361  0.00  0.00    -0.082 C 
ATOM     10  C   UNL     1      -4.350  -9.923  -0.649  0.00  0.00    -0.010 C 
ATOM     11  C   UNL     1      -2.360  -9.040   3.771  0.00  0.00    +0.216 C 
ATOM     12  O   UNL     1      -3.237  -9.315   4.562  0.00  0.00    -0.276 OA
ATOM     13  H   UNL     1      -7.617  -9.595  -0.096  0.00  0.00    -0.086 HD
ATOM     14  H   UNL     1      -6.626  -8.704  -1.061  0.00  0.00    -0.086 HD
ENDROOT
BRANCH   1  16
ATOM     15  N   UNL     1      -2.699  -6.281  -0.943  0.00  0.00    -0.315 N 
ATOM     16  C   UNL     1      -2.505  -6.959   0.206  0.00  0.00    +0.218 C 
ATOM     17  O   UNL     1      -2.345  -6.356   1.246  0.00  0.00    -0.275 OA
ATOM     18  H   UNL     1      -2.827  -6.763  -1.775  0.00  0.00    +0.149 HD
BRANCH  15  19
ATOM     19  C   UNL     1      -2.718  -4.816  -0.935  0.00  0.00    +0.109 C 
BRANCH  19  20
ATOM     20  C   UNL     1      -2.954  -4.301  -2.356  0.00  0.00    +0.054 C 
BRANCH  20  25
ATOM     21  C   UNL     1      -3.029   1.477  -2.321  0.00  0.00    +0.044 C 
ATOM     22  C   UNL     1      -3.009  -0.030  -2.330  0.00  0.00    -0.050 A 
ATOM     23  C   UNL     1      -4.195  -0.737  -2.249  0.00  0.00    +0.003 A 
ATOM     24  C   UNL     1      -4.177  -2.119  -2.257  0.00  0.00    +0.004 A 
ATOM     25  C   UNL     1      -2.974  -2.795  -2.348  0.00  0.00    -0.043 A 
ATOM     26  C   UNL     1      -1.789  -2.088  -2.430  0.00  0.00    -0.047 A 
ATOM     27  C   UNL     1      -1.807  -0.705  -2.426  0.00  0.00    +0.007 A 
ATOM     28  C   UNL     1      -0.478  -2.824  -2.529  0.00  0.00    +0.044 C 
ENDBRANCH  20  25
ENDBRANCH  19  20
ENDBRANCH  15  19
ENDBRANCH   1  16
BRANCH  11  29
ATOM     29  C   UNL     1      -1.063  -8.446   4.258  0.00  0.00    +0.100 C 
BRANCH  29  30
ATOM     30  C   UNL     1      -1.112  -8.295   5.780  0.00  0.00    +0.044 C 
BRANCH  30  31
ATOM     31  C   UNL     1       0.184  -7.701   6.268  0.00  0.00    -0.047 A 
ATOM     32  C   UNL     1       1.237  -8.529   6.610  0.00  0.00    +0.007 A 
ATOM     33  C   UNL     1       2.426  -7.987   7.058  0.00  0.00    +0.046 A 
ATOM     34  C   UNL     1       2.564  -6.611   7.163  0.00  0.00    +0.120 A 
ATOM     35  C   UNL     1       1.506  -5.782   6.819  0.00  0.00    +0.046 A 
ATOM     36  C   UNL     1       0.321  -6.329   6.367  0.00  0.00    +0.007 A 
BRANCH  34  37
ATOM     37  O   UNL     1       3.733  -6.075   7.604  0.00  0.00    -0.495 OA
ATOM     38  C   UNL     1       3.803  -4.651   7.687  0.00  0.00    +0.277 C 
ENDBRANCH  34  37
ENDBRANCH  30  31
ENDBRANCH  29  30
ENDBRANCH  11  29
TORSDOF 8
