REMARK  Name = ZINC64316591
REMARK  2 active torsions:
REMARK  status: ('A' for Active; 'I' for Inactive)
REMARK    1  A    between atoms: C_8  and  C_21
REMARK    2  A    between atoms: C_11  and  C_13
REMARK                            x       y       z     vdW  Elec       q    Type
REMARK                         _______ _______ _______ _____ _____    ______ ____
ROOT
ATOM      1  C   UNL     1      -0.002   1.354  -0.532  0.00  0.00    +0.000 A 
ATOM      2  C   UNL     1       1.163   2.056  -0.280  0.00  0.00    +0.002 A 
ATOM      3  C   UNL     1       2.366   1.392  -0.183  0.00  0.00    +0.024 A 
ATOM      4  C   UNL     1       2.420   0.005  -0.338  0.00  0.00    +0.041 A 
ATOM      5  C   UNL     1       1.248  -0.689  -0.589  0.00  0.00    -0.024 A 
ATOM      6  C   UNL     1       0.043  -0.019  -0.686  0.00  0.00    +0.005 A 
ATOM      7  C   UNL     1       1.577  -2.160  -0.714  0.00  0.00    +0.069 C 
ATOM      8  C   UNL     1       3.098  -2.235  -0.502  0.00  0.00    +0.171 C 
ATOM      9  N   UNL     1       3.523  -0.851  -0.278  0.00  0.00    -0.255 N 
ATOM     10  C   UNL     1       4.792  -0.460  -0.048  0.00  0.00    +0.252 C 
ATOM     11  O   UNL     1       5.051   0.721   0.080  0.00  0.00    -0.270 OA
ENDROOT
BRANCH  10  12
ATOM     12  C   UNL     1       5.870  -1.468   0.047  0.00  0.00    +0.043 A 
ATOM     13  C   UNL     1       5.559  -2.828   0.039  0.00  0.00    +0.051 A 
ATOM     14  C   UNL     1       6.571  -3.766   0.128  0.00  0.00    +0.127 A 
ATOM     15  C   UNL     1       7.891  -3.357   0.227  0.00  0.00    +0.076 A 
ATOM     16  C   UNL     1       8.205  -2.008   0.236  0.00  0.00    +0.127 A 
ATOM     17  C   UNL     1       7.202  -1.062   0.141  0.00  0.00    +0.051 A 
ATOM     18  F   UNL     1       9.494  -1.617   0.333  0.00  0.00    -0.205 F 
ATOM     19  F   UNL     1       6.271  -5.083   0.120  0.00  0.00    -0.205 F 
ENDBRANCH  10  12
BRANCH   8  20
ATOM     20  C   UNL     1       3.769  -2.799  -1.728  0.00  0.00    +0.232 C 
ATOM     21  O   UNL     1       4.576  -2.130  -2.338  0.00  0.00    -0.274 OA
ATOM     22  N   UNL     1       3.473  -4.045  -2.145  0.00  0.00    -0.328 N 
ATOM     23  H   UNL     1       2.828  -4.580  -1.656  0.00  0.00    +0.145 HD
ATOM     24  H   UNL     1       3.906  -4.408  -2.934  0.00  0.00    +0.145 HD
ENDBRANCH   8  20
TORSDOF 2
