REMARK  Name = ZINC13719193
REMARK  7 active torsions:
REMARK  status: ('A' for Active; 'I' for Inactive)
REMARK    1  A    between atoms: C_1  and  C_2
REMARK    2  A    between atoms: C_2  and  C_3
REMARK    3  A    between atoms: C_2  and  C_4
REMARK    4  A    between atoms: C_4  and  C_5
REMARK    5  A    between atoms: C_7  and  C_11
REMARK    6  A    between atoms: C_17  and  C_19
REMARK    7  A    between atoms: C_20  and  C_21
REMARK                            x       y       z     vdW  Elec       q    Type
REMARK                         _______ _______ _______ _____ _____    ______ ____
ROOT
ATOM      1  C   UNL     1      -2.229  -5.469   0.895  0.00  0.00    +0.203 A 
ATOM      2  N   UNL     1      -2.703  -5.616   2.113  0.00  0.00    -0.125 NA
ATOM      3  N   UNL     1      -3.003  -6.851   2.320  0.00  0.00    -0.120 NA
ATOM      4  C   UNL     1      -2.738  -7.550   1.256  0.00  0.00    +0.219 A 
ATOM      5  N   UNL     1      -2.236  -6.718   0.285  0.00  0.00    -0.184 N 
ATOM      6  N   UNL     1      -1.905  -7.307  -0.928  0.00  0.00    -0.156 NA
ATOM      7  C   UNL     1      -2.070  -8.594  -1.123  0.00  0.00    +0.125 A 
ATOM      8  S   UNL     1      -2.727  -9.131   0.449  0.00  0.00    -0.027 S 
ENDROOT
BRANCH   1  11
ATOM      9  C   UNL     1      -1.416  -2.035  -0.119  0.00  0.00    +0.064 A 
ATOM     10  C   UNL     1      -2.024  -2.934   0.756  0.00  0.00    +0.056 A 
ATOM     11  C   UNL     1      -1.776  -4.208   0.285  0.00  0.00    +0.105 A 
ATOM     12  N   UNL     1      -1.033  -4.077  -0.853  0.00  0.00    -0.274 N 
ATOM     13  H   UNL     1      -0.706  -4.802  -1.408  0.00  0.00    +0.189 HD
ATOM     14  N   UNL     1      -0.833  -2.709  -1.077  0.00  0.00    -0.178 NA
BRANCH   9  15
ATOM     15  C   UNL     1      -1.433  -0.534   0.013  0.00  0.00    +0.060 C 
BRANCH  15  17
ATOM     16  C   UNL     1      -0.019   1.526   0.010  0.00  0.00    +0.007 C 
ATOM     17  C   UNL     1       0.002  -0.004   0.002  0.00  0.00    -0.011 C 
ATOM     18  C   UNL     1       0.742  -0.511   1.242  0.00  0.00    +0.007 C 
ENDBRANCH  15  17
ENDBRANCH   9  15
ENDBRANCH   1  11
BRANCH   7  19
ATOM     19  C   UNL     1      -1.781  -9.389  -2.323  0.00  0.00    +0.037 C 
ATOM     20  C   UNL     1      -2.022 -10.713  -2.327  0.00  0.00    +0.010 C 
BRANCH  20  21
ATOM     21  C   UNL     1      -1.733 -11.511  -3.530  0.00  0.00    -0.025 A 
ATOM     22  C   UNL     1      -1.202 -10.897  -4.669  0.00  0.00    +0.008 A 
ATOM     23  C   UNL     1      -0.934 -11.651  -5.792  0.00  0.00    +0.001 A 
ATOM     24  C   UNL     1      -1.189 -13.011  -5.794  0.00  0.00    +0.000 A 
ATOM     25  C   UNL     1      -1.714 -13.626  -4.671  0.00  0.00    +0.001 A 
ATOM     26  C   UNL     1      -1.982 -12.886  -3.538  0.00  0.00    +0.008 A 
ENDBRANCH  20  21
ENDBRANCH   7  19
TORSDOF 5
