REMARK  Name = ZINC37976222
REMARK  4 active torsions:
REMARK  status: ('A' for Active; 'I' for Inactive)
REMARK    1  A    between atoms: C_1  and  C_2
REMARK    2  A    between atoms: C_5  and  C_7
REMARK    3  A    between atoms: C_7  and  C_9
REMARK    4  A    between atoms: C_7  and  N_10
REMARK                            x       y       z     vdW  Elec       q    Type
REMARK                         _______ _______ _______ _____ _____    ______ ____
ROOT
ATOM      1  N   UNL     1       2.819  -2.969   0.861  0.00  0.00    -0.319 N 
ATOM      2  C   UNL     1       3.527  -4.018   1.429  0.00  0.00    +0.120 A 
ATOM      3  C   UNL     1       3.145  -5.337   1.141  0.00  0.00    +0.044 A 
ATOM      4  C   UNL     1       3.831  -6.377   1.691  0.00  0.00    +0.013 A 
ATOM      5  C   UNL     1       4.917  -6.086   2.542  0.00  0.00    +0.001 A 
ATOM      6  C   UNL     1       5.667  -7.110   3.142  0.00  0.00    +0.010 A 
ATOM      7  C   UNL     1       6.709  -6.792   3.959  0.00  0.00    +0.001 A 
ATOM      8  C   UNL     1       7.041  -5.462   4.208  0.00  0.00    +0.002 A 
ATOM      9  C   UNL     1       6.335  -4.445   3.643  0.00  0.00    +0.028 A 
ATOM     10  C   UNL     1       5.253  -4.734   2.794  0.00  0.00    +0.073 A 
ATOM     11  N   UNL     1       4.545  -3.753   2.221  0.00  0.00    -0.232 NA
ATOM     12  H   UNL     1       3.076  -2.053   1.050  0.00  0.00    +0.148 HD
ENDROOT
BRANCH   1  13
ATOM     13  C   UNL     1       1.684  -3.245  -0.023  0.00  0.00    +0.135 C 
ATOM     14  C   UNL     1       2.192  -3.480  -1.447  0.00  0.00    +0.036 C 
BRANCH  13  19
ATOM     15  C   UNL     1      -0.018   1.503   0.010  0.00  0.00    +0.086 C 
ATOM     16  C   UNL     1       0.002  -0.004   0.002  0.00  0.00    +0.102 A 
ATOM     17  C   UNL     1      -1.078  -0.805   0.003  0.00  0.00    +0.045 A 
ATOM     18  C   UNL     1      -0.601  -2.136  -0.007  0.00  0.00    +0.047 A 
ATOM     19  C   UNL     1       0.742  -2.069  -0.013  0.00  0.00    +0.125 A 
ATOM     20  O   UNL     1       1.102  -0.775  -0.013  0.00  0.00    -0.463 OA
ENDBRANCH  13  19
ENDBRANCH   1  13
TORSDOF 2
