REMARK  Name = ZINC03896540
REMARK  6 active torsions:
REMARK  status: ('A' for Active; 'I' for Inactive)
REMARK    1  A    between atoms: C_1  and  C_2
REMARK    2  A    between atoms: C_6  and  C_25
REMARK    3  A    between atoms: C_7  and  N_8
REMARK    4  A    between atoms: N_8  and  C_9
REMARK    5  A    between atoms: C_10  and  C_18
REMARK    6  A    between atoms: C_23  and  O_24
REMARK                            x       y       z     vdW  Elec       q    Type
REMARK                         _______ _______ _______ _____ _____    ______ ____
ROOT
ATOM      1  C   UNL     1       3.859  -0.392   0.706  0.00  0.00    +0.136 A 
ATOM      2  C   UNL     1       2.684  -1.122   0.734  0.00  0.00    +0.115 A 
ATOM      3  N   UNL     1       2.034  -0.821   1.869  0.00  0.00    -0.224 NA
ATOM      4  C   UNL     1       2.740   0.061   2.555  0.00  0.00    +0.158 A 
ATOM      5  N   UNL     1       3.890   0.347   1.848  0.00  0.00    -0.285 N 
ATOM      6  C   UNL     1       4.786   1.246   2.367  0.00  0.00    +0.114 A 
ATOM      7  C   UNL     1       4.533   1.832   3.554  0.00  0.00    +0.129 A 
ATOM      8  N   UNL     1       3.419   1.556   4.241  0.00  0.00    -0.258 NA
ATOM      9  C   UNL     1       2.529   0.705   3.790  0.00  0.00    +0.157 A 
ENDROOT
BRANCH   2  10
ATOM     10  C   UNL     1       2.224  -2.072  -0.306  0.00  0.00    +0.045 A 
ATOM     11  C   UNL     1       2.948  -2.221  -1.488  0.00  0.00    +0.014 A 
ATOM     12  C   UNL     1       2.515  -3.107  -2.454  0.00  0.00    +0.001 A 
ATOM     13  C   UNL     1       1.363  -3.848  -2.253  0.00  0.00    +0.004 A 
ATOM     14  C   UNL     1       0.637  -3.707  -1.085  0.00  0.00    +0.046 A 
ATOM     15  C   UNL     1       1.063  -2.827  -0.105  0.00  0.00    +0.126 A 
BRANCH  15  16
ATOM     16  O   UNL     1       0.354  -2.692   1.046  0.00  0.00    -0.506 OA
ATOM     17  H   UNL     1      -0.333  -2.013   1.008  0.00  0.00    +0.292 HD
ENDBRANCH  15  16
ENDBRANCH   2  10
BRANCH   1  18
ATOM     18  N   UNL     1       4.825  -0.410  -0.298  0.00  0.00    -0.298 N 
ATOM     19  H   UNL     1       5.196  -1.255  -0.599  0.00  0.00    +0.154 HD
BRANCH  18  26
ATOM     20  C   UNL     1       2.907   1.206  -1.642  0.00  0.00    +0.045 C 
ATOM     21  C   UNL     1       4.356   1.607  -1.538  0.00  0.00    -0.029 A 
ATOM     22  C   UNL     1       4.788   2.792  -2.099  0.00  0.00    +0.005 A 
ATOM     23  C   UNL     1       6.119   3.158  -2.009  0.00  0.00    +0.001 A 
ATOM     24  C   UNL     1       7.021   2.341  -1.352  0.00  0.00    +0.005 A 
ATOM     25  C   UNL     1       6.595   1.157  -0.783  0.00  0.00    -0.029 A 
ATOM     26  C   UNL     1       5.259   0.786  -0.872  0.00  0.00    +0.038 A 
ATOM     27  C   UNL     1       7.579   0.268  -0.066  0.00  0.00    +0.045 C 
ENDBRANCH  18  26
ENDBRANCH   1  18
TORSDOF 4
