REMARK  Name = ZINC11729651
REMARK  2 active torsions:
REMARK  status: ('A' for Active; 'I' for Inactive)
REMARK    1  A    between atoms: C_6  and  C_7
REMARK    2  A    between atoms: CA_10  and  C_17
REMARK                            x       y       z     vdW  Elec       q    Type
REMARK                         _______ _______ _______ _____ _____    ______ ____
ROOT
ATOM      1  C   UNL     1       0.002  -0.004   0.002  0.00  0.00    +0.165 C 
ATOM      2  C   UNL     1      -0.686  -0.521   1.236  0.00  0.00    +0.035 C 
ATOM      3  CA  UNL     1      -1.879  -1.102   1.219  0.00  0.00    +0.121 C 
ATOM      4  N   UNL     1      -2.596  -1.287   0.025  0.00  0.00    -0.278 N 
ATOM      5  C   UNL     1      -1.909  -1.085  -1.162  0.00  0.00    +0.219 A 
ATOM      6  N   UNL     1      -0.689  -0.492  -1.188  0.00  0.00    -0.222 N 
ATOM      7  N   UNL     1      -0.291  -0.465  -2.524  0.00  0.00    -0.156 NA
ATOM      8  C   UNL     1      -1.255  -1.016  -3.218  0.00  0.00    +0.247 A 
ATOM      9  N   UNL     1      -2.235  -1.390  -2.388  0.00  0.00    -0.201 NA
ATOM     10  H   UNL     1      -3.532  -1.545   0.030  0.00  0.00    +0.155 HD
ENDROOT
BRANCH   1  16
ATOM     11  C   UNL     1      -1.225   2.177   0.020  0.00  0.00    +0.007 A 
ATOM     12  C   UNL     1      -1.244   3.559   0.032  0.00  0.00    +0.020 A 
ATOM     13  C   UNL     1      -0.056   4.268   0.024  0.00  0.00    +0.041 A 
ATOM     14  C   UNL     1       1.151   3.592   0.009  0.00  0.00    +0.020 A 
ATOM     15  C   UNL     1       1.169   2.210   0.003  0.00  0.00    +0.007 A 
ATOM     16  C   UNL     1      -0.018   1.503   0.010  0.00  0.00    -0.019 A 
ATOM     17 CL   UNL     1      -0.079   6.003   0.032  0.00  0.00    -0.084 Cl
ENDBRANCH   1  16
BRANCH   3  18
ATOM     18  C   UNL     1      -2.469  -1.567   2.487  0.00  0.00    +0.400 C 
ATOM     19  O   UNL     1      -1.864  -1.415   3.530  0.00  0.00    -0.239 OA
ATOM     20  OXT UNL     1      -3.679  -2.159   2.491  0.00  0.00    -0.239 OA
ENDBRANCH   3  18
TORSDOF 2
