REMARK  Name = ZINC39980781
REMARK  7 active torsions:
REMARK  status: ('A' for Active; 'I' for Inactive)
REMARK    1  A    between atoms: C_1  and  O_2
REMARK    2  A    between atoms: O_2  and  C_3
REMARK    3  A    between atoms: C_8  and  N_28
REMARK    4  A    between atoms: C_9  and  C_18
REMARK    5  A    between atoms: C_15  and  O_16
REMARK    6  A    between atoms: O_16  and  C_17
REMARK    7  A    between atoms: N_20  and  C_21
REMARK                            x       y       z     vdW  Elec       q    Type
REMARK                         _______ _______ _______ _____ _____    ______ ____
ROOT
ATOM      1  C   UNL     1      -1.201  -0.639  -0.027  0.00  0.00    +0.162 A 
ATOM      2  C   UNL     1      -2.344   0.102  -0.009  0.00  0.00    +0.059 A 
ATOM      3  C   UNL     1      -3.593  -0.549   0.001  0.00  0.00    +0.003 A 
ATOM      4  C   UNL     1      -4.792   0.166   0.020  0.00  0.00    +0.022 A 
ATOM      5  C   UNL     1      -6.008  -0.545   0.028  0.00  0.00    +0.028 A 
ATOM      6  C   UNL     1      -7.360   0.002   0.047  0.00  0.00    +0.053 A 
ATOM      7  C   UNL     1      -8.420  -0.874   0.052  0.00  0.00    +0.097 A 
ATOM      8  S   UNL     1      -7.639  -2.475   0.033  0.00  0.00    -0.064 S 
ATOM      9  C   UNL     1      -5.936  -1.963   0.018  0.00  0.00    +0.088 A 
ATOM     10  N   UNL     1      -4.811  -2.636   0.000  0.00  0.00    -0.349 N 
ATOM     11  C   UNL     1      -3.631  -2.013  -0.009  0.00  0.00    +0.051 A 
ATOM     12  C   UNL     1      -2.420  -2.723  -0.028  0.00  0.00    +0.075 A 
ATOM     13  C   UNL     1      -1.238  -2.040  -0.042  0.00  0.00    +0.163 A 
ATOM     14  H   UNL     1      -4.837  -3.606  -0.006  0.00  0.00    +0.166 HD
ENDROOT
BRANCH   7  15
ATOM     15  C   UNL     1      -9.804  -0.575   0.069  0.00  0.00    +0.257 C 
ATOM     16  O   UNL     1     -10.176   0.585   0.081  0.00  0.00    -0.269 OA
ATOM     17  N   UNL     1     -10.710  -1.573   0.072  0.00  0.00    -0.281 N 
ATOM     18  H   UNL     1     -10.416  -2.494  -0.005  0.00  0.00    +0.155 HD
BRANCH  17  19
ATOM     19  C   UNL     1     -12.072  -1.280   0.187  0.00  0.00    +0.036 A 
ATOM     20  C   UNL     1     -12.590  -0.135  -0.405  0.00  0.00    +0.023 A 
ATOM     21  C   UNL     1     -13.936   0.152  -0.291  0.00  0.00    +0.005 A 
ATOM     22  C   UNL     1     -14.770  -0.699   0.411  0.00  0.00    +0.038 A 
ATOM     23  C   UNL     1     -14.257  -1.842   1.003  0.00  0.00    +0.125 A 
ATOM     24  C   UNL     1     -12.911  -2.137   0.887  0.00  0.00    +0.061 A 
ATOM     25  F   UNL     1     -15.074  -2.671   1.688  0.00  0.00    -0.205 F 
ENDBRANCH  17  19
ENDBRANCH   7  15
BRANCH   6  26
ATOM     26  N   UNL     1      -7.571   1.373   0.059  0.00  0.00    -0.356 N 
ATOM     27  H   UNL     1      -6.815   1.980   0.055  0.00  0.00    +0.142 HD
ATOM     28  H   UNL     1      -8.475   1.724   0.071  0.00  0.00    +0.142 HD
ENDBRANCH   6  26
BRANCH   1  30
ATOM     29  C   UNL     1      -0.017   1.424  -0.021  0.00  0.00    +0.277 C 
ATOM     30  O   UNL     1       0.002  -0.005  -0.037  0.00  0.00    -0.491 OA
ENDBRANCH   1  30
BRANCH  13  31
ATOM     31  O   UNL     1      -0.071  -2.735  -0.066  0.00  0.00    -0.491 OA
ATOM     32  C   UNL     1      -0.164  -4.161  -0.081  0.00  0.00    +0.277 C 
ENDBRANCH  13  31
TORSDOF 5
