REMARK  Name = ZINC35333191
REMARK  6 active torsions:
REMARK  status: ('A' for Active; 'I' for Inactive)
REMARK    1  A    between atoms: C_1  and  C_2
REMARK    2  A    between atoms: C_4  and  C_21
REMARK    3  A    between atoms: C_5  and  C_20
REMARK    4  A    between atoms: C_6  and  O_8
REMARK    5  A    between atoms: O_8  and  C_9
REMARK    6  A    between atoms: C_12  and  N_19
REMARK                            x       y       z     vdW  Elec       q    Type
REMARK                         _______ _______ _______ _____ _____    ______ ____
ROOT
ATOM      1  C   UNL     1       0.156  -2.066   3.513  0.00  0.00    +0.136 A 
ATOM      2  C   UNL     1       1.397  -1.783   4.041  0.00  0.00    +0.049 A 
ATOM      3  C   UNL     1       1.522  -1.058   5.222  0.00  0.00    +0.027 A 
ATOM      4  C   UNL     1       0.408  -0.604   5.896  0.00  0.00    +0.034 A 
ATOM      5  C   UNL     1      -0.875  -0.877   5.380  0.00  0.00    +0.024 A 
ATOM      6  C   UNL     1      -0.999  -1.612   4.173  0.00  0.00    +0.029 A 
ATOM      7  C   UNL     1      -2.291  -1.867   3.678  0.00  0.00    +0.032 A 
ATOM      8  C   UNL     1      -3.362  -1.394   4.375  0.00  0.00    +0.111 A 
ATOM      9  N   UNL     1      -3.216  -0.704   5.498  0.00  0.00    -0.263 NA
ATOM     10  C   UNL     1      -2.042  -0.440   6.023  0.00  0.00    +0.121 A 
ENDROOT
BRANCH   4  11
ATOM     11  N   UNL     1       0.550   0.122   7.079  0.00  0.00    -0.357 N 
ATOM     12  H   UNL     1       1.434   0.308   7.431  0.00  0.00    +0.142 HD
ATOM     13  H   UNL     1      -0.236   0.440   7.550  0.00  0.00    +0.142 HD
ENDBRANCH   4  11
BRANCH   1  14
ATOM     14  O   UNL     1       0.050  -2.776   2.358  0.00  0.00    -0.455 OA
BRANCH  14  20
ATOM     15  C   UNL     1       0.078   1.500   0.004  0.00  0.00    +0.044 C 
ATOM     16  C   UNL     1      -0.042  -0.002   0.005  0.00  0.00    -0.047 A 
ATOM     17  C   UNL     1      -0.257  -0.679  -1.181  0.00  0.00    +0.007 A 
ATOM     18  C   UNL     1      -0.368  -2.057  -1.184  0.00  0.00    -0.044 A 
ATOM     19  C   UNL     1      -0.266  -2.762   0.000  0.00  0.00    -0.005 A 
ATOM     20  C   UNL     1      -0.051  -2.085   1.192  0.00  0.00    +0.132 A 
ATOM     21  C   UNL     1       0.067  -0.702   1.191  0.00  0.00    +0.050 A 
ATOM     22  C   UNL     1      -0.388  -4.264  -0.003  0.00  0.00    +0.048 C 
ATOM     23  C   UNL     1      -0.601  -2.791  -2.479  0.00  0.00    +0.044 C 
ENDBRANCH  14  20
ENDBRANCH   1  14
TORSDOF 3
