REMARK  Name = ZINC41698726
REMARK  8 active torsions:
REMARK  status: ('A' for Active; 'I' for Inactive)
REMARK    1  A    between atoms: C_1  and  C_2
REMARK    2  A    between atoms: C_5  and  C_23
REMARK    3  A    between atoms: C_6  and  C_8
REMARK    4  A    between atoms: C_8  and  N_9
REMARK    5  A    between atoms: C_10  and  C_12
REMARK    6  A    between atoms: C_12  and  C_21
REMARK    7  A    between atoms: C_13  and  C_14
REMARK    8  A    between atoms: C_18  and  O_20
REMARK                            x       y       z     vdW  Elec       q    Type
REMARK                         _______ _______ _______ _____ _____    ______ ____
ROOT
ATOM      1  N   UNL     1       1.497  -3.044   2.913  0.00  0.00    -0.307 N 
ATOM      2  C   UNL     1       1.754  -3.747   4.034  0.00  0.00    +0.255 C 
ATOM      3  O   UNL     1       0.913  -3.825   4.909  0.00  0.00    -0.269 OA
ATOM      4  H   UNL     1       2.168  -2.982   2.215  0.00  0.00    +0.149 HD
ENDROOT
BRANCH   2   5
ATOM      5  C   UNL     1       3.053  -4.421   4.198  0.00  0.00    +0.114 C 
ATOM      6  C   UNL     1       3.314  -5.133   5.334  0.00  0.00    +0.032 C 
BRANCH   6   7
ATOM      7  C   UNL     1       4.661  -5.664   5.574  0.00  0.00    -0.020 A 
ATOM      8  C   UNL     1       5.787  -4.938   5.164  0.00  0.00    +0.008 A 
ATOM      9  C   UNL     1       7.050  -5.442   5.392  0.00  0.00    +0.004 A 
ATOM     10  C   UNL     1       7.210  -6.662   6.026  0.00  0.00    +0.045 A 
ATOM     11  C   UNL     1       6.101  -7.390   6.437  0.00  0.00    +0.117 A 
ATOM     12  C   UNL     1       4.827  -6.895   6.220  0.00  0.00    +0.053 A 
BRANCH  11  13
ATOM     13  O   UNL     1       6.267  -8.587   7.058  0.00  0.00    -0.507 OA
ATOM     14  H   UNL     1       6.337  -8.524   8.021  0.00  0.00    +0.292 HD
ENDBRANCH  11  13
ENDBRANCH   6   7
BRANCH   5  15
ATOM     15  C   UNL     1       4.043  -4.329   3.168  0.00  0.00    +0.104 C 
ATOM     16  N   UNL     1       4.829  -4.256   2.350  0.00  0.00    -0.191 NA
ENDBRANCH   5  15
ENDBRANCH   2   5
BRANCH   1  17
ATOM     17  C   UNL     1       0.205  -2.374   2.749  0.00  0.00    +0.140 C 
BRANCH  17  23
ATOM     18  C   UNL     1       0.621   1.834   0.072  0.00  0.00    +0.044 C 
ATOM     19  C   UNL     1       0.370   0.350   0.140  0.00  0.00    -0.050 A 
ATOM     20  C   UNL     1       0.111  -0.361  -1.018  0.00  0.00    +0.003 A 
ATOM     21  C   UNL     1      -0.119  -1.722  -0.956  0.00  0.00    +0.004 A 
ATOM     22  C   UNL     1      -0.088  -2.374   0.263  0.00  0.00    -0.046 A 
ATOM     23  C   UNL     1       0.172  -1.664   1.420  0.00  0.00    -0.027 A 
ATOM     24  C   UNL     1       0.406  -0.303   1.358  0.00  0.00    +0.008 A 
ATOM     25  C   UNL     1      -0.340  -3.858   0.331  0.00  0.00    +0.044 C 
ENDBRANCH  17  23
ENDBRANCH   1  17
TORSDOF 6
