REMARK  Name = ZINC22635123
REMARK  7 active torsions:
REMARK  status: ('A' for Active; 'I' for Inactive)
REMARK    1  A    between atoms: C_1  and  C_2
REMARK    2  A    between atoms: C_2  and  C_3
REMARK    3  A    between atoms: C_2  and  N_4
REMARK    4  A    between atoms: C_12  and  O_25
REMARK    5  A    between atoms: C_14  and  C_17
REMARK    6  A    between atoms: C_20  and  O_23
REMARK    7  A    between atoms: O_23  and  C_24
REMARK                            x       y       z     vdW  Elec       q    Type
REMARK                         _______ _______ _______ _____ _____    ______ ____
ROOT
ATOM      1  N   UNL     1       0.640  -4.896   6.910  0.00  0.00    +0.384 N 
ATOM      2  C   UNL     1      -0.437  -5.786   6.455  0.00  0.00    -0.073 C 
ATOM      3  C   UNL     1      -0.990  -5.300   5.112  0.00  0.00    +0.018 C 
ATOM      4  C   UNL     1       0.182  -5.107   4.156  0.00  0.00    -0.027 A 
ATOM      5  C   UNL     1       1.443  -5.014   4.643  0.00  0.00    -0.021 A 
ATOM      6  S   UNL     1       2.468  -4.805   3.213  0.00  0.00    -0.080 S 
ATOM      7  C   UNL     1       1.254  -4.841   2.008  0.00  0.00    +0.080 A 
ATOM      8  C   UNL     1       0.057  -5.013   2.714  0.00  0.00    +0.067 A 
ATOM      9  C   UNL     1      -1.198  -5.077   1.921  0.00  0.00    +0.220 C 
ATOM     10  N   UNL     1      -1.133  -4.772   0.654  0.00  0.00    -0.223 NA
ATOM     11  C   UNL     1       0.060  -4.277  -0.021  0.00  0.00    +0.224 C 
ATOM     12  N   UNL     1       1.292  -4.745   0.639  0.00  0.00    -0.313 N 
ATOM     13  C   UNL     1       1.848  -5.076   6.082  0.00  0.00    -0.035 C 
ATOM     14  H   UNL     1       2.178  -4.995   0.037  0.00  0.00    +0.149 HD
ATOM     15  H   UNL     1       0.295  -3.858   6.798  0.00  0.00    -0.081 HD
ENDROOT
BRANCH  11  16
ATOM     16  C   UNL     1       0.040  -2.770  -0.013  0.00  0.00    -0.005 A 
ATOM     17  C   UNL     1      -1.168  -2.096   0.002  0.00  0.00    +0.011 A 
ATOM     18  C   UNL     1      -1.189  -0.715   0.010  0.00  0.00    +0.046 A 
ATOM     19  C   UNL     1       0.002  -0.004   0.002  0.00  0.00    +0.120 A 
ATOM     20  C   UNL     1       1.212  -0.682  -0.019  0.00  0.00    +0.046 A 
ATOM     21  C   UNL     1       1.228  -2.064  -0.020  0.00  0.00    +0.011 A 
BRANCH  19  22
ATOM     22  O   UNL     1      -0.016   1.355   0.009  0.00  0.00    -0.495 OA
ATOM     23  C   UNL     1       1.248   2.021   0.001  0.00  0.00    +0.277 C 
ENDBRANCH  19  22
ENDBRANCH  11  16
BRANCH   1  25
ATOM     24  C   UNL     1       2.063  -4.173   8.767  0.00  0.00    -0.014 C 
ATOM     25  C   UNL     1       0.939  -5.115   8.331  0.00  0.00    -0.074 C 
ATOM     26  C   UNL     1      -0.313  -4.835   9.165  0.00  0.00    -0.014 C 
ENDBRANCH   1  25
BRANCH   9  27
ATOM     27  O   UNL     1      -2.369  -5.439   2.493  0.00  0.00    -0.492 OA
ATOM     28  H   UNL     1      -3.287  -5.481   1.889  0.00  0.00    +0.294 HD
ENDBRANCH   9  27
TORSDOF 4
