REMARK  Name = ZINC46570987
REMARK  8 active torsions:
REMARK  status: ('A' for Active; 'I' for Inactive)
REMARK    1  A    between atoms: C_1  and  O_2
REMARK    2  A    between atoms: O_2  and  C_3
REMARK    3  A    between atoms: C_6  and  C_10
REMARK    4  A    between atoms: C_10  and  C_11
REMARK    5  A    between atoms: C_11  and  C_12
REMARK    6  A    between atoms: N_14  and  C_15
REMARK    7  A    between atoms: C_15  and  C_16
REMARK    8  A    between atoms: C_19  and  N_22
REMARK                            x       y       z     vdW  Elec       q    Type
REMARK                         _______ _______ _______ _____ _____    ______ ____
ROOT
ATOM      1  C   UNL     1      -6.936  -3.363  -1.369  0.00  0.00    +0.214 C 
ATOM      2  O   UNL     1      -7.398  -3.762  -0.322  0.00  0.00    -0.276 OA
ATOM      3  N   UNL     1      -7.516  -3.706  -2.536  0.00  0.00    -0.311 N 
ATOM      4  H   UNL     1      -7.147  -3.387  -3.374  0.00  0.00    +0.149 HD
ENDROOT
BRANCH   1   5
ATOM      5  C   UNL     1      -5.713  -2.483  -1.367  0.00  0.00    +0.100 C 
BRANCH   5   6
ATOM      6  C   UNL     1      -5.257  -2.247   0.075  0.00  0.00    +0.044 C 
BRANCH   6  10
ATOM      7  C   UNL     1      -1.788   0.250   0.083  0.00  0.00    +0.134 A 
ATOM      8  C   UNL     1      -3.053   0.817   0.144  0.00  0.00    +0.047 A 
ATOM      9  C   UNL     1      -4.172   0.007   0.141  0.00  0.00    +0.007 A 
ATOM     10  C   UNL     1      -4.034  -1.367   0.077  0.00  0.00    -0.046 A 
ATOM     11  C   UNL     1      -2.775  -1.935   0.017  0.00  0.00    +0.022 A 
ATOM     12  C   UNL     1      -1.651  -1.130   0.014  0.00  0.00    +0.060 A 
ATOM     13 BR   UNL     1       0.070  -1.907  -0.077  0.00  0.00    -0.047 Br
BRANCH   7  15
ATOM     14  C   UNL     1      -0.902   2.454   0.160  0.00  0.00    +0.277 C 
ATOM     15  O   UNL     1      -0.685   1.044   0.086  0.00  0.00    -0.494 OA
ENDBRANCH   7  15
ENDBRANCH   6  10
ENDBRANCH   5   6
ENDBRANCH   1   5
BRANCH   3  16
ATOM     16  C   UNL     1      -8.706  -4.562  -2.539  0.00  0.00    +0.139 C 
BRANCH  16  17
ATOM     17  C   UNL     1      -9.154  -4.794  -3.959  0.00  0.00    -0.030 A 
ATOM     18  C   UNL     1     -10.055  -3.925  -4.548  0.00  0.00    +0.007 A 
ATOM     19  C   UNL     1     -10.468  -4.136  -5.850  0.00  0.00    +0.023 A 
ATOM     20  C   UNL     1      -9.978  -5.220  -6.566  0.00  0.00    +0.035 A 
ATOM     21  C   UNL     1      -9.074  -6.090  -5.970  0.00  0.00    +0.023 A 
ATOM     22  C   UNL     1      -8.661  -5.872  -4.671  0.00  0.00    +0.007 A 
BRANCH  20  23
ATOM     23  N   UNL     1     -10.395  -5.436  -7.884  0.00  0.00    -0.270 N 
ATOM     24  C   UNL     1     -10.676  -4.387  -8.682  0.00  0.00    +0.301 C 
ATOM     25  O   UNL     1     -10.476  -3.253  -8.290  0.00  0.00    -0.253 OA
ATOM     26  N   UNL     1     -11.180  -4.594  -9.915  0.00  0.00    -0.313 N 
ATOM     27  H   UNL     1     -10.482  -6.340  -8.223  0.00  0.00    +0.156 HD
ATOM     28  H   UNL     1     -11.340  -5.498 -10.228  0.00  0.00    +0.146 HD
ATOM     29  H   UNL     1     -11.382  -3.839 -10.489  0.00  0.00    +0.146 HD
ENDBRANCH  20  23
ENDBRANCH  16  17
ENDBRANCH   3  16
TORSDOF 7
