REMARK  Name = ZINC06092955
REMARK  6 active torsions:
REMARK  status: ('A' for Active; 'I' for Inactive)
REMARK    1  A    between atoms: C_3  and  O_21
REMARK    2  A    between atoms: C_6  and  C_7
REMARK    3  A    between atoms: C_7  and  C_8
REMARK    4  A    between atoms: C_8  and  O_20
REMARK    5  A    between atoms: C_12  and  O_19
REMARK    6  A    between atoms: C_14  and  O_18
REMARK                            x       y       z     vdW  Elec       q    Type
REMARK                         _______ _______ _______ _____ _____    ______ ____
ROOT
ATOM      1  C   UNL     1       1.286   1.562  -0.002  0.00  0.00    +0.278 C 
ATOM      2  C   UNL     1       2.072   1.087  -1.205  0.00  0.00    +0.241 C 
ATOM      3  O   UNL     1       1.795   1.234  -2.378  0.00  0.00    -0.285 OA
ATOM      4  C   UNL     1       3.242   0.410  -0.640  0.00  0.00    +0.107 A 
ATOM      5  C   UNL     1       4.334  -0.236  -1.246  0.00  0.00    +0.135 A 
ATOM      6  C   UNL     1       5.320  -0.802  -0.459  0.00  0.00    +0.091 A 
ATOM      7  C   UNL     1       5.227  -0.730   0.926  0.00  0.00    +0.124 A 
ATOM      8  C   UNL     1       4.153  -0.095   1.531  0.00  0.00    +0.092 A 
ATOM      9  C   UNL     1       3.151   0.481   0.761  0.00  0.00    +0.142 A 
ATOM     10  O   UNL     1       2.031   1.141   1.142  0.00  0.00    -0.452 OA
ENDROOT
BRANCH   7  11
ATOM     11  O   UNL     1       6.198  -1.286   1.693  0.00  0.00    -0.507 OA
ATOM     12  H   UNL     1       6.034  -2.210   1.926  0.00  0.00    +0.292 HD
ENDBRANCH   7  11
BRANCH   5  13
ATOM     13  O   UNL     1       4.420  -0.304  -2.598  0.00  0.00    -0.506 OA
ATOM     14  H   UNL     1       4.000  -1.086  -2.980  0.00  0.00    +0.292 HD
ENDBRANCH   5  13
BRANCH   1  15
ATOM     15  O   UNL     1      -0.011   0.963   0.007  0.00  0.00    -0.349 OA
ATOM     16  H   UNL     1       0.002  -0.004   0.002  0.00  0.00    +0.214 HD
ENDBRANCH   1  15
BRANCH   1  17
ATOM     17  C   UNL     1       1.163   3.087  -0.019  0.00  0.00    +0.122 C 
BRANCH  17  23
ATOM     18  C   UNL     1      -0.975   3.667   1.147  0.00  0.00    +0.007 A 
ATOM     19  C   UNL     1      -1.675   4.079   2.264  0.00  0.00    +0.045 A 
ATOM     20  C   UNL     1      -0.996   4.379   3.435  0.00  0.00    +0.117 A 
ATOM     21  C   UNL     1       0.385   4.259   3.484  0.00  0.00    +0.045 A 
ATOM     22  C   UNL     1       1.081   3.841   2.366  0.00  0.00    +0.007 A 
ATOM     23  C   UNL     1       0.402   3.542   1.199  0.00  0.00    -0.040 A 
BRANCH  20  24
ATOM     24  O   UNL     1      -1.683   4.790   4.534  0.00  0.00    -0.507 OA
ATOM     25  H   UNL     1      -1.799   5.748   4.590  0.00  0.00    +0.292 HD
ENDBRANCH  20  24
ENDBRANCH  17  23
ENDBRANCH   1  17
TORSDOF 6
