REMARK  Name = ZINC64763939
REMARK  6 active torsions:
REMARK  status: ('A' for Active; 'I' for Inactive)
REMARK    1  A    between atoms: C_1  and  C_2
REMARK    2  A    between atoms: C_2  and  C_3
REMARK    3  A    between atoms: C_2  and  C_4
REMARK    4  A    between atoms: C_4  and  C_5
REMARK    5  A    between atoms: C_5  and  C_6
REMARK    6  A    between atoms: C_5  and  N_11
REMARK                            x       y       z     vdW  Elec       q    Type
REMARK                         _______ _______ _______ _____ _____    ______ ____
ROOT
ATOM      1  N   UNL     1      -0.872  -2.424  -1.432  0.00  0.00    -0.292 N 
ATOM      2  C   UNL     1      -0.298  -3.631  -1.609  0.00  0.00    +0.303 C 
ATOM      3  O   UNL     1      -0.146  -4.377  -0.661  0.00  0.00    -0.253 OA
ATOM      4  N   UNL     1       0.107  -4.010  -2.837  0.00  0.00    -0.284 N 
ATOM      5  C   UNL     1       0.003  -3.033  -3.921  0.00  0.00    +0.111 C 
ATOM      6  C   UNL     1       1.361  -2.384  -4.098  0.00  0.00    +0.038 C 
ATOM      7  C   UNL     1       2.231  -3.216  -5.044  0.00  0.00    +0.108 C 
ATOM      8  N   UNL     1       2.103  -4.662  -4.803  0.00  0.00    -0.308 N 
ATOM      9  C   UNL     1       2.079  -5.249  -3.475  0.00  0.00    +0.126 C 
ATOM     10  C   UNL     1       0.611  -5.331  -2.989  0.00  0.00    +0.128 C 
ATOM     11  C   UNL     1       1.998  -5.505  -5.899  0.00  0.00    +0.161 A 
ATOM     12  N   UNL     1       2.002  -5.190  -7.176  0.00  0.00    -0.233 NA
ATOM     13  C   UNL     1       1.893  -6.120  -8.108  0.00  0.00    +0.120 A 
ATOM     14  C   UNL     1       1.778  -7.403  -7.688  0.00  0.00    +0.068 A 
ATOM     15  S   UNL     1       1.843  -7.181  -5.918  0.00  0.00    -0.061 S 
ATOM     16  H   UNL     1      -0.924  -1.799  -2.171  0.00  0.00    +0.151 HD
ENDROOT
BRANCH   1  17
ATOM     17  C   UNL     1      -1.415  -2.057  -0.122  0.00  0.00    +0.112 C 
BRANCH  17  18
ATOM     18  C   UNL     1      -2.822  -2.583   0.004  0.00  0.00    +0.010 A 
ATOM     19  C   UNL     1      -3.433  -3.139   1.079  0.00  0.00    +0.013 A 
ATOM     20  C   UNL     1      -4.746  -3.554   0.963  0.00  0.00    +0.008 A 
ATOM     21  C   UNL     1      -5.384  -3.394  -0.222  0.00  0.00    +0.045 A 
ATOM     22  S   UNL     1      -4.119  -2.629  -1.222  0.00  0.00    -0.100 S 
ENDBRANCH  17  18
BRANCH  17  23
ATOM     23  C   UNL     1      -1.426  -0.533   0.017  0.00  0.00    +0.030 C 
BRANCH  23  25
ATOM     24  C   UNL     1      -0.002   1.520   0.027  0.00  0.00    +0.007 C 
ATOM     25  C   UNL     1       0.011  -0.010   0.014  0.00  0.00    -0.015 C 
ATOM     26  C   UNL     1       0.743  -0.524   1.256  0.00  0.00    +0.007 C 
ENDBRANCH  23  25
ENDBRANCH  17  23
ENDBRANCH   1  17
TORSDOF 4
