REMARK  Name = ZINC67447080
REMARK  7 active torsions:
REMARK  status: ('A' for Active; 'I' for Inactive)
REMARK    1  A    between atoms: C_1  and  C_2
REMARK    2  A    between atoms: C_6  and  C_8
REMARK    3  A    between atoms: C_8  and  C_10
REMARK    4  A    between atoms: C_8  and  N_11
REMARK    5  A    between atoms: N_11  and  S_12
REMARK    6  A    between atoms: S_12  and  C_15
REMARK    7  A    between atoms: C_16  and  C_24
REMARK                            x       y       z     vdW  Elec       q    Type
REMARK                         _______ _______ _______ _____ _____    ______ ____
ROOT
ATOM      1  S   UNL     1      -5.604   4.273  -1.875  0.00  0.00    +0.066 S 
ATOM      2  O   UNL     1      -6.040   4.417  -0.530  0.00  0.00    -0.153 OA
ATOM      3  O   UNL     1      -5.021   5.343  -2.606  0.00  0.00    -0.153 OA
ENDROOT
BRANCH   1   4
ATOM      4  C   UNL     1      -7.001   3.733  -2.802  0.00  0.00    +0.157 A 
ATOM      5  C   UNL     1      -8.179   4.413  -3.034  0.00  0.00    +0.100 A 
ATOM      6  C   UNL     1      -9.184   3.747  -3.836  0.00  0.00    -0.025 A 
ATOM      7  C   UNL     1      -8.827   2.513  -4.261  0.00  0.00    -0.021 A 
ATOM      8  S   UNL     1      -7.201   2.274  -3.612  0.00  0.00    -0.074 S 
ATOM      9  C   UNL     1      -9.658   1.592  -5.097  0.00  0.00    -0.039 C 
ATOM     10  N   UNL     1     -11.053   2.070  -5.065  0.00  0.00    +0.382 N 
ATOM     11  C   UNL     1     -11.091   3.503  -5.385  0.00  0.00    -0.077 C 
ATOM     12  C   UNL     1     -10.543   4.322  -4.211  0.00  0.00    +0.018 C 
ATOM     13  H   UNL     1     -11.598   1.560  -5.743  0.00  0.00    -0.085 HD
ATOM     14  H   UNL     1     -11.438   1.921  -4.144  0.00  0.00    -0.085 HD
BRANCH   5  15
ATOM     15  C   UNL     1      -8.404   5.757  -2.490  0.00  0.00    +0.389 C 
ATOM     16  O   UNL     1      -7.537   6.297  -1.815  0.00  0.00    -0.240 OA
ATOM     17  O   UNL     1      -9.458   6.338  -2.711  0.00  0.00    -0.240 OA
ENDBRANCH   5  15
ENDBRANCH   1   4
BRANCH   1  18
ATOM     18  N   UNL     1      -4.502   3.037  -1.885  0.00  0.00    -0.179 NA
ATOM     19  H   UNL     1      -3.649   3.151  -2.333  0.00  0.00    +0.149 HD
BRANCH  18  20
ATOM     20  C   UNL     1      -4.815   1.771  -1.218  0.00  0.00    +0.140 C 
ATOM     21  C   UNL     1      -4.223   1.777   0.193  0.00  0.00    +0.034 C 
BRANCH  20  27
ATOM     22  C   UNL     1      -1.842  -0.814  -4.310  0.00  0.00    +0.090 C 
ATOM     23  C   UNL     1      -2.948  -0.496  -3.337  0.00  0.00    +0.148 A 
ATOM     24  N   UNL     1      -3.821  -1.352  -2.874  0.00  0.00    -0.158 NA
ATOM     25  H   UNL     1      -5.413  -0.997  -1.500  0.00  0.00    +0.190 HD
ATOM     26  N   UNL     1      -4.663  -0.641  -2.003  0.00  0.00    -0.261 N 
ATOM     27  C   UNL     1      -4.224   0.629  -2.005  0.00  0.00    +0.144 A 
ATOM     28  N   UNL     1      -3.192   0.701  -2.805  0.00  0.00    -0.215 NA
ENDBRANCH  20  27
ENDBRANCH  18  20
ENDBRANCH   1  18
TORSDOF 5
