REMARK  Name = ZINC40451969
REMARK  9 active torsions:
REMARK  status: ('A' for Active; 'I' for Inactive)
REMARK    1  A    between atoms: C_1  and  C_2
REMARK    2  A    between atoms: C_2  and  N_3
REMARK    3  A    between atoms: C_4  and  C_6
REMARK    4  A    between atoms: C_6  and  N_7
REMARK    5  A    between atoms: N_7  and  C_8
REMARK    6  A    between atoms: N_7  and  S_10
REMARK    7  A    between atoms: C_8  and  C_9
REMARK    8  A    between atoms: S_10  and  C_13
REMARK    9  A    between atoms: C_16  and  N_20
REMARK                            x       y       z     vdW  Elec       q    Type
REMARK                         _______ _______ _______ _____ _____    ______ ____
ROOT
ATOM      1  S   UNL     1       2.869  -4.563  -2.084  0.00  0.00    +0.063 S 
ATOM      2  O   UNL     1       2.867  -5.841  -2.704  0.00  0.00    -0.153 OA
ATOM      3  O   UNL     1       3.972  -3.672  -2.177  0.00  0.00    -0.153 OA
ENDROOT
BRANCH   1   4
ATOM      4  C   UNL     1       2.586  -4.837  -0.366  0.00  0.00    +0.133 A 
ATOM      5  C   UNL     1       3.002  -3.897   0.560  0.00  0.00    +0.047 A 
ATOM      6  C   UNL     1       2.782  -4.109   1.908  0.00  0.00    +0.040 A 
ATOM      7  C   UNL     1       2.143  -5.267   2.332  0.00  0.00    +0.027 A 
ATOM      8  C   UNL     1       1.726  -6.208   1.400  0.00  0.00    +0.040 A 
ATOM      9  C   UNL     1       1.944  -5.988   0.053  0.00  0.00    +0.047 A 
ATOM     10 BR   UNL     1       1.371  -7.266  -1.218  0.00  0.00    -0.048 Br
ATOM     11 BR   UNL     1       3.873  -2.321  -0.018  0.00  0.00    -0.048 Br
BRANCH   7  12
ATOM     12  N   UNL     1       1.920  -5.484   3.694  0.00  0.00    -0.358 N 
ATOM     13  H   UNL     1       2.211  -4.827   4.344  0.00  0.00    +0.142 HD
ATOM     14  H   UNL     1       1.473  -6.293   3.989  0.00  0.00    +0.142 HD
ENDBRANCH   7  12
ENDBRANCH   1   4
BRANCH   1  15
ATOM     15  N   UNL     1       1.552  -3.749  -2.673  0.00  0.00    -0.168 NA
BRANCH  15  16
ATOM     16  C   UNL     1       0.407  -4.495  -3.202  0.00  0.00    +0.106 C 
ATOM     17  C   UNL     1       0.545  -4.631  -4.720  0.00  0.00    +0.022 C 
ENDBRANCH  15  16
BRANCH  15  18
ATOM     18  C   UNL     1       1.532  -2.285  -2.665  0.00  0.00    +0.205 C 
BRANCH  18  20
ATOM     19  N   UNL     1       0.688  -0.476  -1.203  0.00  0.00    -0.314 N 
ATOM     20  C   UNL     1       0.827  -1.799  -1.425  0.00  0.00    +0.229 C 
ATOM     21  O   UNL     1       0.384  -2.597  -0.627  0.00  0.00    -0.274 OA
ATOM     22  H   UNL     1       1.042   0.162  -1.842  0.00  0.00    +0.149 HD
BRANCH  19  24
ATOM     23  C   UNL     1      -0.019   1.526   0.010  0.00  0.00    +0.024 C 
ATOM     24  C   UNL     1       0.002  -0.004   0.002  0.00  0.00    +0.101 C 
ENDBRANCH  19  24
ENDBRANCH  18  20
ENDBRANCH  15  18
ENDBRANCH   1  15
TORSDOF 7
