REMARK  Name = ZINC14035312
REMARK  14 active torsions:
REMARK  status: ('A' for Active; 'I' for Inactive)
REMARK    1  A    between atoms: C_1  and  C_2
REMARK    2  A    between atoms: C_5  and  O_9
REMARK    3  A    between atoms: C_6  and  C_8
REMARK    4  A    between atoms: O_9  and  C_10
REMARK    5  A    between atoms: C_10  and  C_11
REMARK    6  A    between atoms: N_13  and  N_14
REMARK    7  A    between atoms: N_14  and  C_15
REMARK    8  A    between atoms: C_15  and  N_17
REMARK    9  A    between atoms: C_18  and  C_20
REMARK   10  A    between atoms: C_25  and  O_26
REMARK   11  A    between atoms: O_26  and  C_27
REMARK   12  A    between atoms: C_27  and  C_28
REMARK   13  A    between atoms: C_28  and  C_29
REMARK   14  A    between atoms: C_28  and  C_30
REMARK                            x       y       z     vdW  Elec       q    Type
REMARK                         _______ _______ _______ _____ _____    ______ ____
ROOT
ATOM      1  C   UNL     1       1.147   1.655   0.000  0.00  0.00    +0.153 C 
ATOM      2  S   UNL     1       1.124   3.367   0.009  0.00  0.00    -0.017 S 
ENDROOT
BRANCH   1   3
ATOM      3  N   UNL     1      -0.011   0.966   0.007  0.00  0.00    -0.263 N 
ATOM      4  C   UNL     1      -1.187   1.624   0.017  0.00  0.00    +0.253 C 
ATOM      5  O   UNL     1      -1.204   2.839   0.023  0.00  0.00    -0.270 OA
ATOM      6  H   UNL     1       0.002  -0.004   0.002  0.00  0.00    +0.157 HD
BRANCH   4   7
ATOM      7  C   UNL     1      -2.454   0.869   0.018  0.00  0.00    +0.079 A 
ATOM      8  C   UNL     1      -2.440  -0.528   0.005  0.00  0.00    +0.017 A 
ATOM      9  C   UNL     1      -3.627  -1.227   0.012  0.00  0.00    +0.001 A 
ATOM     10  C   UNL     1      -4.837  -0.551   0.022  0.00  0.00    +0.004 A 
ATOM     11  C   UNL     1      -4.865   0.829   0.030  0.00  0.00    +0.046 A 
ATOM     12  C   UNL     1      -3.680   1.549   0.028  0.00  0.00    +0.133 A 
BRANCH  12  13
ATOM     13  O   UNL     1      -3.707   2.906   0.035  0.00  0.00    -0.491 OA
BRANCH  13  14
ATOM     14  C   UNL     1      -4.992   3.529   0.044  0.00  0.00    +0.232 C 
BRANCH  14  15
ATOM     15  C   UNL     1      -4.822   5.050   0.051  0.00  0.00    +0.020 C 
ATOM     16  C   UNL     1      -6.193   5.717  -0.064  0.00  0.00    +0.010 C 
ATOM     17  C   UNL     1      -4.152   5.482   1.358  0.00  0.00    +0.010 C 
ENDBRANCH  14  15
ENDBRANCH  13  14
ENDBRANCH  12  13
ENDBRANCH   4   7
ENDBRANCH   1   3
BRANCH   1  18
ATOM     18  N   UNL     1       2.323   0.998  -0.015  0.00  0.00    -0.245 N 
ATOM     19  H   UNL     1       3.156   1.494  -0.020  0.00  0.00    +0.172 HD
BRANCH  18  22
ATOM     20  C   UNL     1       3.518  -1.061  -0.037  0.00  0.00    +0.267 C 
ATOM     21  O   UNL     1       4.560  -0.441  -0.044  0.00  0.00    -0.271 OA
ATOM     22  N   UNL     1       2.342  -0.403  -0.022  0.00  0.00    -0.232 N 
ATOM     23  H   UNL     1       1.509  -0.900  -0.017  0.00  0.00    +0.173 HD
BRANCH  20  24
ATOM     24  C   UNL     1       3.539  -2.568  -0.045  0.00  0.00    +0.326 C 
BRANCH  24  25
ATOM     25  O   UNL     1       4.892  -3.026  -0.061  0.00  0.00    -0.482 OA
BRANCH  25  30
ATOM     26  C   UNL     1       5.706  -8.599  -0.099  0.00  0.00    +0.044 C 
ATOM     27  C   UNL     1       5.488  -7.108  -0.089  0.00  0.00    -0.050 A 
ATOM     28  C   UNL     1       4.203  -6.598  -0.073  0.00  0.00    +0.007 A 
ATOM     29  C   UNL     1       4.000  -5.232  -0.064  0.00  0.00    +0.046 A 
ATOM     30  C   UNL     1       5.088  -4.371  -0.070  0.00  0.00    +0.124 A 
ATOM     31  C   UNL     1       6.377  -4.885  -0.091  0.00  0.00    -0.009 A 
ATOM     32  C   UNL     1       6.574  -6.252  -0.095  0.00  0.00    +0.010 A 
ATOM     33  C   UNL     1       7.561  -3.952  -0.103  0.00  0.00    +0.047 C 
ENDBRANCH  25  30
ENDBRANCH  24  25
ENDBRANCH  20  24
ENDBRANCH  18  22
ENDBRANCH   1  18
TORSDOF 10
