REMARK  Name = ZINC12292725
REMARK  5 active torsions:
REMARK  status: ('A' for Active; 'I' for Inactive)
REMARK    1  A    between atoms: C_6  and  C_7
REMARK    2  A    between atoms: C_7  and  C_9
REMARK    3  A    between atoms: C_7  and  O_27
REMARK    4  A    between atoms: C_9  and  N_50
REMARK    5  A    between atoms: C_16  and  O_26
REMARK                            x       y       z     vdW  Elec       q    Type
REMARK                         _______ _______ _______ _____ _____    ______ ____
ROOT
ATOM      1  C   UNL     1       5.038   3.755  -0.508  0.00  0.00    -0.075 C 
ATOM      2  C   UNL     1       3.726   3.019  -0.788  0.00  0.00    +0.029 C 
ATOM      3  C   UNL     1       2.680   3.442   0.245  0.00  0.00    +0.110 C 
ATOM      4  C   UNL     1       2.498   4.959   0.194  0.00  0.00    +0.029 C 
ATOM      5  C   UNL     1       3.846   5.639   0.444  0.00  0.00    -0.075 C 
ATOM      6  C   UNL     1       1.347   2.752  -0.064  0.00  0.00    +0.084 C 
ATOM      7  C   UNL     1       1.590   1.242  -0.122  0.00  0.00    +0.152 C 
ATOM      8  C   UNL     1       2.393   0.809   1.079  0.00  0.00    +0.024 A 
ATOM      9  C   UNL     1       2.417  -0.536   1.413  0.00  0.00    +0.029 A 
ATOM     10  C   UNL     1       3.146  -0.970   2.503  0.00  0.00    +0.042 A 
ATOM     11  C   UNL     1       3.857  -0.060   3.266  0.00  0.00    +0.023 A 
ATOM     12  C   UNL     1       3.836   1.280   2.938  0.00  0.00    +0.047 A 
ATOM     13  C   UNL     1       3.102   1.720   1.841  0.00  0.00    +0.127 A 
ATOM     14  O   UNL     1       3.104   3.048   1.550  0.00  0.00    -0.485 OA
ATOM     15 CL   UNL     1       3.171  -2.656   2.916  0.00  0.00    -0.084 Cl
ATOM     16  N   UNL     1       4.799   5.212  -0.603  0.00  0.00    +0.382 N 
ATOM     17  H   UNL     1       4.400   5.425  -1.524  0.00  0.00    -0.082 HD
ENDROOT
BRANCH   7  18
ATOM     18  O   UNL     1       0.335   0.558  -0.126  0.00  0.00    -0.387 OA
ATOM     19  H   UNL     1       0.412  -0.405  -0.164  0.00  0.00    +0.210 HD
ENDBRANCH   7  18
BRANCH  16  20
ATOM     20  C   UNL     1       6.074   5.943  -0.452  0.00  0.00    -0.042 C 
BRANCH  20  21
ATOM     21  C   UNL     1       6.530   5.934   1.008  0.00  0.00    +0.128 C 
BRANCH  21  27
ATOM     22  C   UNL     1       8.993   6.335   0.810  0.00  0.00    +0.009 A 
ATOM     23  C   UNL     1      10.106   7.143   0.945  0.00  0.00    +0.039 A 
ATOM     24  C   UNL     1       9.971   8.428   1.443  0.00  0.00    +0.123 A 
ATOM     25  C   UNL     1       8.721   8.904   1.799  0.00  0.00    +0.039 A 
ATOM     26  C   UNL     1       7.609   8.097   1.658  0.00  0.00    +0.009 A 
ATOM     27  C   UNL     1       7.744   6.814   1.161  0.00  0.00    -0.021 A 
ATOM     28  F   UNL     1      11.059   9.217   1.580  0.00  0.00    -0.205 F 
ENDBRANCH  21  27
BRANCH  21  29
ATOM     29  O   UNL     1       6.859   4.598   1.397  0.00  0.00    -0.389 OA
ATOM     30  H   UNL     1       7.568   4.199   0.874  0.00  0.00    +0.210 HD
ENDBRANCH  21  29
ENDBRANCH  20  21
ENDBRANCH  16  20
TORSDOF 5
