REMARK  Name = ZINC06078536
REMARK  9 active torsions:
REMARK  status: ('A' for Active; 'I' for Inactive)
REMARK    1  A    between atoms: C_1  and  C_2
REMARK    2  A    between atoms: C_2  and  N_3
REMARK    3  A    between atoms: N_3  and  C_4
REMARK    4  A    between atoms: N_3  and  C_6
REMARK    5  A    between atoms: C_4  and  C_5
REMARK    6  A    between atoms: C_18  and  N_36
REMARK    7  A    between atoms: C_19  and  C_34
REMARK    8  A    between atoms: C_20  and  C_22
REMARK    9  A    between atoms: C_28  and  C_33
REMARK                            x       y       z     vdW  Elec       q    Type
REMARK                         _______ _______ _______ _____ _____    ______ ____
ROOT
ATOM      1  C   UNL     1      -1.228   3.139   0.029  0.00  0.00    +0.033 A 
ATOM      2  C   UNL     1      -1.202   1.744   0.017  0.00  0.00    +0.024 A 
ATOM      3  C   UNL     1      -0.013   1.076   0.008  0.00  0.00    +0.017 A 
ATOM      4  C   UNL     1       1.187   1.793   0.000  0.00  0.00    +0.060 A 
ATOM      5  C   UNL     1       1.169   3.199   0.007  0.00  0.00    +0.144 A 
ATOM      6  C   UNL     1      -0.046   3.865   0.022  0.00  0.00    +0.070 A 
ATOM      7  O   UNL     1       2.333   3.885  -0.001  0.00  0.00    -0.422 OA
ATOM      8  C   UNL     1       3.520   3.259  -0.016  0.00  0.00    +0.345 A 
ATOM      9  O   UNL     1       4.541   3.925  -0.024  0.00  0.00    -0.245 OA
ATOM     10  C   UNL     1       3.619   1.859  -0.022  0.00  0.00    +0.092 A 
ATOM     11  C   UNL     1       2.484   1.102  -0.014  0.00  0.00    +0.152 A 
ATOM     12  O   UNL     1       2.534  -0.244  -0.020  0.00  0.00    -0.440 OA
ATOM     13  C   UNL     1       3.657  -0.873  -0.411  0.00  0.00    +0.199 C 
ATOM     14  C   UNL     1       4.853  -0.237  -0.441  0.00  0.00    +0.098 C 
ATOM     15  C   UNL     1       4.976   1.206  -0.035  0.00  0.00    +0.108 C 
ENDROOT
BRANCH  15  16
ATOM     16  C   UNL     1       5.583   1.287   1.342  0.00  0.00    +0.003 A 
ATOM     17  C   UNL     1       4.953   0.702   2.402  0.00  0.00    +0.017 A 
ATOM     18  C   UNL     1       5.558   0.797   3.670  0.00  0.00    +0.001 A 
ATOM     19  C   UNL     1       4.971   0.216   4.805  0.00  0.00    +0.010 A 
ATOM     20  C   UNL     1       5.583   0.336   6.016  0.00  0.00    +0.001 A 
ATOM     21  C   UNL     1       6.786   1.027   6.143  0.00  0.00    +0.005 A 
ATOM     22  C   UNL     1       7.383   1.602   5.063  0.00  0.00    -0.024 A 
ATOM     23  C   UNL     1       6.781   1.501   3.797  0.00  0.00    +0.076 A 
ATOM     24  N   UNL     1       7.344   2.056   2.719  0.00  0.00    -0.235 NA
ATOM     25  C   UNL     1       6.786   1.965   1.535  0.00  0.00    +0.134 A 
ATOM     26 CL   UNL     1       7.567   2.707   0.173  0.00  0.00    -0.062 Cl
ATOM     27  C   UNL     1       8.685   2.345   5.225  0.00  0.00    +0.046 C 
ENDBRANCH  15  16
BRANCH  13  28
ATOM     28  N   UNL     1       3.590  -2.191  -0.788  0.00  0.00    -0.328 N 
ATOM     29  H   UNL     1       2.740  -2.657  -0.771  0.00  0.00    +0.145 HD
ATOM     30  H   UNL     1       4.393  -2.655  -1.072  0.00  0.00    +0.145 HD
ENDBRANCH  13  28
BRANCH  14  31
ATOM     31  C   UNL     1       6.019  -0.950  -0.866  0.00  0.00    +0.101 C 
ATOM     32  N   UNL     1       6.945  -1.517  -1.203  0.00  0.00    -0.191 NA
ENDBRANCH  14  31
BRANCH   1  33
ATOM     33  N   UNL     1      -2.450   3.807   0.044  0.00  0.00    -0.330 N 
BRANCH  33  35
ATOM     34  C   UNL     1      -4.123   2.773   1.497  0.00  0.00    +0.024 C 
ATOM     35  C   UNL     1      -3.701   3.046   0.052  0.00  0.00    +0.102 C 
ENDBRANCH  33  35
BRANCH  33  36
ATOM     36  C   UNL     1      -2.483   5.272   0.052  0.00  0.00    +0.102 C 
ATOM     37  C   UNL     1      -2.508   5.789  -1.388  0.00  0.00    +0.024 C 
ENDBRANCH  33  36
ENDBRANCH   1  33
TORSDOF 6
