REMARK  Name = ZINC39981077
REMARK  7 active torsions:
REMARK  status: ('A' for Active; 'I' for Inactive)
REMARK    1  A    between atoms: C_1  and  C_2
REMARK    2  A    between atoms: C_5  and  C_8
REMARK    3  A    between atoms: C_8  and  N_9
REMARK    4  A    between atoms: C_10  and  C_12
REMARK    5  A    between atoms: C_12  and  S_13
REMARK    6  A    between atoms: S_13  and  C_14
REMARK    7  A    between atoms: C_21  and  C_26
REMARK                            x       y       z     vdW  Elec       q    Type
REMARK                         _______ _______ _______ _____ _____    ______ ____
ROOT
ATOM      1  C   UNL     1       4.876  -8.769  -0.073  0.00  0.00    +0.208 C 
ATOM      2  N   UNL     1       5.742  -7.785  -0.067  0.00  0.00    -0.227 NA
ATOM      3  C   UNL     1       7.161  -8.129   0.004  0.00  0.00    +0.252 C 
ATOM      4  C   UNL     1       7.302  -9.499  -0.643  0.00  0.00    +0.117 C 
ATOM      5  C   UNL     1       8.332  -9.383  -1.526  0.00  0.00    +0.025 A 
ATOM      6  C   UNL     1       9.001 -10.331  -2.339  0.00  0.00    +0.015 A 
ATOM      7  C   UNL     1      10.001  -9.874  -3.139  0.00  0.00    -0.050 A 
ATOM      8  C   UNL     1      10.405  -8.537  -3.207  0.00  0.00    +0.005 A 
ATOM      9  C   UNL     1       9.841  -7.545  -2.468  0.00  0.00    +0.026 A 
ATOM     10  C   UNL     1       8.750  -7.947  -1.565  0.00  0.00    +0.046 A 
ATOM     11  N   UNL     1       8.045  -7.240  -0.736  0.00  0.00    -0.358 N 
ATOM     12  C   UNL     1      10.720 -10.873  -4.008  0.00  0.00    +0.044 C 
ATOM     13  N   UNL     1       6.420 -10.474  -0.401  0.00  0.00    -0.147 NA
ATOM     14  N   UNL     1       5.223 -10.080  -0.082  0.00  0.00    -0.122 NA
ATOM     15  H   UNL     1       8.098  -6.277  -0.628  0.00  0.00    +0.162 HD
ENDROOT
BRANCH   1  16
ATOM     16  S   UNL     1       3.161  -8.365  -0.061  0.00  0.00    -0.075 S 
BRANCH  16  17
ATOM     17  C   UNL     1       3.137  -6.551  -0.051  0.00  0.00    +0.173 C 
BRANCH  17  19
ATOM     18  N   UNL     1       1.447  -4.746  -0.032  0.00  0.00    -0.311 N 
ATOM     19  C   UNL     1       1.710  -6.067  -0.040  0.00  0.00    +0.224 C 
ATOM     20  O   UNL     1       0.799  -6.867  -0.040  0.00  0.00    -0.275 OA
ATOM     21  H   UNL     1       2.176  -4.106  -0.032  0.00  0.00    +0.149 HD
BRANCH  18  22
ATOM     22  C   UNL     1       0.059  -4.275  -0.021  0.00  0.00    +0.139 C 
BRANCH  22  27
ATOM     23  C   UNL     1      -0.018   1.503   0.010  0.00  0.00    +0.044 C 
ATOM     24  C   UNL     1       0.002  -0.004   0.002  0.00  0.00    -0.050 A 
ATOM     25  C   UNL     1       0.006  -0.689  -1.199  0.00  0.00    +0.003 A 
ATOM     26  C   UNL     1       0.025  -2.071  -1.206  0.00  0.00    +0.005 A 
ATOM     27  C   UNL     1       0.040  -2.768  -0.013  0.00  0.00    -0.030 A 
ATOM     28  C   UNL     1       0.037  -2.084   1.188  0.00  0.00    +0.005 A 
ATOM     29  C   UNL     1       0.023  -0.702   1.195  0.00  0.00    +0.003 A 
ENDBRANCH  22  27
ENDBRANCH  18  22
ENDBRANCH  17  19
ENDBRANCH  16  17
ENDBRANCH   1  16
TORSDOF 5
