REMARK  Name = ZINC43553911
REMARK  13 active torsions:
REMARK  status: ('A' for Active; 'I' for Inactive)
REMARK    1  A    between atoms: C_1  and  C_2
REMARK    2  A    between atoms: C_5  and  N_8
REMARK    3  A    between atoms: C_9  and  O_11
REMARK    4  A    between atoms: O_11  and  C_12
REMARK    5  A    between atoms: C_16  and  C_41
REMARK    6  A    between atoms: C_19  and  C_20
REMARK    7  A    between atoms: C_19  and  C_21
REMARK    8  A    between atoms: C_21  and  O_22
REMARK    9  A    between atoms: C_25  and  O_40
REMARK   10  A    between atoms: C_27  and  C_29
REMARK   11  A    between atoms: C_29  and  C_30
REMARK   12  A    between atoms: N_32  and  C_33
REMARK   13  A    between atoms: C_33  and  C_34
REMARK                            x       y       z     vdW  Elec       q    Type
REMARK                         _______ _______ _______ _____ _____    ______ ____
ROOT
ATOM      1  C   UNL     1       0.149  -7.395   2.310  0.00  0.00    +0.186 C 
ATOM      2  C   UNL     1       1.604  -7.342   2.752  0.00  0.00    +0.046 C 
ATOM      3  C   UNL     1       2.479  -8.148   1.789  0.00  0.00    +0.011 C 
ATOM      4  C   UNL     1       2.036  -9.607   1.788  0.00  0.00    -0.023 C 
ATOM      5  C   UNL     1       0.577  -9.709   1.350  0.00  0.00    +0.007 C 
ATOM      6  C   UNL     1      -0.364  -8.821   2.151  0.00  0.00    +0.031 C 
ATOM      7  C   UNL     1      -0.676  -9.415   3.531  0.00  0.00    +0.017 C 
ATOM      8  C   UNL     1       0.458  -9.375  -0.140  0.00  0.00    +0.007 C 
ATOM      9  C   UNL     1       1.327 -10.312  -0.983  0.00  0.00    +0.032 C 
ATOM     10  C   UNL     1       2.791 -10.136  -0.585  0.00  0.00    +0.119 C 
ATOM     11  C   UNL     1       2.939 -10.459   0.893  0.00  0.00    +0.032 C 
ATOM     12  C   UNL     1       2.230 -10.184   3.204  0.00  0.00    +0.012 C 
ENDROOT
BRANCH  10  13
ATOM     13  O   UNL     1       3.235  -8.816  -0.878  0.00  0.00    -0.391 OA
ATOM     14  H   UNL     1       3.174  -8.580  -1.814  0.00  0.00    +0.210 HD
ENDBRANCH  10  13
BRANCH   1  15
ATOM     15  O   UNL     1      -0.014  -6.678   1.083  0.00  0.00    -0.446 OA
BRANCH  15  17
ATOM     16  N   UNL     1      -0.425  -4.623   0.057  0.00  0.00    -0.251 N 
ATOM     17  C   UNL     1      -0.262  -5.357   1.175  0.00  0.00    +0.405 C 
ATOM     18  O   UNL     1      -0.339  -4.828   2.266  0.00  0.00    -0.226 OA
ATOM     19  H   UNL     1      -0.436  -5.056  -0.811  0.00  0.00    +0.158 HD
BRANCH  16  24
ATOM     20  C   UNL     1      -1.045   1.004   0.426  0.00  0.00    +0.044 C 
ATOM     21  C   UNL     1      -0.881  -0.490   0.327  0.00  0.00    -0.050 A 
ATOM     22  C   UNL     1      -1.417  -1.309   1.304  0.00  0.00    +0.005 A 
ATOM     23  C   UNL     1      -1.268  -2.679   1.218  0.00  0.00    +0.023 A 
ATOM     24  C   UNL     1      -0.579  -3.235   0.147  0.00  0.00    +0.036 A 
ATOM     25  C   UNL     1      -0.042  -2.410  -0.832  0.00  0.00    +0.023 A 
ATOM     26  C   UNL     1      -0.199  -1.041  -0.742  0.00  0.00    +0.005 A 
ENDBRANCH  16  24
ENDBRANCH  15  17
ENDBRANCH   1  15
BRANCH   6  27
ATOM     27  C   UNL     1      -1.731  -8.730   1.432  0.00  0.00    +0.166 C 
BRANCH  27  28
ATOM     28  O   UNL     1      -2.634  -7.953   2.221  0.00  0.00    -0.394 OA
ATOM     29  H   UNL     1      -3.513  -7.854   1.830  0.00  0.00    +0.209 HD
ENDBRANCH  27  28
ENDBRANCH   6  27
BRANCH  11  30
ATOM     30  C   UNL     1       4.401 -10.323   1.319  0.00  0.00    +0.102 C 
BRANCH  30  31
ATOM     31  C   UNL     1       5.252 -11.263   0.505  0.00  0.00    +0.214 C 
ATOM     32  O   UNL     1       4.739 -11.972  -0.335  0.00  0.00    -0.276 OA
ATOM     33  N   UNL     1       6.583 -11.315   0.709  0.00  0.00    -0.311 N 
ATOM     34  H   UNL     1       6.994 -10.748   1.380  0.00  0.00    +0.149 HD
BRANCH  33  35
ATOM     35  C   UNL     1       7.411 -12.229  -0.083  0.00  0.00    +0.139 C 
BRANCH  35  36
ATOM     36  C   UNL     1       8.851 -12.094   0.337  0.00  0.00    -0.030 A 
ATOM     37  C   UNL     1       9.671 -11.172  -0.287  0.00  0.00    +0.005 A 
ATOM     38  C   UNL     1      10.992 -11.049   0.098  0.00  0.00    +0.000 A 
ATOM     39  C   UNL     1      11.495 -11.847   1.109  0.00  0.00    +0.000 A 
ATOM     40  C   UNL     1      10.676 -12.768   1.734  0.00  0.00    +0.000 A 
ATOM     41  C   UNL     1       9.353 -12.889   1.351  0.00  0.00    +0.005 A 
ENDBRANCH  35  36
ENDBRANCH  33  35
ENDBRANCH  30  31
ENDBRANCH  11  30
TORSDOF 10
