REMARK  Name = ZINC39628730
REMARK  5 active torsions:
REMARK  status: ('A' for Active; 'I' for Inactive)
REMARK    1  A    between atoms: C_1  and  C_2
REMARK    2  A    between atoms: C_7  and  N_8
REMARK    3  A    between atoms: C_9  and  C_11
REMARK    4  A    between atoms: C_13  and  N_18
REMARK    5  A    between atoms: C_16  and  N_17
REMARK                            x       y       z     vdW  Elec       q    Type
REMARK                         _______ _______ _______ _____ _____    ______ ____
ROOT
ATOM      1  N   UNL     1       0.060  -0.013   2.419  0.00  0.00    -0.281 N 
ATOM      2  C   UNL     1      -0.040  -0.693   3.578  0.00  0.00    +0.250 C 
ATOM      3  O   UNL     1      -0.035  -1.909   3.572  0.00  0.00    -0.270 OA
ATOM      4  H   UNL     1       0.119   0.956   2.429  0.00  0.00    +0.155 HD
ENDROOT
BRANCH   1  11
ATOM      5  C   UNL     1      -1.190   1.197   0.168  0.00  0.00    +0.046 C 
ATOM      6  C   UNL     1      -0.518  -0.149   0.079  0.00  0.00    -0.028 A 
ATOM      7  C   UNL     1      -0.492  -0.830  -1.123  0.00  0.00    +0.020 A 
ATOM      8  C   UNL     1       0.125  -2.065  -1.206  0.00  0.00    +0.018 A 
ATOM      9  C   UNL     1       0.716  -2.623  -0.086  0.00  0.00    +0.017 A 
ATOM     10  C   UNL     1       0.693  -1.947   1.118  0.00  0.00    +0.024 A 
ATOM     11  C   UNL     1       0.080  -0.703   1.203  0.00  0.00    +0.037 A 
ATOM     12 BR   UNL     1       0.159  -2.995  -2.852  0.00  0.00    -0.050 Br
ENDBRANCH   1  11
BRANCH   2  13
ATOM     13  C   UNL     1      -0.157   0.037   4.854  0.00  0.00    +0.060 A 
ATOM     14  C   UNL     1      -0.281   1.429   4.858  0.00  0.00    +0.047 A 
ATOM     15  C   UNL     1      -0.389   2.106   6.053  0.00  0.00    +0.127 A 
ATOM     16  C   UNL     1      -0.376   1.413   7.254  0.00  0.00    +0.034 A 
ATOM     17  C   UNL     1      -0.254   0.039   7.266  0.00  0.00    +0.026 A 
ATOM     18  C   UNL     1      -0.150  -0.662   6.071  0.00  0.00    +0.037 A 
BRANCH  18  19
ATOM     19  N   UNL     1      -0.033  -2.045   6.080  0.00  0.00    -0.357 N 
ATOM     20  H   UNL     1      -0.035  -2.538   5.245  0.00  0.00    +0.142 HD
ATOM     21  H   UNL     1       0.050  -2.519   6.923  0.00  0.00    +0.142 HD
ENDBRANCH  18  19
BRANCH  15  22
ATOM     22  N   UNL     1      -0.519   3.580   6.055  0.00  0.00    +0.056 N 
ATOM     23  O   UNL     1      -0.531   4.188   5.010  0.00  0.00    -0.126 OA
ATOM     24  O   UNL     1      -0.615   4.177   7.102  0.00  0.00    -0.126 OA
ENDBRANCH  15  22
ENDBRANCH   2  13
TORSDOF 4
