REMARK  Name = ZINC26576983
REMARK  13 active torsions:
REMARK  status: ('A' for Active; 'I' for Inactive)
REMARK    1  A    between atoms: C_1  and  N_2
REMARK    2  A    between atoms: C_5  and  C_10
REMARK    3  A    between atoms: C_6  and  O_9
REMARK    4  A    between atoms: N_12  and  C_13
REMARK    5  A    between atoms: C_13  and  C_14
REMARK    6  A    between atoms: C_14  and  C_15
REMARK    7  A    between atoms: C_15  and  C_16
REMARK    8  A    between atoms: C_16  and  C_17
REMARK    9  A    between atoms: C_17  and  C_18
REMARK   10  A    between atoms: C_18  and  N_19
REMARK   11  A    between atoms: C_20  and  C_22
REMARK   12  A    between atoms: N_25  and  C_30
REMARK   13  A    between atoms: C_28  and  O_29
REMARK                            x       y       z     vdW  Elec       q    Type
REMARK                         _______ _______ _______ _____ _____    ______ ____
ROOT
ATOM      1  C   UNL     1      -0.755   3.484   1.277  0.00  0.00    +0.002 C 
ENDROOT
BRANCH   1   2
ATOM      2  C   UNL     1      -0.734   1.954   1.269  0.00  0.00    +0.019 C 
BRANCH   2   3
ATOM      3  C   UNL     1      -0.018   1.461   0.010  0.00  0.00    +0.104 C 
BRANCH   3   6
ATOM      4  C   UNL     1       0.585  -0.664  -1.018  0.00  0.00    +0.248 C 
ATOM      5  O   UNL     1       1.094  -0.045  -1.931  0.00  0.00    -0.270 OA
ATOM      6  N   UNL     1       0.002  -0.004   0.002  0.00  0.00    -0.311 N 
ATOM      7  H   UNL     1      -0.459  -0.565   0.828  0.00  0.00    +0.149 HD
BRANCH   4  12
ATOM      8  C   UNL     1       0.631  -6.370  -0.995  0.00  0.00    +0.152 C 
ATOM      9  N   UNL     1       0.626  -4.905  -1.013  0.00  0.00    -0.315 N 
ATOM     10  C   UNL     1       0.041  -4.226   0.011  0.00  0.00    +0.090 A 
ATOM     11  C   UNL     1       0.016  -2.877   0.031  0.00  0.00    +0.034 A 
ATOM     12  C   UNL     1       0.605  -2.144  -1.026  0.00  0.00    +0.085 A 
ATOM     13  C   UNL     1       1.197  -2.836  -2.073  0.00  0.00    +0.194 A 
ATOM     14  C   UNL     1       1.200  -4.254  -2.042  0.00  0.00    +0.293 A 
ATOM     15  O   UNL     1       1.718  -4.884  -2.949  0.00  0.00    -0.264 OA
BRANCH  13  16
ATOM     16  O   UNL     1       1.767  -2.168  -3.107  0.00  0.00    -0.502 OA
ATOM     17  H   UNL     1       2.234  -2.726  -3.932  0.00  0.00    +0.292 HD
ENDBRANCH  13  16
ENDBRANCH   4  12
ENDBRANCH   3   6
ENDBRANCH   2   3
ENDBRANCH   1   2
BRANCH   1  18
ATOM     18  C   UNL     1      -1.471   3.977   2.536  0.00  0.00    +0.002 C 
BRANCH  18  19
ATOM     19  C   UNL     1      -1.492   5.507   2.545  0.00  0.00    +0.019 C 
BRANCH  19  20
ATOM     20  C   UNL     1      -2.208   6.001   3.803  0.00  0.00    +0.104 C 
BRANCH  20  21
ATOM     21  N   UNL     1      -2.228   7.465   3.811  0.00  0.00    -0.311 N 
ATOM     22  C   UNL     1      -2.811   8.126   4.831  0.00  0.00    +0.248 C 
ATOM     23  O   UNL     1      -3.320   7.506   5.745  0.00  0.00    -0.270 OA
ATOM     24  H   UNL     1      -1.767   8.026   2.985  0.00  0.00    +0.149 HD
BRANCH  22  25
ATOM     25  C   UNL     1      -2.831   9.606   4.840  0.00  0.00    +0.085 A 
ATOM     26  C   UNL     1      -2.241  10.339   3.783  0.00  0.00    +0.034 A 
ATOM     27  C   UNL     1      -2.267  11.688   3.802  0.00  0.00    +0.090 A 
ATOM     28  N   UNL     1      -2.852  12.366   4.826  0.00  0.00    -0.315 N 
ATOM     29  C   UNL     1      -3.427  11.716   5.854  0.00  0.00    +0.293 A 
ATOM     30  O   UNL     1      -3.946  12.345   6.761  0.00  0.00    -0.264 OA
ATOM     31  C   UNL     1      -3.433  10.297   5.881  0.00  0.00    +0.194 A 
ATOM     32  C   UNL     1      -2.858  13.831   4.808  0.00  0.00    +0.152 C 
BRANCH  31  33
ATOM     33  O   UNL     1      -4.013   9.629   6.909  0.00  0.00    -0.502 OA
ATOM     34  H   UNL     1      -4.488  10.187   7.729  0.00  0.00    +0.292 HD
ENDBRANCH  31  33
ENDBRANCH  22  25
ENDBRANCH  20  21
ENDBRANCH  19  20
ENDBRANCH  18  19
ENDBRANCH   1  18
TORSDOF 11
