REMARK  Name = ZINC41114072
REMARK  7 active torsions:
REMARK  status: ('A' for Active; 'I' for Inactive)
REMARK    1  A    between atoms: C_1  and  C_2
REMARK    2  A    between atoms: C_2  and  C_3
REMARK    3  A    between atoms: C_2  and  C_18
REMARK    4  A    between atoms: C_2  and  O_25
REMARK    5  A    between atoms: C_3  and  N_4
REMARK    6  A    between atoms: C_5  and  C_7
REMARK    7  A    between atoms: C_9  and  C_12
REMARK                            x       y       z     vdW  Elec       q    Type
REMARK                         _______ _______ _______ _____ _____    ______ ____
ROOT
ATOM      1  N   UNL     1       0.056  -0.038   2.447  0.00  0.00    -0.307 N 
ATOM      2  C   UNL     1       0.533  -0.364   3.665  0.00  0.00    +0.266 C 
ATOM      3  O   UNL     1       1.531  -1.050   3.763  0.00  0.00    -0.268 OA
ATOM      4  H   UNL     1      -0.741   0.509   2.368  0.00  0.00    +0.149 HD
ENDROOT
BRANCH   2   5
ATOM      5  C   UNL     1      -0.162   0.114   4.885  0.00  0.00    +0.168 A 
ATOM      6  C   UNL     1       0.228  -0.145   6.217  0.00  0.00    +0.086 A 
ATOM      7  C   UNL     1      -0.664   0.466   7.040  0.00  0.00    +0.168 A 
ATOM      8  O   UNL     1      -1.580   1.086   6.272  0.00  0.00    -0.354 OA
ATOM      9  N   UNL     1      -1.242   0.857   4.917  0.00  0.00    -0.073 NA
BRANCH   7  10
ATOM     10  C   UNL     1      -0.635   0.453   8.518  0.00  0.00    +0.020 A 
ATOM     11  C   UNL     1       0.380  -0.228   9.193  0.00  0.00    +0.011 A 
ATOM     12  C   UNL     1       0.402  -0.236  10.572  0.00  0.00    +0.001 A 
ATOM     13  C   UNL     1      -0.579   0.429  11.287  0.00  0.00    +0.000 A 
ATOM     14  C   UNL     1      -1.588   1.105  10.624  0.00  0.00    +0.001 A 
ATOM     15  C   UNL     1      -1.618   1.126   9.245  0.00  0.00    +0.011 A 
ENDBRANCH   7  10
ENDBRANCH   2   5
BRANCH   1  16
ATOM     16  C   UNL     1       0.742  -0.511   1.242  0.00  0.00    +0.143 C 
BRANCH  16  18
ATOM     17  C   UNL     1      -0.019   1.526   0.010  0.00  0.00    +0.048 C 
ATOM     18  C   UNL     1       0.002  -0.004   0.002  0.00  0.00    +0.104 C 
BRANCH  18  19
ATOM     19  C   UNL     1       0.707  -0.490  -1.238  0.00  0.00    -0.015 A 
ATOM     20  C   UNL     1       2.072  -0.707  -1.216  0.00  0.00    +0.008 A 
ATOM     21  C   UNL     1       2.720  -1.153  -2.353  0.00  0.00    +0.020 A 
ATOM     22  C   UNL     1       2.002  -1.382  -3.513  0.00  0.00    +0.041 A 
ATOM     23  C   UNL     1       0.636  -1.164  -3.534  0.00  0.00    +0.020 A 
ATOM     24  C   UNL     1      -0.012  -0.724  -2.395  0.00  0.00    +0.008 A 
ATOM     25 CL   UNL     1       2.814  -1.941  -4.941  0.00  0.00    -0.084 Cl
ENDBRANCH  18  19
BRANCH  18  26
ATOM     26  O   UNL     1      -1.339  -0.499   0.012  0.00  0.00    -0.383 OA
ATOM     27  H   UNL     1      -1.402  -1.464   0.008  0.00  0.00    +0.211 HD
ENDBRANCH  18  26
ENDBRANCH  16  18
ENDBRANCH   1  16
TORSDOF 6
