REMARK  Name = ZINC45169825
REMARK  9 active torsions:
REMARK  status: ('A' for Active; 'I' for Inactive)
REMARK    1  A    between atoms: C_1  and  C_2
REMARK    2  A    between atoms: C_3  and  N_9
REMARK    3  A    between atoms: C_4  and  C_8
REMARK    4  A    between atoms: N_9  and  C_10
REMARK    5  A    between atoms: C_10  and  C_12
REMARK    6  A    between atoms: C_10  and  C_13
REMARK    7  A    between atoms: C_14  and  C_20
REMARK    8  A    between atoms: N_16  and  C_19
REMARK    9  A    between atoms: C_17  and  C_18
REMARK                            x       y       z     vdW  Elec       q    Type
REMARK                         _______ _______ _______ _____ _____    ______ ____
ROOT
ATOM      1  N   UNL     1       0.542  -0.341  -2.448  0.00  0.00    -0.334 N 
ATOM      2  H   UNL     1       0.262   0.555  -2.695  0.00  0.00    +0.147 HD
ENDROOT
BRANCH   1   5
ATOM      3  C   UNL     1       0.879   1.532  -0.029  0.00  0.00    +0.067 C 
ATOM      4  C   UNL     1       0.623   0.047  -0.015  0.00  0.00    +0.054 A 
ATOM      5  C   UNL     1       0.479  -0.752  -1.103  0.00  0.00    +0.071 A 
ATOM      6  C   UNL     1       0.256  -2.060  -0.649  0.00  0.00    +0.081 A 
ATOM      7  N   UNL     1       0.265  -2.050   0.659  0.00  0.00    -0.177 NA
ATOM      8  N   UNL     1       0.500  -0.738   1.089  0.00  0.00    -0.280 N 
ATOM      9  H   UNL     1       0.561  -0.440   2.010  0.00  0.00    +0.189 HD
ATOM     10  C   UNL     1       0.041  -3.271  -1.520  0.00  0.00    +0.069 C 
ENDBRANCH   1   5
BRANCH   1  11
ATOM     11  C   UNL     1       1.030  -1.265  -3.474  0.00  0.00    +0.101 C 
ATOM     12  C   UNL     1       2.534  -1.479  -3.294  0.00  0.00    +0.033 C 
BRANCH  11  13
ATOM     13  C   UNL     1       0.766  -0.684  -4.840  0.00  0.00    +0.016 A 
ATOM     14  C   UNL     1       1.054   0.622  -5.248  0.00  0.00    +0.065 A 
ATOM     15  N   UNL     1       0.683   0.752  -6.496  0.00  0.00    -0.176 NA
ATOM     16  N   UNL     1       0.146  -0.470  -6.922  0.00  0.00    -0.271 N 
ATOM     17  C   UNL     1       0.213  -1.336  -5.889  0.00  0.00    +0.041 A 
ATOM     18  C   UNL     1      -0.248  -2.771  -5.900  0.00  0.00    +0.065 C 
ATOM     19  C   UNL     1      -0.389  -0.759  -8.255  0.00  0.00    +0.172 C 
ATOM     20  C   UNL     1       1.684   1.696  -4.398  0.00  0.00    +0.068 C 
ENDBRANCH  11  13
ENDBRANCH   1  11
TORSDOF 3
