REMARK  Name = ZINC41546898
REMARK  7 active torsions:
REMARK  status: ('A' for Active; 'I' for Inactive)
REMARK    1  A    between atoms: C_1  and  C_2
REMARK    2  A    between atoms: C_11  and  C_13
REMARK    3  A    between atoms: C_11  and  C_14
REMARK    4  A    between atoms: N_16  and  C_17
REMARK    5  A    between atoms: C_21  and  C_22
REMARK    6  A    between atoms: C_22  and  O_24
REMARK    7  A    between atoms: O_24  and  C_25
REMARK                            x       y       z     vdW  Elec       q    Type
REMARK                         _______ _______ _______ _____ _____    ______ ____
ROOT
ATOM      1  C   UNL     1      -0.050   1.503  -0.310  0.00  0.00    +0.044 C 
ATOM      2  C   UNL     1      -0.022  -0.003  -0.245  0.00  0.00    -0.048 A 
ATOM      3  C   UNL     1      -0.007  -0.743  -1.413  0.00  0.00    +0.007 A 
ATOM      4  C   UNL     1       0.013  -2.125  -1.362  0.00  0.00    +0.048 A 
ATOM      5  C   UNL     1       0.019  -2.770  -0.138  0.00  0.00    +0.144 A 
ATOM      6  C   UNL     1       0.015  -2.024   1.039  0.00  0.00    +0.076 A 
ATOM      7  C   UNL     1      -0.007  -0.640   0.982  0.00  0.00    +0.030 A 
ATOM      8  N   UNL     1       0.056  -2.685   2.275  0.00  0.00    -0.279 N 
ATOM      9  C   UNL     1       0.319  -4.008   2.306  0.00  0.00    +0.270 C 
ATOM     10  O   UNL     1       0.251  -4.618   3.352  0.00  0.00    -0.271 OA
ATOM     11  C   UNL     1       0.696  -4.726   1.034  0.00  0.00    +0.258 C 
ATOM     12  O   UNL     1       0.020  -4.128  -0.074  0.00  0.00    -0.465 OA
ATOM     13  C   UNL     1       0.294  -6.198   1.143  0.00  0.00    +0.076 C 
ATOM     14  H   UNL     1      -0.101  -2.196   3.098  0.00  0.00    +0.155 HD
ENDROOT
BRANCH  11  15
ATOM     15  C   UNL     1       2.185  -4.628   0.826  0.00  0.00    +0.270 C 
ATOM     16  O   UNL     1       2.921  -4.462   1.776  0.00  0.00    -0.271 OA
ATOM     17  N   UNL     1       2.699  -4.724  -0.416  0.00  0.00    -0.281 N 
ATOM     18  H   UNL     1       2.120  -4.932  -1.166  0.00  0.00    +0.155 HD
BRANCH  17  19
ATOM     19  C   UNL     1       4.065  -4.526  -0.623  0.00  0.00    +0.055 A 
ATOM     20  C   UNL     1       4.957  -4.387   0.422  0.00  0.00    +0.032 A 
ATOM     21  C   UNL     1       6.268  -4.197   0.146  0.00  0.00    +0.048 A 
ATOM     22  S   UNL     1       6.348  -4.199  -1.531  0.00  0.00    -0.088 S 
ATOM     23  C   UNL     1       4.623  -4.461  -1.900  0.00  0.00    +0.117 A 
BRANCH  23  24
ATOM     24  C   UNL     1       3.987  -4.571  -3.158  0.00  0.00    +0.347 C 
ATOM     25  O   UNL     1       2.784  -4.748  -3.219  0.00  0.00    -0.244 OA
BRANCH  24  26
ATOM     26  O   UNL     1       4.713  -4.479  -4.292  0.00  0.00    -0.464 OA
ATOM     27  C   UNL     1       4.006  -4.599  -5.528  0.00  0.00    +0.280 C 
ENDBRANCH  24  26
ENDBRANCH  23  24
ENDBRANCH  17  19
ENDBRANCH  11  15
TORSDOF 4
