REMARK  Name = ZINC07773738
REMARK  5 active torsions:
REMARK  status: ('A' for Active; 'I' for Inactive)
REMARK    1  A    between atoms: C_3  and  O_11
REMARK    2  A    between atoms: C_4  and  C_8
REMARK    3  A    between atoms: O_11  and  C_12
REMARK    4  A    between atoms: C_12  and  C_13
REMARK    5  A    between atoms: C_16  and  C_18
REMARK                            x       y       z     vdW  Elec       q    Type
REMARK                         _______ _______ _______ _____ _____    ______ ____
ROOT
ATOM      1  C   UNL     1       1.175   1.782   0.000  0.00  0.00    +0.023 A 
ATOM      2  C   UNL     1      -0.013   1.076   0.008  0.00  0.00    +0.048 A 
ATOM      3  C   UNL     1      -1.223   1.752   0.017  0.00  0.00    +0.133 A 
ATOM      4  C   UNL     1      -1.237   3.153   0.030  0.00  0.00    +0.079 A 
ATOM      5  C   UNL     1      -0.029   3.855   0.022  0.00  0.00    +0.036 A 
ATOM      6  C   UNL     1       1.166   3.167   0.007  0.00  0.00    +0.042 A 
ATOM      7 CL   UNL     1       2.666   4.041  -0.002  0.00  0.00    -0.084 Cl
ENDROOT
BRANCH   4   8
ATOM      8  C   UNL     1      -2.519   3.883   0.046  0.00  0.00    +0.245 C 
ATOM      9  O   UNL     1      -3.568   3.268   0.052  0.00  0.00    -0.270 OA
ATOM     10  N   UNL     1      -2.528   5.230   0.052  0.00  0.00    -0.325 N 
ATOM     11  H   UNL     1      -1.691   5.721   0.047  0.00  0.00    +0.145 HD
ATOM     12  H   UNL     1      -3.371   5.710   0.063  0.00  0.00    +0.145 HD
ENDBRANCH   4   8
BRANCH   3  13
ATOM     13  O   UNL     1      -2.390   1.059   0.019  0.00  0.00    -0.485 OA
BRANCH  13  14
ATOM     14  C   UNL     1      -2.298  -0.367   0.011  0.00  0.00    +0.285 C 
BRANCH  14  15
ATOM     15  C   UNL     1      -3.683  -0.960   0.014  0.00  0.00    +0.086 A 
ATOM     16  C   UNL     1      -4.771  -0.146   0.024  0.00  0.00    +0.074 A 
ATOM     17  S   UNL     1      -6.088  -1.356   0.023  0.00  0.00    -0.075 S 
ATOM     18  C   UNL     1      -5.049  -2.811   0.010  0.00  0.00    +0.109 A 
ATOM     19  N   UNL     1      -3.841  -2.264   0.002  0.00  0.00    -0.241 NA
BRANCH  18  20
ATOM     20  C   UNL     1      -5.434  -4.238   0.004  0.00  0.00    +0.014 A 
ATOM     21  C   UNL     1      -6.775  -4.616   0.007  0.00  0.00    +0.018 A 
ATOM     22  C   UNL     1      -7.086  -5.931   0.001  0.00  0.00    +0.046 A 
ATOM     23  S   UNL     1      -5.476  -6.702  -0.010  0.00  0.00    -0.104 S 
ATOM     24  C   UNL     1      -4.480  -5.221  -0.012  0.00  0.00    +0.055 A 
ENDBRANCH  18  20
ENDBRANCH  14  15
ENDBRANCH  13  14
ENDBRANCH   3  13
TORSDOF 5
