REMARK  Name = ZINC15774564
REMARK  6 active torsions:
REMARK  status: ('A' for Active; 'I' for Inactive)
REMARK    1  A    between atoms: C_4  and  C_10
REMARK    2  A    between atoms: C_6  and  N_7
REMARK    3  A    between atoms: N_11  and  N_12
REMARK    4  A    between atoms: C_13  and  C_15
REMARK    5  A    between atoms: C_17  and  N_24
REMARK    6  A    between atoms: C_19  and  N_21
REMARK                            x       y       z     vdW  Elec       q    Type
REMARK                         _______ _______ _______ _____ _____    ______ ____
ROOT
ATOM      1  N   UNL     1       6.029  -0.710  -0.063  0.00  0.00    -0.203 N 
ATOM      2  C   UNL     1       7.186  -0.020  -0.071  0.00  0.00    +0.263 C 
ATOM      3  O   UNL     1       7.170   1.195  -0.064  0.00  0.00    -0.268 OA
ATOM      4  H   UNL     1       6.042  -1.680  -0.068  0.00  0.00    +0.178 HD
ENDROOT
BRANCH   2   5
ATOM      5  C   UNL     1       8.476  -0.742  -0.088  0.00  0.00    +0.042 A 
ATOM      6  C   UNL     1       8.498  -2.137  -0.102  0.00  0.00    +0.036 A 
ATOM      7  C   UNL     1       9.712  -2.806  -0.118  0.00  0.00    +0.027 A 
ATOM      8  C   UNL     1      10.902  -2.087  -0.120  0.00  0.00    +0.055 A 
ATOM      9  C   UNL     1      10.880  -0.705  -0.106  0.00  0.00    +0.129 A 
ATOM     10  C   UNL     1       9.677  -0.029  -0.097  0.00  0.00    +0.046 A 
BRANCH   9  11
ATOM     11  N   UNL     1      12.152   0.053  -0.109  0.00  0.00    +0.057 N 
ATOM     12  O   UNL     1      13.207  -0.537  -0.123  0.00  0.00    -0.126 OA
ATOM     13  O   UNL     1      12.135   1.262  -0.097  0.00  0.00    -0.126 OA
ENDBRANCH   9  11
BRANCH   7  14
ATOM     14  N   UNL     1       9.740  -4.203  -0.131  0.00  0.00    -0.358 N 
ATOM     15  H   UNL     1       8.909  -4.704  -0.129  0.00  0.00    +0.142 HD
ATOM     16  H   UNL     1      10.589  -4.671  -0.142  0.00  0.00    +0.142 HD
ENDBRANCH   7  14
ENDBRANCH   2   5
BRANCH   1  18
ATOM     17  C   UNL     1       3.691  -0.691  -0.038  0.00  0.00    +0.142 C 
ATOM     18  N   UNL     1       4.806  -0.027  -0.046  0.00  0.00    -0.187 NA
BRANCH  17  22
ATOM     19  C   UNL     1      -0.017   1.380   0.010  0.00  0.00    +0.036 A 
ATOM     20  C   UNL     1       1.166   2.095   0.002  0.00  0.00    +0.054 A 
ATOM     21  C   UNL     1       2.381   1.429  -0.013  0.00  0.00    +0.188 A 
ATOM     22  C   UNL     1       2.404   0.028  -0.021  0.00  0.00    +0.043 A 
ATOM     23  C   UNL     1       1.203  -0.683  -0.013  0.00  0.00    +0.046 A 
ATOM     24  C   UNL     1       0.002  -0.004   0.002  0.00  0.00    +0.127 A 
ATOM     25  O   UNL     1       3.543   2.131  -0.022  0.00  0.00    -0.287 OA
BRANCH  24  26
ATOM     26  N   UNL     1      -1.272  -0.758   0.011  0.00  0.00    +0.056 N 
ATOM     27  O   UNL     1      -2.325  -0.166   0.024  0.00  0.00    -0.126 OA
ATOM     28  O   UNL     1      -1.258  -1.967   0.004  0.00  0.00    -0.126 OA
ENDBRANCH  24  26
ENDBRANCH  17  22
ENDBRANCH   1  18
TORSDOF 6
