REMARK  Name = ZINC12534164
REMARK  10 active torsions:
REMARK  status: ('A' for Active; 'I' for Inactive)
REMARK    1  A    between atoms: C_1  and  C_2
REMARK    2  A    between atoms: C_3  and  C_34
REMARK    3  A    between atoms: N_4  and  C_28
REMARK    4  A    between atoms: C_5  and  N_9
REMARK    5  A    between atoms: C_6  and  C_7
REMARK    6  A    between atoms: C_10  and  C_12
REMARK    7  A    between atoms: C_12  and  N_13
REMARK    8  A    between atoms: C_15  and  C_24
REMARK    9  A    between atoms: N_26  and  C_27
REMARK   10  A    between atoms: C_28  and  C_29
REMARK                            x       y       z     vdW  Elec       q    Type
REMARK                         _______ _______ _______ _____ _____    ______ ____
ROOT
ATOM      1  N   UNL     1       2.428   1.342   0.715  0.00  0.00    -0.269 N 
ATOM      2  C   UNL     1       3.592   2.014   0.805  0.00  0.00    +0.236 C 
ATOM      3  O   UNL     1       3.654   3.172   0.448  0.00  0.00    -0.274 OA
ATOM      4  H   UNL     1       2.396   0.397   0.928  0.00  0.00    +0.156 HD
ENDROOT
BRANCH   1   9
ATOM      5  C   UNL     1      -2.072   2.443  -1.306  0.00  0.00    +0.047 C 
ATOM      6  C   UNL     1      -0.753   2.534  -0.581  0.00  0.00    -0.011 A 
ATOM      7  C   UNL     1      -0.246   3.617   0.029  0.00  0.00    +0.022 A 
ATOM      8  N   UNL     1       0.973   3.304   0.567  0.00  0.00    -0.324 N 
ATOM      9  C   UNL     1       1.274   2.003   0.319  0.00  0.00    +0.124 A 
ATOM     10  C   UNL     1       0.224   1.453  -0.402  0.00  0.00    +0.095 A 
ATOM     11  C   UNL     1      -0.911   4.968   0.103  0.00  0.00    +0.064 C 
BRANCH  10  12
ATOM     12  C   UNL     1       0.117   0.107  -0.878  0.00  0.00    +0.103 C 
ATOM     13  N   UNL     1       0.033  -0.961  -1.256  0.00  0.00    -0.191 NA
ENDBRANCH  10  12
BRANCH   8  14
ATOM     14  C   UNL     1       1.829   4.237   1.305  0.00  0.00    +0.197 C 
BRANCH  14  15
ATOM     15  C   UNL     1       2.218   5.381   0.404  0.00  0.00    +0.124 A 
ATOM     16  C   UNL     1       1.604   6.576   0.340  0.00  0.00    +0.046 A 
ATOM     17  C   UNL     1       2.293   7.339  -0.630  0.00  0.00    +0.041 A 
ATOM     18  C   UNL     1       3.287   6.565  -1.101  0.00  0.00    +0.195 A 
ATOM     19  O   UNL     1       3.240   5.382  -0.467  0.00  0.00    -0.466 OA
ENDBRANCH  14  15
ENDBRANCH   8  14
ENDBRANCH   1   9
BRANCH   2  20
ATOM     20  C   UNL     1       4.819   1.327   1.349  0.00  0.00    +0.201 C 
BRANCH  20  21
ATOM     21  N   UNL     1       5.914   2.299   1.464  0.00  0.00    -0.314 N 
ATOM     22  C   UNL     1       5.700   3.199   2.603  0.00  0.00    +0.160 C 
ATOM     23  C   UNL     1       6.930   4.104   2.749  0.00  0.00    +0.276 C 
ATOM     24  O   UNL     1       8.055   3.273   3.051  0.00  0.00    -0.476 OA
ATOM     25  C   UNL     1       8.196   2.141   2.307  0.00  0.00    +0.143 A 
ATOM     26  C   UNL     1       7.153   1.653   1.528  0.00  0.00    +0.073 A 
ATOM     27  C   UNL     1       7.336   0.490   0.787  0.00  0.00    +0.027 A 
ATOM     28  C   UNL     1       8.547  -0.173   0.822  0.00  0.00    +0.002 A 
ATOM     29  C   UNL     1       9.584   0.317   1.594  0.00  0.00    +0.004 A 
ATOM     30  C   UNL     1       9.410   1.471   2.334  0.00  0.00    +0.047 A 
BRANCH  23  31
ATOM     31  C   UNL     1       6.709   5.089   3.869  0.00  0.00    +0.255 C 
ATOM     32  O   UNL     1       7.402   5.042   4.863  0.00  0.00    -0.272 OA
ATOM     33  N   UNL     1       5.741   6.021   3.765  0.00  0.00    -0.315 N 
ATOM     34  C   UNL     1       5.526   6.977   4.854  0.00  0.00    +0.128 C 
ATOM     35  H   UNL     1       5.186   6.058   2.970  0.00  0.00    +0.148 HD
ENDBRANCH  23  31
ENDBRANCH  20  21
ENDBRANCH   2  20
TORSDOF 7
