REMARK  Name = ZINC66823636
REMARK  6 active torsions:
REMARK  status: ('A' for Active; 'I' for Inactive)
REMARK    1  A    between atoms: C_1  and  C_2
REMARK    2  A    between atoms: C_5  and  N_8
REMARK    3  A    between atoms: C_10  and  C_15
REMARK    4  A    between atoms: N_17  and  C_18
REMARK    5  A    between atoms: C_18  and  C_20
REMARK    6  A    between atoms: C_18  and  C_21
REMARK                            x       y       z     vdW  Elec       q    Type
REMARK                         _______ _______ _______ _____ _____    ______ ____
ROOT
ATOM      1  C   UNL     1       3.055  -7.283  -0.359  0.00  0.00    +0.219 C 
ATOM      2  O   UNL     1       3.896  -6.959  -1.171  0.00  0.00    -0.275 OA
ATOM      3  N   UNL     1       2.814  -8.588  -0.123  0.00  0.00    -0.308 N 
ATOM      4  H   UNL     1       2.142  -8.847   0.527  0.00  0.00    +0.149 HD
ENDROOT
BRANCH   1   7
ATOM      5  N   UNL     1       1.499  -3.999  -0.034  0.00  0.00    -0.298 N 
ATOM      6  C   UNL     1       2.722  -4.811  -0.044  0.00  0.00    +0.121 C 
ATOM      7  C   UNL     1       2.280  -6.227   0.386  0.00  0.00    +0.101 C 
ATOM      8  C   UNL     1       0.791  -6.234  -0.032  0.00  0.00    +0.110 C 
ATOM      9  C   UNL     1       0.400  -4.772  -0.027  0.00  0.00    +0.217 C 
ATOM     10  O   UNL     1      -0.741  -4.359  -0.020  0.00  0.00    -0.276 OA
BRANCH   5  15
ATOM     11  C   UNL     1      -0.019   1.526   0.010  0.00  0.00    +0.007 C 
ATOM     12  C   UNL     1       0.002  -0.004   0.002  0.00  0.00    -0.014 C 
ATOM     13  C   UNL     1       0.718  -0.497  -1.257  0.00  0.00    +0.005 C 
ATOM     14  C   UNL     1       0.739  -2.027  -1.265  0.00  0.00    +0.023 C 
ATOM     15  C   UNL     1       1.479  -2.534  -0.026  0.00  0.00    +0.076 C 
ATOM     16  C   UNL     1       0.763  -2.041   1.233  0.00  0.00    +0.023 C 
ATOM     17  C   UNL     1       0.742  -0.511   1.242  0.00  0.00    +0.005 C 
ENDBRANCH   5  15
ENDBRANCH   1   7
BRANCH   3  18
ATOM     18  C   UNL     1       3.568  -9.615  -0.847  0.00  0.00    +0.100 C 
ATOM     19  C   UNL     1       2.896  -9.885  -2.194  0.00  0.00    +0.033 C 
BRANCH  18  20
ATOM     20  C   UNL     1       3.595 -10.884  -0.035  0.00  0.00    -0.025 A 
ATOM     21  C   UNL     1       2.460 -11.292   0.645  0.00  0.00    +0.007 A 
ATOM     22  C   UNL     1       2.475 -12.454   1.391  0.00  0.00    +0.028 A 
ATOM     23  C   UNL     1       3.632 -13.215   1.460  0.00  0.00    +0.067 A 
ATOM     24  C   UNL     1       4.776 -12.803   0.775  0.00  0.00    +0.067 A 
ATOM     25  C   UNL     1       4.750 -11.639   0.023  0.00  0.00    +0.033 A 
ATOM     26  N   UNL     1       5.761 -13.755   1.029  0.00  0.00    -0.306 N 
ATOM     27  H   UNL     1       6.669 -13.738   0.686  0.00  0.00    +0.170 HD
ATOM     28  C   UNL     1       5.240 -14.701   1.832  0.00  0.00    +0.325 A 
ATOM     29  O   UNL     1       5.838 -15.678   2.245  0.00  0.00    -0.247 OA
ATOM     30  N   UNL     1       3.957 -14.403   2.110  0.00  0.00    -0.306 N 
ATOM     31  H   UNL     1       3.360 -14.927   2.667  0.00  0.00    +0.170 HD
ENDBRANCH  18  20
ENDBRANCH   3  18
TORSDOF 4
