REMARK  Name = ZINC64097940
REMARK  9 active torsions:
REMARK  status: ('A' for Active; 'I' for Inactive)
REMARK    1  A    between atoms: CG_4  and  CB_7
REMARK    2  A    between atoms: CB_7  and  CA_8
REMARK    3  A    between atoms: CA_8  and  C_10
REMARK    4  A    between atoms: CA_8  and  N_13
REMARK    5  A    between atoms: C_14  and  C_16
REMARK    6  A    between atoms: C_16  and  C_18
REMARK    7  A    between atoms: C_16  and  N_28
REMARK    8  A    between atoms: C_18  and  C_19
REMARK    9  A    between atoms: C_29  and  O_40
REMARK                            x       y       z     vdW  Elec       q    Type
REMARK                         _______ _______ _______ _____ _____    ______ ____
ROOT
ATOM      1  C   UNK A   0       4.666   1.727   4.077  0.00  0.00    +0.170 C 
ENDROOT
BRANCH   1   2
ATOM      2  N   UNK A   0       4.078   1.724   5.419  0.00  0.00    -0.244 N 
ATOM      3  C   UNK A   0       3.068   2.725   5.763  0.00  0.00    +0.300 C 
ATOM      4  N   UNK A   0       2.098   2.165   6.711  0.00  0.00    -0.303 N 
ATOM      5  C   UNK A   0       2.565   1.396   7.771  0.00  0.00    +0.042 A 
ATOM      6  C   UNK A   0       1.885   1.323   8.975  0.00  0.00    +0.024 A 
ATOM      7  C   UNK A   0       2.382   0.536   9.996  0.00  0.00    +0.002 A 
ATOM      8  C   UNK A   0       3.556  -0.181   9.824  0.00  0.00    +0.001 A 
ATOM      9  C   UNK A   0       4.248  -0.116   8.633  0.00  0.00    +0.015 A 
ATOM     10  C   UNK A   0       3.761   0.677   7.597  0.00  0.00    +0.058 A 
ATOM     11  C   UNK A   0       4.473   0.796   6.313  0.00  0.00    +0.252 C 
ATOM     12  O   UNK A   0       5.412   0.065   6.063  0.00  0.00    -0.270 OA
ATOM     13  H   UNK A   0       1.148   2.329   6.601  0.00  0.00    +0.150 HD
BRANCH   3  14
ATOM     14  O   UNK A   0       3.707   3.857   6.358  0.00  0.00    -0.359 OA
ATOM     15  H   UNK A   0       3.098   4.563   6.613  0.00  0.00    +0.213 HD
ENDBRANCH   3  14
ENDBRANCH   1   2
BRANCH   1  17
ATOM     16  N   PHE A   1       4.451   0.315   2.057  0.00  0.00    -0.300 N 
ATOM     17  C   UNK A   0       4.378   0.412   3.400  0.00  0.00    +0.235 C 
ATOM     18  O   UNK A   0       4.080  -0.559   4.062  0.00  0.00    -0.274 OA
ATOM     19  H   PHE A   1       4.689   1.092   1.527  0.00  0.00    +0.150 HD
BRANCH  16  20
ATOM     20  CA  PHE A   1       4.171  -0.963   1.399  0.00  0.00    +0.191 C 
BRANCH  20  21
ATOM     21  C   PHE A   1       5.422  -1.804   1.383  0.00  0.00    +0.376 C 
ATOM     22  O   PHE A   1       6.490  -1.315   1.708  0.00  0.00    -0.244 OA
ATOM     23  OXT PHE A   1       5.365  -2.975   1.047  0.00  0.00    -0.244 OA
ENDBRANCH  20  21
BRANCH  20  24
ATOM     24  CB  PHE A   1       3.711  -0.707  -0.038  0.00  0.00    +0.069 C 
BRANCH  24  28
ATOM     25  CZ  PHE A   1      -0.017   1.378   0.010  0.00  0.00    +0.000 A 
ATOM     26  CE1 PHE A   1       1.171   2.086   0.002  0.00  0.00    +0.000 A 
ATOM     27  CD1 PHE A   1       2.377   1.411  -0.013  0.00  0.00    +0.004 A 
ATOM     28  CG  PHE A   1       2.396   0.029  -0.020  0.00  0.00    -0.045 A 
ATOM     29  CD2 PHE A   1       1.208  -0.679  -0.012  0.00  0.00    +0.004 A 
ATOM     30  CE2 PHE A   1       0.002  -0.004   0.002  0.00  0.00    +0.000 A 
ENDBRANCH  24  28
ENDBRANCH  20  24
ENDBRANCH  16  20
ENDBRANCH   1  17
BRANCH   1  31
ATOM     31  C   UNK A   0       6.179   1.925   4.184  0.00  0.00    +0.065 C 
BRANCH  31  32
ATOM     32  C   UNK A   0       6.468   3.292   4.748  0.00  0.00    -0.039 C 
ATOM     33  C   UNK A   0       6.705   3.604   6.043  0.00  0.00    -0.001 A 
ATOM     34  C   UNK A   0       6.761   2.795   7.266  0.00  0.00    +0.010 A 
ATOM     35  C   UNK A   0       7.026   3.404   8.444  0.00  0.00    +0.001 A 
ATOM     36  C   UNK A   0       7.246   4.786   8.526  0.00  0.00    +0.002 A 
ATOM     37  C   UNK A   0       7.210   5.595   7.447  0.00  0.00    +0.026 A 
ATOM     38  C   UNK A   0       6.942   5.061   6.157  0.00  0.00    +0.043 A 
ATOM     39  N   UNK A   0       6.854   5.628   4.978  0.00  0.00    -0.380 N 
ATOM     40  C   UNK A   0       6.558   4.593   3.981  0.00  0.00    +0.144 C 
ATOM     41  H   UNK A   0       6.970   6.574   4.795  0.00  0.00    +0.160 HD
ENDBRANCH  31  32
ENDBRANCH   1  31
TORSDOF 9
