REMARK  Name = ZINC36534830
REMARK  12 active torsions:
REMARK  status: ('A' for Active; 'I' for Inactive)
REMARK    1  A    between atoms: C_1  and  C_2
REMARK    2  A    between atoms: C_2  and  C_3
REMARK    3  A    between atoms: C_2  and  C_4
REMARK    4  A    between atoms: C_2  and  N_5
REMARK    5  A    between atoms: C_6  and  C_8
REMARK    6  A    between atoms: C_8  and  C_10
REMARK    7  A    between atoms: C_8  and  N_19
REMARK    8  A    between atoms: C_11  and  O_18
REMARK    9  A    between atoms: C_13  and  O_17
REMARK   10  A    between atoms: C_15  and  O_16
REMARK   11  A    between atoms: N_19  and  C_20
REMARK   12  A    between atoms: C_21  and  C_23
REMARK                            x       y       z     vdW  Elec       q    Type
REMARK                         _______ _______ _______ _____ _____    ______ ____
ROOT
ATOM      1  C   UNL     1       2.742  -0.608  -2.678  0.00  0.00    +0.199 C 
ENDROOT
BRANCH   1   2
ATOM      2  C   UNL     1       2.674  -2.102  -2.862  0.00  0.00    +0.065 A 
ATOM      3  C   UNL     1       3.624  -2.918  -2.267  0.00  0.00    +0.129 A 
ATOM      4  C   UNL     1       3.562  -4.293  -2.436  0.00  0.00    +0.091 A 
ATOM      5  C   UNL     1       2.549  -4.852  -3.201  0.00  0.00    +0.124 A 
ATOM      6  C   UNL     1       1.598  -4.036  -3.796  0.00  0.00    +0.091 A 
ATOM      7  C   UNL     1       1.658  -2.661  -3.623  0.00  0.00    +0.129 A 
BRANCH   7   8
ATOM      8  O   UNL     1       0.724  -1.862  -4.202  0.00  0.00    -0.506 OA
ATOM      9  H   UNL     1       0.958  -1.565  -5.091  0.00  0.00    +0.292 HD
ENDBRANCH   7   8
BRANCH   5  10
ATOM     10  O   UNL     1       2.488  -6.199  -3.368  0.00  0.00    -0.507 OA
ATOM     11  H   UNL     1       1.963  -6.655  -2.696  0.00  0.00    +0.292 HD
ENDBRANCH   5  10
BRANCH   3  12
ATOM     12  O   UNL     1       4.617  -2.370  -1.517  0.00  0.00    -0.506 OA
ATOM     13  H   UNL     1       4.429  -2.353  -0.569  0.00  0.00    +0.292 HD
ENDBRANCH   3  12
ENDBRANCH   1   2
BRANCH   1  15
ATOM     14  N   UNL     1       1.893  -0.677  -0.355  0.00  0.00    -0.309 N 
ATOM     15  C   UNL     1       2.860  -0.288  -1.210  0.00  0.00    +0.239 C 
ATOM     16  O   UNL     1       3.825   0.321  -0.798  0.00  0.00    -0.273 OA
ATOM     17  H   UNL     1       1.122  -1.164  -0.685  0.00  0.00    +0.149 HD
BRANCH  14  19
ATOM     18  C   UNL     1       2.077   1.151   1.258  0.00  0.00    +0.031 C 
ATOM     19  C   UNL     1       2.008  -0.366   1.071  0.00  0.00    +0.026 C 
ATOM     20  C   UNL     1       3.278  -1.008   1.633  0.00  0.00    +0.031 C 
ATOM     21  C   UNL     1       0.788  -0.916   1.813  0.00  0.00    +0.031 C 
ENDBRANCH  14  19
ENDBRANCH   1  15
BRANCH   1  22
ATOM     22  N   UNL     1       3.910  -0.081  -3.388  0.00  0.00    -0.285 N 
ATOM     23  C   UNL     1       5.260  -0.436  -2.942  0.00  0.00    +0.133 C 
ATOM     24  C   UNL     1       3.743   0.730  -4.451  0.00  0.00    +0.247 C 
ATOM     25  O   UNL     1       2.630   1.109  -4.757  0.00  0.00    -0.270 OA
BRANCH  24  26
ATOM     26  C   UNL     1       4.915   1.158  -5.245  0.00  0.00    +0.037 A 
ATOM     27  C   UNL     1       5.990   0.289  -5.434  0.00  0.00    +0.013 A 
ATOM     28  C   UNL     1       7.079   0.694  -6.176  0.00  0.00    +0.001 A 
ATOM     29  C   UNL     1       7.108   1.960  -6.734  0.00  0.00    +0.000 A 
ATOM     30  C   UNL     1       6.045   2.828  -6.551  0.00  0.00    +0.001 A 
ATOM     31  C   UNL     1       4.947   2.432  -5.815  0.00  0.00    +0.013 A 
ENDBRANCH  24  26
ENDBRANCH   1  22
TORSDOF 8
