REMARK  Name = ZINC64890883
REMARK  5 active torsions:
REMARK  status: ('A' for Active; 'I' for Inactive)
REMARK    1  A    between atoms: C_1  and  C_2
REMARK    2  A    between atoms: C_2  and  C_3
REMARK    3  A    between atoms: C_3  and  N_4
REMARK    4  A    between atoms: C_8  and  C_17
REMARK    5  A    between atoms: C_20  and  C_23
REMARK                            x       y       z     vdW  Elec       q    Type
REMARK                         _______ _______ _______ _____ _____    ______ ____
ROOT
ATOM      1  N   UNL     1       0.738  -1.962  -1.265  0.00  0.00    -0.302 N 
ATOM      2  C   UNL     1       1.794  -2.645  -0.671  0.00  0.00    +0.068 A 
ATOM      3  C   UNL     1       2.826  -1.926  -0.073  0.00  0.00    +0.028 A 
ATOM      4  C   UNL     1       3.878  -2.587   0.519  0.00  0.00    +0.013 A 
ATOM      5  C   UNL     1       3.916  -3.984   0.522  0.00  0.00    +0.020 A 
ATOM      6  C   UNL     1       2.886  -4.709  -0.074  0.00  0.00    +0.039 A 
ATOM      7  C   UNL     1       1.825  -4.042  -0.670  0.00  0.00    +0.067 A 
ATOM      8  N   UNL     1       0.800  -4.774  -1.265  0.00  0.00    -0.316 N 
ATOM      9  H   UNL     1       0.831  -5.743  -1.259  0.00  0.00    +0.169 HD
ATOM     10  C   UNL     1      -0.235  -4.136  -1.848  0.00  0.00    +0.314 A 
ATOM     11  O   UNL     1      -1.132  -4.770  -2.367  0.00  0.00    -0.262 OA
ATOM     12  C   UNL     1      -0.270  -2.645  -1.843  0.00  0.00    +0.316 A 
ATOM     13  O   UNL     1      -1.196  -2.052  -2.358  0.00  0.00    -0.262 OA
ENDROOT
BRANCH   5  14
ATOM     14  C   UNL     1       5.048  -4.693   1.158  0.00  0.00    +0.168 C 
ATOM     15  N   UNL     1       5.171  -5.979   1.205  0.00  0.00    -0.066 NA
ATOM     16  O   UNL     1       6.359  -6.349   1.879  0.00  0.00    -0.364 OA
ATOM     17  C   UNL     1       7.004  -5.128   2.271  0.00  0.00    +0.324 C 
ATOM     18  N   UNL     1       6.115  -4.065   1.775  0.00  0.00    -0.286 N 
ATOM     19  H   UNL     1       6.251  -3.109   1.864  0.00  0.00    +0.151 HD
BRANCH  17  20
ATOM     20  C   UNL     1       8.361  -5.019   1.626  0.00  0.00    +0.032 A 
ATOM     21  C   UNL     1       8.549  -4.174   0.548  0.00  0.00    +0.010 A 
ATOM     22  C   UNL     1       9.794  -4.074  -0.044  0.00  0.00    +0.001 A 
ATOM     23  C   UNL     1      10.852  -4.820   0.441  0.00  0.00    +0.001 A 
ATOM     24  C   UNL     1      10.666  -5.665   1.518  0.00  0.00    +0.020 A 
ATOM     25  C   UNL     1       9.421  -5.761   2.115  0.00  0.00    +0.049 A 
ATOM     26 CL   UNL     1       9.188  -6.818   3.472  0.00  0.00    -0.083 Cl
ENDBRANCH  17  20
ENDBRANCH   5  14
BRANCH   1  27
ATOM     27  C   UNL     1       0.718  -0.497  -1.257  0.00  0.00    +0.125 C 
BRANCH  27  29
ATOM     28  C   UNL     1      -0.019   1.526   0.010  0.00  0.00    +0.005 C 
ATOM     29  C   UNL     1       0.002  -0.004   0.002  0.00  0.00    +0.018 C 
ENDBRANCH  27  29
ENDBRANCH   1  27
TORSDOF 4
