REMARK  Name = ZINC19948241
REMARK  5 active torsions:
REMARK  status: ('A' for Active; 'I' for Inactive)
REMARK    1  A    between atoms: C_1  and  C_2
REMARK    2  A    between atoms: C_5  and  C_8
REMARK    3  A    between atoms: C_10  and  C_17
REMARK    4  A    between atoms: C_11  and  C_15
REMARK    5  A    between atoms: C_12  and  N_14
REMARK                            x       y       z     vdW  Elec       q    Type
REMARK                         _______ _______ _______ _____ _____    ______ ____
ROOT
ATOM      1  C   UNL     1      -4.748   1.458   0.916  0.00  0.00    +0.074 A 
ATOM      2  C   UNL     1      -3.436   1.917   0.945  0.00  0.00    +0.041 A 
ATOM      3  C   UNL     1      -2.517   1.414   0.020  0.00  0.00    +0.040 A 
ATOM      4  C   UNL     1      -2.969   0.455  -0.917  0.00  0.00    +0.102 A 
ATOM      5  C   UNL     1      -4.312   0.044  -0.870  0.00  0.00    +0.135 A 
ATOM      6  N   UNL     1      -5.141   0.552   0.026  0.00  0.00    -0.231 NA
ENDROOT
BRANCH   1  11
ATOM      7  C   UNL     1      -8.547   3.519   4.721  0.00  0.00    +0.044 C 
ATOM      8  C   UNL     1      -7.553   2.980   3.725  0.00  0.00    -0.050 A 
ATOM      9  C   UNL     1      -7.952   2.037   2.794  0.00  0.00    +0.004 A 
ATOM     10  C   UNL     1      -7.045   1.540   1.880  0.00  0.00    +0.010 A 
ATOM     11  C   UNL     1      -5.726   1.989   1.895  0.00  0.00    +0.000 A 
ATOM     12  C   UNL     1      -5.328   2.935   2.839  0.00  0.00    +0.010 A 
ATOM     13  C   UNL     1      -6.244   3.429   3.745  0.00  0.00    +0.004 A 
ENDBRANCH   1  11
BRANCH   3  14
ATOM     14  C   UNL     1      -1.117   1.874   0.017  0.00  0.00    +0.136 A 
ATOM     15  C   UNL     1      -0.013   1.076   0.008  0.00  0.00    +0.050 A 
ATOM     16  C   UNL     1       1.105   1.931   0.002  0.00  0.00    +0.042 A 
ATOM     17  C   UNL     1       0.636   3.196   0.013  0.00  0.00    +0.196 A 
ATOM     18  O   UNL     1      -0.705   3.157   0.026  0.00  0.00    -0.463 OA
ENDBRANCH   3  14
BRANCH   5  19
ATOM     19  N   UNL     1      -4.774  -0.897  -1.774  0.00  0.00    -0.342 N 
ATOM     20  H   UNL     1      -5.824  -1.222  -1.742  0.00  0.00    +0.144 HD
ATOM     21  H   UNL     1      -4.090  -1.320  -2.525  0.00  0.00    +0.144 HD
ENDBRANCH   5  19
BRANCH   4  22
ATOM     22  C   UNL     1      -2.074  -0.091  -1.892  0.00  0.00    +0.103 C 
ATOM     23  N   UNL     1      -1.363  -0.524  -2.665  0.00  0.00    -0.191 NA
ENDBRANCH   4  22
TORSDOF 4
