REMARK  Name = ZINC04848755
REMARK  6 active torsions:
REMARK  status: ('A' for Active; 'I' for Inactive)
REMARK    1  A    between atoms: C_1  and  C_2
REMARK    2  A    between atoms: C_2  and  C_3
REMARK    3  A    between atoms: C_11  and  N_26
REMARK    4  A    between atoms: C_12  and  C_16
REMARK    5  A    between atoms: C_22  and  C_24
REMARK    6  A    between atoms: C_24  and  C_25
REMARK                            x       y       z     vdW  Elec       q    Type
REMARK                         _______ _______ _______ _____ _____    ______ ____
ROOT
ATOM      1  C   UNL     1      -1.412  -0.526   0.013  0.00  0.00    -0.047 A 
ATOM      2  C   UNL     1      -2.047  -0.764   1.231  0.00  0.00    +0.005 A 
ATOM      3  C   UNL     1      -3.322  -1.235   1.276  0.00  0.00    +0.026 A 
ATOM      4  C   UNL     1      -4.017  -1.486   0.080  0.00  0.00    +0.047 A 
ATOM      5  C   UNL     1      -3.371  -1.243  -1.161  0.00  0.00    -0.001 A 
ATOM      6  C   UNL     1      -2.051  -0.751  -1.166  0.00  0.00    +0.013 A 
ATOM      7  C   UNL     1      -4.052  -1.490  -2.358  0.00  0.00    +0.022 A 
ATOM      8  C   UNL     1      -5.370  -1.976  -2.304  0.00  0.00    +0.028 A 
ATOM      9  C   UNL     1      -6.258  -2.300  -3.413  0.00  0.00    +0.053 A 
ATOM     10  C   UNL     1      -7.520  -2.767  -3.126  0.00  0.00    +0.097 A 
ATOM     11  S   UNL     1      -7.562  -2.789  -1.345  0.00  0.00    -0.064 S 
ATOM     12  C   UNL     1      -5.925  -2.186  -1.011  0.00  0.00    +0.088 A 
ATOM     13  N   UNL     1      -5.270  -1.948   0.097  0.00  0.00    -0.349 N 
ATOM     14  H   UNL     1      -5.704  -2.112   0.949  0.00  0.00    +0.166 HD
ENDROOT
BRANCH  10  15
ATOM     15  C   UNL     1      -8.543  -3.141  -4.031  0.00  0.00    +0.258 C 
ATOM     16  O   UNL     1      -8.351  -3.066  -5.232  0.00  0.00    -0.269 OA
ATOM     17  N   UNL     1      -9.728  -3.581  -3.565  0.00  0.00    -0.259 N 
ATOM     18  C   UNL     1     -10.732  -3.948  -4.453  0.00  0.00    +0.188 A 
ATOM     19  N   UNL     1     -10.738  -3.951  -5.779  0.00  0.00    -0.126 NA
ATOM     20  N   UNL     1     -11.748  -4.321  -6.438  0.00  0.00    -0.145 NA
ATOM     21  C   UNL     1     -12.858  -4.726  -5.854  0.00  0.00    +0.103 A 
ATOM     22  S   UNL     1     -12.384  -4.559  -4.136  0.00  0.00    -0.035 S 
ATOM     23  H   UNL     1      -9.881  -3.641  -2.609  0.00  0.00    +0.157 HD
BRANCH  21  24
ATOM     24  C   UNL     1     -14.154  -5.200  -6.460  0.00  0.00    +0.061 C 
ATOM     25  C   UNL     1     -14.097  -6.715  -6.664  0.00  0.00    +0.011 C 
ENDBRANCH  21  24
ENDBRANCH  10  15
BRANCH   9  26
ATOM     26  N   UNL     1      -5.842  -2.141  -4.726  0.00  0.00    -0.356 N 
ATOM     27  H   UNL     1      -4.950  -1.811  -4.915  0.00  0.00    +0.142 HD
ATOM     28  H   UNL     1      -6.442  -2.361  -5.455  0.00  0.00    +0.142 HD
ENDBRANCH   9  26
BRANCH   1  30
ATOM     29  C   UNL     1      -0.019   1.526   0.010  0.00  0.00    +0.009 C 
ATOM     30  C   UNL     1       0.002  -0.004   0.002  0.00  0.00    +0.032 C 
ENDBRANCH   1  30
TORSDOF 4
