REMARK  Name = ZINC28626771
REMARK  7 active torsions:
REMARK  status: ('A' for Active; 'I' for Inactive)
REMARK    1  A    between atoms: C_1  and  C_2
REMARK    2  A    between atoms: C_6  and  N_8
REMARK    3  A    between atoms: C_9  and  C_11
REMARK    4  A    between atoms: C_11  and  O_12
REMARK    5  A    between atoms: O_12  and  C_13
REMARK    6  A    between atoms: C_13  and  C_15
REMARK    7  A    between atoms: C_15  and  N_16
REMARK                            x       y       z     vdW  Elec       q    Type
REMARK                         _______ _______ _______ _____ _____    ______ ____
ROOT
ATOM      1  O   UNL     1       0.002  -0.004   0.002  0.00  0.00    -0.454 OA
ENDROOT
BRANCH   1   2
ATOM      2  C   UNL     1      -0.016   1.338   0.009  0.00  0.00    +0.326 C 
ATOM      3  O   UNL     1       1.022   1.956   0.003  0.00  0.00    -0.249 OA
BRANCH   2   4
ATOM      4  C   UNL     1      -1.331   2.074   0.020  0.00  0.00    +0.236 C 
BRANCH   4   5
ATOM      5  N   UNL     1      -1.083   3.518   0.026  0.00  0.00    -0.231 N 
ATOM      6  C   UNL     1      -0.959   4.239   1.163  0.00  0.00    +0.226 C 
ATOM      7  O   UNL     1      -0.865   3.808   2.292  0.00  0.00    -0.275 OA
ATOM      8  C   UNL     1      -0.955   5.682   0.748  0.00  0.00    +0.091 C 
ATOM      9  C   UNL     1      -0.262   6.646   1.654  0.00  0.00    +0.040 C 
ATOM     10  C   UNL     1       1.208   6.760   1.399  0.00  0.00    -0.030 C 
ATOM     11  C   UNL     1       1.788   6.258   0.360  0.00  0.00    -0.030 C 
ATOM     12  C   UNL     1       1.104   5.461  -0.696  0.00  0.00    +0.040 C 
ATOM     13  C   UNL     1      -0.418   5.627  -0.691  0.00  0.00    +0.091 C 
ATOM     14  C   UNL     1      -0.964   4.248  -1.099  0.00  0.00    +0.226 C 
ATOM     15  O   UNL     1      -1.236   3.886  -2.224  0.00  0.00    -0.275 OA
ENDBRANCH   4   5
ENDBRANCH   2   4
ENDBRANCH   1   2
BRANCH   1  16
ATOM     16  C   UNL     1       1.305  -0.646  -0.014  0.00  0.00    +0.328 C 
BRANCH  16  18
ATOM     17  N   UNL     1       2.207  -2.949  -0.035  0.00  0.00    -0.266 N 
ATOM     18  C   UNL     1       1.127  -2.142  -0.020  0.00  0.00    +0.256 C 
ATOM     19  O   UNL     1       0.013  -2.621  -0.012  0.00  0.00    -0.272 OA
ATOM     20  H   UNL     1       3.218  -2.514  -0.042  0.00  0.00    +0.156 HD
BRANCH  17  26
ATOM     21  C   UNL     1      -0.784  -6.690  -0.026  0.00  0.00    +0.067 C 
ATOM     22  C   UNL     1       0.624  -6.154  -0.037  0.00  0.00    +0.059 A 
ATOM     23  C   UNL     1       1.690  -7.034  -0.051  0.00  0.00    +0.063 A 
ATOM     24  C   UNL     1       2.985  -6.534  -0.061  0.00  0.00    +0.045 A 
ATOM     25  C   UNL     1       3.162  -5.160  -0.062  0.00  0.00    +0.082 A 
ATOM     26  C   UNL     1       2.043  -4.334  -0.041  0.00  0.00    +0.144 A 
ATOM     27  N   UNL     1       0.825  -4.850  -0.032  0.00  0.00    -0.234 NA
ATOM     28 CL   UNL     1       4.759  -4.479  -0.080  0.00  0.00    -0.080 Cl
ATOM     29 CL   UNL     1       1.411  -8.748  -0.057  0.00  0.00    -0.082 Cl
ENDBRANCH  17  26
ENDBRANCH  16  18
ENDBRANCH   1  16
TORSDOF 6
