REMARK  Name = ZINC57844506
REMARK  9 active torsions:
REMARK  status: ('A' for Active; 'I' for Inactive)
REMARK    1  A    between atoms: C_1  and  C_2
REMARK    2  A    between atoms: C_2  and  C_3
REMARK    3  A    between atoms: C_6  and  C_9
REMARK    4  A    between atoms: C_9  and  C_22
REMARK    5  A    between atoms: N_12  and  C_16
REMARK    6  A    between atoms: C_16  and  C_17
REMARK    7  A    between atoms: C_17  and  C_19
REMARK    8  A    between atoms: C_17  and  C_20
REMARK    9  A    between atoms: C_22  and  C_23
REMARK                            x       y       z     vdW  Elec       q    Type
REMARK                         _______ _______ _______ _____ _____    ______ ____
ROOT
ATOM      1  C   UNL     1      -5.419  -2.005   0.043  0.00  0.00    +0.138 C 
ATOM      2  C   UNL     1      -5.428  -3.515   0.168  0.00  0.00    +0.251 C 
ATOM      3  O   UNL     1      -4.951  -4.317  -0.607  0.00  0.00    -0.272 OA
ATOM      4  N   UNL     1      -6.076  -3.782   1.319  0.00  0.00    -0.223 N 
ATOM      5  C   UNL     1      -6.473  -2.662   1.933  0.00  0.00    +0.310 C 
ATOM      6  O   UNL     1      -7.077  -2.647   2.987  0.00  0.00    -0.252 OA
ATOM      7  N   UNL     1      -6.129  -1.554   1.252  0.00  0.00    -0.281 N 
ATOM      8  H   UNL     1      -6.313  -0.636   1.508  0.00  0.00    +0.152 HD
ENDROOT
BRANCH   1  12
ATOM      9  C   UNL     1      -1.412  -0.526   0.013  0.00  0.00    -0.048 A 
ATOM     10  C   UNL     1      -2.051  -0.766   1.215  0.00  0.00    +0.004 A 
ATOM     11  C   UNL     1      -3.348  -1.244   1.225  0.00  0.00    +0.006 A 
ATOM     12  C   UNL     1      -4.006  -1.482   0.032  0.00  0.00    -0.015 A 
ATOM     13  C   UNL     1      -3.367  -1.241  -1.170  0.00  0.00    +0.006 A 
ATOM     14  C   UNL     1      -2.072  -0.758  -1.179  0.00  0.00    +0.004 A 
BRANCH   9  16
ATOM     15  C   UNL     1      -0.019   1.526   0.010  0.00  0.00    +0.009 C 
ATOM     16  C   UNL     1       0.002  -0.004   0.002  0.00  0.00    +0.032 C 
ENDBRANCH   9  16
ENDBRANCH   1  12
BRANCH   1  17
ATOM     17  C   UNL     1      -6.165  -1.561  -1.217  0.00  0.00    +0.037 C 
ATOM     18  C   UNL     1      -7.629  -1.997  -1.123  0.00  0.00    +0.007 C 
ENDBRANCH   1  17
BRANCH   4  19
ATOM     19  C   UNL     1      -6.316  -5.133   1.834  0.00  0.00    +0.136 C 
BRANCH  19  20
ATOM     20  C   UNL     1      -5.148  -5.552   2.729  0.00  0.00    +0.106 C 
ATOM     21  C   UNL     1      -5.103  -4.650   3.964  0.00  0.00    +0.025 C 
BRANCH  20  22
ATOM     22  C   UNL     1      -5.331  -6.951   3.150  0.00  0.00    +0.067 C 
ATOM     23  N   UNL     1      -5.471  -8.030   3.475  0.00  0.00    -0.196 NA
ENDBRANCH  20  22
ENDBRANCH  19  20
ENDBRANCH   4  19
TORSDOF 6
