REMARK  Name = ZINC34974961
REMARK  11 active torsions:
REMARK  status: ('A' for Active; 'I' for Inactive)
REMARK    1  A    between atoms: C_1  and  C_2
REMARK    2  A    between atoms: C_9  and  C_11
REMARK    3  A    between atoms: C_17  and  C_19
REMARK    4  A    between atoms: C_19  and  C_21
REMARK    5  A    between atoms: C_19  and  N_24
REMARK    6  A    between atoms: C_21  and  C_22
REMARK    7  A    between atoms: C_21  and  C_23
REMARK    8  A    between atoms: N_27  and  C_28
REMARK    9  A    between atoms: C_28  and  C_29
REMARK   10  A    between atoms: C_28  and  C_30
REMARK   11  A    between atoms: C_28  and  C_31
REMARK                            x       y       z     vdW  Elec       q    Type
REMARK                         _______ _______ _______ _____ _____    ______ ____
ROOT
ATOM      1  C   UNL     1       0.963   2.244  -0.075  0.00  0.00    +0.029 C 
ATOM      2  C   UNL     1       1.178   0.731  -0.137  0.00  0.00    +0.090 C 
ATOM      3  C   UNL     1       1.500   0.316  -1.578  0.00  0.00    +0.130 C 
ATOM      4  N   UNL     1       1.956  -1.082  -1.574  0.00  0.00    -0.297 N 
ATOM      5  C   UNL     1       3.088  -1.454  -0.714  0.00  0.00    +0.127 C 
ATOM      6  C   UNL     1       2.766  -1.039   0.727  0.00  0.00    +0.127 C 
ATOM      7  N   UNL     1       2.308   0.357   0.726  0.00  0.00    -0.295 N 
ATOM      8  C   UNL     1       2.915   1.280   1.498  0.00  0.00    +0.219 C 
ATOM      9  O   UNL     1       2.464   2.403   1.570  0.00  0.00    -0.275 OA
ATOM     10  C   UNL     1       1.347  -2.004  -2.345  0.00  0.00    +0.236 C 
ATOM     11  O   UNL     1       0.468  -1.670  -3.111  0.00  0.00    -0.274 OA
ENDROOT
BRANCH   8  12
ATOM     12  C   UNL     1       4.154   0.915   2.274  0.00  0.00    +0.075 C 
ATOM     13  C   UNL     1       3.759   0.148   3.537  0.00  0.00    +0.013 C 
ATOM     14  C   UNL     1       5.017  -0.222   4.325  0.00  0.00    +0.001 C 
ATOM     15  C   UNL     1       5.767   1.052   4.716  0.00  0.00    +0.000 C 
ATOM     16  C   UNL     1       6.163   1.819   3.453  0.00  0.00    +0.001 C 
ATOM     17  C   UNL     1       4.905   2.190   2.666  0.00  0.00    +0.013 C 
ENDBRANCH   8  12
BRANCH  10  18
ATOM     18  C   UNL     1       1.758  -3.451  -2.256  0.00  0.00    +0.163 C 
BRANCH  18  19
ATOM     19  N   UNL     1       0.586  -4.306  -2.460  0.00  0.00    -0.288 N 
ATOM     20  C   UNL     1       0.565  -5.553  -1.950  0.00  0.00    +0.301 C 
ATOM     21  O   UNL     1       1.518  -5.969  -1.320  0.00  0.00    -0.253 OA
ATOM     22  N   UNL     1      -0.514  -6.340  -2.138  0.00  0.00    -0.295 N 
ATOM     23  H   UNL     1      -0.174  -3.974  -2.962  0.00  0.00    +0.151 HD
ATOM     24  H   UNL     1      -1.274  -6.008  -2.640  0.00  0.00    +0.151 HD
BRANCH  22  25
ATOM     25  C   UNL     1      -0.537  -7.695  -1.584  0.00  0.00    +0.028 C 
ATOM     26  C   UNL     1      -0.390  -7.627  -0.062  0.00  0.00    +0.031 C 
ATOM     27  C   UNL     1      -1.865  -8.368  -1.938  0.00  0.00    +0.031 C 
ATOM     28  C   UNL     1       0.619  -8.507  -2.172  0.00  0.00    +0.031 C 
ENDBRANCH  22  25
ENDBRANCH  18  19
BRANCH  18  29
ATOM     29  C   UNL     1       2.803  -3.752  -3.333  0.00  0.00    +0.012 C 
ATOM     30  C   UNL     1       4.054  -2.909  -3.079  0.00  0.00    +0.009 C 
ATOM     31  C   UNL     1       3.170  -5.236  -3.287  0.00  0.00    +0.009 C 
ENDBRANCH  18  29
ENDBRANCH  10  18
TORSDOF 5
