REMARK  Name = ZINC36494146
REMARK  15 active torsions:
REMARK  status: ('A' for Active; 'I' for Inactive)
REMARK    1  A    between atoms: C_1  and  C_2
REMARK    2  A    between atoms: C_2  and  C_3
REMARK    3  A    between atoms: C_2  and  C_4
REMARK    4  A    between atoms: C_2  and  N_5
REMARK    5  A    between atoms: C_6  and  C_8
REMARK    6  A    between atoms: C_8  and  C_10
REMARK    7  A    between atoms: C_8  and  N_19
REMARK    8  A    between atoms: C_11  and  O_18
REMARK    9  A    between atoms: C_13  and  O_17
REMARK   10  A    between atoms: C_15  and  O_16
REMARK   11  A    between atoms: N_19  and  C_20
REMARK   12  A    between atoms: C_20  and  C_21
REMARK   13  A    between atoms: C_26  and  C_28
REMARK   14  A    between atoms: C_33  and  O_34
REMARK   15  A    between atoms: O_34  and  C_35
REMARK                            x       y       z     vdW  Elec       q    Type
REMARK                         _______ _______ _______ _____ _____    ______ ____
ROOT
ATOM      1  C   UNL     1       2.626  -0.487  -2.039  0.00  0.00    +0.200 C 
ENDROOT
BRANCH   1   2
ATOM      2  C   UNL     1       2.474  -1.907  -1.557  0.00  0.00    +0.065 A 
ATOM      3  C   UNL     1       3.289  -2.386  -0.542  0.00  0.00    +0.129 A 
ATOM      4  C   UNL     1       3.148  -3.692  -0.099  0.00  0.00    +0.091 A 
ATOM      5  C   UNL     1       2.193  -4.519  -0.670  0.00  0.00    +0.124 A 
ATOM      6  C   UNL     1       1.377  -4.040  -1.683  0.00  0.00    +0.091 A 
ATOM      7  C   UNL     1       1.514  -2.732  -2.124  0.00  0.00    +0.129 A 
BRANCH   7   8
ATOM      8  O   UNL     1       0.712  -2.261  -3.114  0.00  0.00    -0.506 OA
ATOM      9  H   UNL     1       1.067  -2.392  -4.004  0.00  0.00    +0.292 HD
ENDBRANCH   7   8
BRANCH   5  10
ATOM     10  O   UNL     1       2.056  -5.800  -0.236  0.00  0.00    -0.507 OA
ATOM     11  H   UNL     1       1.427  -5.904   0.491  0.00  0.00    +0.292 HD
ENDBRANCH   5  10
BRANCH   3  12
ATOM     12  O   UNL     1       4.225  -1.575   0.017  0.00  0.00    -0.506 OA
ATOM     13  H   UNL     1       3.932  -1.135   0.826  0.00  0.00    +0.292 HD
ENDBRANCH   3  12
ENDBRANCH   1   2
BRANCH   1  15
ATOM     14  N   UNL     1       1.520   0.493  -0.055  0.00  0.00    -0.309 N 
ATOM     15  C   UNL     1       2.601   0.450  -0.858  0.00  0.00    +0.239 C 
ATOM     16  O   UNL     1       3.554   1.165  -0.631  0.00  0.00    -0.273 OA
ATOM     17  H   UNL     1       0.757  -0.079  -0.236  0.00  0.00    +0.149 HD
BRANCH  14  19
ATOM     18  C   UNL     1       1.650   2.845   0.604  0.00  0.00    +0.031 C 
ATOM     19  C   UNL     1       1.495   1.403   1.093  0.00  0.00    +0.026 C 
ATOM     20  C   UNL     1       2.646   1.060   2.040  0.00  0.00    +0.031 C 
ATOM     21  C   UNL     1       0.164   1.256   1.833  0.00  0.00    +0.031 C 
ENDBRANCH  14  19
ENDBRANCH   1  15
BRANCH   1  22
ATOM     22  N   UNL     1       3.900  -0.346  -2.747  0.00  0.00    -0.274 N 
ATOM     23  C   UNL     1       4.314   0.871  -3.155  0.00  0.00    +0.251 C 
ATOM     24  O   UNL     1       5.299   0.973  -3.860  0.00  0.00    -0.270 OA
BRANCH  23  25
ATOM     25  C   UNL     1       3.570   2.078  -2.746  0.00  0.00    +0.078 A 
ATOM     26  C   UNL     1       2.246   1.974  -2.312  0.00  0.00    +0.017 A 
ATOM     27  C   UNL     1       1.557   3.105  -1.932  0.00  0.00    +0.001 A 
ATOM     28  C   UNL     1       2.171   4.346  -1.977  0.00  0.00    +0.004 A 
ATOM     29  C   UNL     1       3.479   4.463  -2.404  0.00  0.00    +0.046 A 
ATOM     30  C   UNL     1       4.189   3.334  -2.785  0.00  0.00    +0.132 A 
BRANCH  30  31
ATOM     31  O   UNL     1       5.476   3.447  -3.200  0.00  0.00    -0.494 OA
ATOM     32  C   UNL     1       6.041   4.759  -3.213  0.00  0.00    +0.277 C 
ENDBRANCH  30  31
ENDBRANCH  23  25
BRANCH  22  33
ATOM     33  C   UNL     1       4.726  -1.526  -3.013  0.00  0.00    +0.183 C 
BRANCH  33  34
ATOM     34  C   UNL     1       4.467  -2.016  -4.414  0.00  0.00    +0.122 A 
ATOM     35  C   UNL     1       5.196  -1.708  -5.502  0.00  0.00    +0.046 A 
ATOM     36  C   UNL     1       4.603  -2.379  -6.596  0.00  0.00    +0.041 A 
ATOM     37  C   UNL     1       3.546  -3.056  -6.111  0.00  0.00    +0.195 A 
ATOM     38  O   UNL     1       3.472  -2.837  -4.788  0.00  0.00    -0.466 OA
ENDBRANCH  33  34
ENDBRANCH  22  33
ENDBRANCH   1  22
TORSDOF 11
