REMARK  Name = ZINC13630294
REMARK  7 active torsions:
REMARK  status: ('A' for Active; 'I' for Inactive)
REMARK    1  A    between atoms: C_3  and  C_6
REMARK    2  A    between atoms: C_6  and  N_7
REMARK    3  A    between atoms: C_9  and  C_14
REMARK    4  A    between atoms: N_16  and  N_17
REMARK    5  A    between atoms: N_17  and  C_18
REMARK    6  A    between atoms: C_18  and  N_20
REMARK    7  A    between atoms: C_21  and  C_23
REMARK                            x       y       z     vdW  Elec       q    Type
REMARK                         _______ _______ _______ _____ _____    ______ ____
ROOT
ATOM      1  C   UNL     1       6.012  -4.742  -0.080  0.00  0.00    +0.234 C 
ATOM      2  O   UNL     1       6.034  -5.954  -0.087  0.00  0.00    -0.274 OA
ATOM      3  N   UNL     1       4.833  -4.090  -0.066  0.00  0.00    -0.235 N 
ATOM      4  H   UNL     1       4.815  -3.120  -0.060  0.00  0.00    +0.173 HD
ENDROOT
BRANCH   1   7
ATOM      5  N   UNL     1       9.469  -4.170  -1.097  0.00  0.00    -0.293 N 
ATOM      6  C   UNL     1       8.515  -4.907  -0.260  0.00  0.00    +0.121 C 
ATOM      7  C   UNL     1       7.303  -3.965  -0.089  0.00  0.00    +0.102 C 
ATOM      8  C   UNL     1       7.409  -3.082  -1.354  0.00  0.00    +0.110 C 
ATOM      9  C   UNL     1       8.873  -3.143  -1.728  0.00  0.00    +0.217 C 
ATOM     10  O   UNL     1       9.430  -2.376  -2.485  0.00  0.00    -0.276 OA
BRANCH   5  11
ATOM     11  C   UNL     1      10.888  -4.510  -1.229  0.00  0.00    +0.182 C 
BRANCH  11  14
ATOM     12  C   UNL     1      12.716  -3.227   1.703  0.00  0.00    +0.041 A 
ATOM     13  C   UNL     1      11.951  -4.228   1.061  0.00  0.00    +0.046 A 
ATOM     14  C   UNL     1      11.679  -3.776  -0.177  0.00  0.00    +0.122 A 
ATOM     15  O   UNL     1      12.228  -2.558  -0.315  0.00  0.00    -0.466 OA
ATOM     16  C   UNL     1      12.858  -2.220   0.823  0.00  0.00    +0.195 A 
ENDBRANCH  11  14
ENDBRANCH   5  11
ENDBRANCH   1   7
BRANCH   3  17
ATOM     17  N   UNL     1       3.632  -4.812  -0.058  0.00  0.00    -0.246 N 
ATOM     18  H   UNL     1       3.650  -5.782  -0.062  0.00  0.00    +0.172 HD
BRANCH  17  19
ATOM     19  C   UNL     1       2.453  -4.160  -0.043  0.00  0.00    +0.153 C 
ATOM     20  S   UNL     1       0.987  -5.043  -0.033  0.00  0.00    -0.017 S 
BRANCH  19  21
ATOM     21  N   UNL     1       2.428  -2.812  -0.036  0.00  0.00    -0.263 N 
ATOM     22  C   UNL     1       1.249  -2.160  -0.021  0.00  0.00    +0.250 C 
ATOM     23  O   UNL     1       0.208  -2.787  -0.014  0.00  0.00    -0.270 OA
ATOM     24  H   UNL     1       3.259  -2.312  -0.041  0.00  0.00    +0.157 HD
BRANCH  22  25
ATOM     25  C   UNL     1       1.222  -0.683  -0.013  0.00  0.00    +0.040 A 
ATOM     26  C   UNL     1       0.002  -0.004   0.002  0.00  0.00    +0.033 A 
ATOM     27  C   UNL     1      -0.017   1.377   0.010  0.00  0.00    +0.043 A 
ATOM     28  C   UNL     1       1.171   2.088   0.002  0.00  0.00    +0.040 A 
ATOM     29  C   UNL     1       2.384   1.421  -0.013  0.00  0.00    +0.043 A 
ATOM     30  C   UNL     1       2.416   0.040  -0.021  0.00  0.00    +0.033 A 
ATOM     31 CL   UNL     1       3.868   2.321  -0.022  0.00  0.00    -0.083 Cl
ATOM     32 CL   UNL     1      -1.533   2.222   0.021  0.00  0.00    -0.083 Cl
ENDBRANCH  22  25
ENDBRANCH  19  21
ENDBRANCH  17  19
ENDBRANCH   3  17
TORSDOF 7
