REMARK  Name = ZINC12408667
REMARK  5 active torsions:
REMARK  status: ('A' for Active; 'I' for Inactive)
REMARK    1  A    between atoms: C_1  and  C_2
REMARK    2  A    between atoms: C_2  and  C_3
REMARK    3  A    between atoms: C_2  and  N_4
REMARK    4  A    between atoms: C_6  and  C_7
REMARK    5  A    between atoms: C_10  and  O_13
REMARK                            x       y       z     vdW  Elec       q    Type
REMARK                         _______ _______ _______ _____ _____    ______ ____
ROOT
ATOM      1  N   UNL     1       2.986  -2.519   0.283  0.00  0.00    -0.197 N 
ATOM      2  C   UNL     1       4.101  -1.766   0.717  0.00  0.00    +0.099 C 
ATOM      3  C   UNL     1       5.058  -2.304   1.515  0.00  0.00    +0.036 C 
ATOM      4  C   UNL     1       4.169  -0.370   0.259  0.00  0.00    +0.210 C 
ATOM      5  O   UNL     1       5.238   0.109  -0.072  0.00  0.00    -0.285 OA
ATOM      6  C   UNL     1       2.943   0.454   0.199  0.00  0.00    +0.050 A 
ATOM      7  C   UNL     1       3.062   1.836   0.011  0.00  0.00    +0.014 A 
ATOM      8  C   UNL     1       1.931   2.619  -0.081  0.00  0.00    +0.001 A 
ATOM      9  C   UNL     1       0.676   2.042   0.013  0.00  0.00    +0.002 A 
ATOM     10  C   UNL     1       0.550   0.678   0.206  0.00  0.00    +0.029 A 
ATOM     11  C   UNL     1       1.675  -0.116   0.307  0.00  0.00    +0.120 A 
ATOM     12  S   UNL     1       1.493  -1.848   0.590  0.00  0.00    +0.076 S 
ATOM     13  O   UNL     1       1.245  -2.014   1.979  0.00  0.00    -0.150 OA
ATOM     14  O   UNL     1       0.609  -2.338  -0.409  0.00  0.00    -0.150 OA
ENDROOT
BRANCH   3  15
ATOM     15  C   UNL     1       6.108  -1.447   2.081  0.00  0.00    -0.023 A 
ATOM     16  C   UNL     1       7.415  -1.931   2.214  0.00  0.00    +0.011 A 
ATOM     17  C   UNL     1       8.397  -1.122   2.739  0.00  0.00    +0.046 A 
ATOM     18  C   UNL     1       8.090   0.171   3.150  0.00  0.00    +0.117 A 
ATOM     19  C   UNL     1       6.793   0.655   3.026  0.00  0.00    +0.046 A 
ATOM     20  C   UNL     1       5.804  -0.144   2.496  0.00  0.00    +0.011 A 
BRANCH  18  21
ATOM     21  O   UNL     1       9.060   0.963   3.673  0.00  0.00    -0.507 OA
ATOM     22  H   UNL     1       9.152   0.891   4.633  0.00  0.00    +0.292 HD
ENDBRANCH  18  21
ENDBRANCH   3  15
BRANCH   1  24
ATOM     23  C   UNL     1       4.065  -3.649  -1.599  0.00  0.00    +0.029 C 
ATOM     24  C   UNL     1       3.134  -3.810  -0.395  0.00  0.00    +0.092 C 
ATOM     25  C   UNL     1       3.729  -4.831   0.576  0.00  0.00    +0.029 C 
ENDBRANCH   1  24
TORSDOF 3
