REMARK  Name = ZINC59883041
REMARK  5 active torsions:
REMARK  status: ('A' for Active; 'I' for Inactive)
REMARK    1  A    between atoms: C_3  and  C_8
REMARK    2  A    between atoms: C_11  and  S_14
REMARK    3  A    between atoms: S_14  and  C_15
REMARK    4  A    between atoms: C_15  and  C_16
REMARK    5  A    between atoms: C_19  and  C_21
REMARK                            x       y       z     vdW  Elec       q    Type
REMARK                         _______ _______ _______ _____ _____    ______ ____
ROOT
ATOM      1  C   UNL     1       3.660   2.166  -0.022  0.00  0.00    +0.182 A 
ATOM      2  N   UNL     1       4.887   1.626  -0.036  0.00  0.00    -0.201 NA
ATOM      3  H   UNL     1       5.549   4.651  -0.029  0.00  0.00    +0.191 HD
ATOM      4  C   UNL     1       5.790   2.582  -0.041  0.00  0.00    +0.185 A 
ATOM      5  N   UNL     1       5.144   3.769  -0.029  0.00  0.00    -0.253 N 
ATOM      6  N   UNL     1       3.771   3.475  -0.022  0.00  0.00    -0.152 NA
ENDROOT
BRANCH   1   9
ATOM      7  C   UNL     1      -0.017   1.379   0.010  0.00  0.00    +0.002 A 
ATOM      8  C   UNL     1       1.168   2.088   0.002  0.00  0.00    +0.012 A 
ATOM      9  C   UNL     1       2.384   1.409  -0.013  0.00  0.00    +0.022 A 
ATOM     10  C   UNL     1       2.398   0.015  -0.021  0.00  0.00    +0.031 A 
ATOM     11  C   UNL     1       1.208  -0.685  -0.013  0.00  0.00    +0.042 A 
ATOM     12  C   UNL     1       0.002  -0.004   0.002  0.00  0.00    +0.020 A 
ATOM     13 CL   UNL     1       1.223  -2.421  -0.023  0.00  0.00    -0.084 Cl
ENDBRANCH   1   9
BRANCH   4  14
ATOM     14  S   UNL     1       7.538   2.355  -0.059  0.00  0.00    -0.077 S 
BRANCH  14  15
ATOM     15  C   UNL     1       7.746   0.553  -0.070  0.00  0.00    +0.175 C 
BRANCH  15  16
ATOM     16  C   UNL     1       9.215   0.217  -0.085  0.00  0.00    +0.227 A 
ATOM     17  N   UNL     1       9.975   0.035   0.957  0.00  0.00    -0.112 NA
ATOM     18  N   UNL     1      11.172  -0.236   0.570  0.00  0.00    -0.112 NA
ATOM     19  C   UNL     1      11.216  -0.236  -0.732  0.00  0.00    +0.220 A 
ATOM     20  O   UNL     1       9.980   0.045  -1.177  0.00  0.00    -0.424 OA
BRANCH  19  21
ATOM     21  C   UNL     1      12.430  -0.507  -1.583  0.00  0.00    +0.077 C 
ATOM     22  C   UNL     1      13.348  -1.603  -1.016  0.00  0.00    +0.013 C 
ATOM     23  C   UNL     1      14.533  -0.728  -1.458  0.00  0.00    +0.001 C 
ATOM     24  C   UNL     1      13.585   0.477  -1.340  0.00  0.00    +0.013 C 
ENDBRANCH  19  21
ENDBRANCH  15  16
ENDBRANCH  14  15
ENDBRANCH   4  14
TORSDOF 5
