REMARK  Name = ZINC02744470
REMARK  7 active torsions:
REMARK  status: ('A' for Active; 'I' for Inactive)
REMARK    1  A    between atoms: C_1  and  C_2
REMARK    2  A    between atoms: C_2  and  C_3
REMARK    3  A    between atoms: C_3  and  C_4
REMARK    4  A    between atoms: C_11  and  N_16
REMARK    5  A    between atoms: C_12  and  C_13
REMARK    6  A    between atoms: C_17  and  C_19
REMARK    7  A    between atoms: C_21  and  N_26
REMARK                            x       y       z     vdW  Elec       q    Type
REMARK                         _______ _______ _______ _____ _____    ______ ____
ROOT
ATOM      1  C   UNL     1      -5.594   4.048   0.430  0.00  0.00    -0.006 C 
ATOM      2  C   UNL     1      -5.935   2.815  -0.412  0.00  0.00    +0.008 C 
ATOM      3  C   UNL     1      -5.079   1.628   0.034  0.00  0.00    +0.037 C 
ATOM      4  C   UNL     1      -3.615   2.050   0.030  0.00  0.00    -0.023 A 
ATOM      5  C   UNL     1      -3.267   3.356   0.036  0.00  0.00    -0.004 A 
ATOM      6  S   UNL     1      -1.497   3.353   0.035  0.00  0.00    -0.077 S 
ATOM      7  C   UNL     1      -1.220   1.642   0.017  0.00  0.00    +0.085 A 
ATOM      8  C   UNL     1      -2.504   1.114   0.020  0.00  0.00    +0.068 A 
ATOM      9  C   UNL     1      -4.189   4.536   0.048  0.00  0.00    +0.046 C 
ENDROOT
BRANCH   8  10
ATOM     10  C   UNL     1      -2.730  -0.334   0.013  0.00  0.00    +0.244 C 
ATOM     11  O   UNL     1      -2.819  -0.942   1.064  0.00  0.00    -0.270 OA
ATOM     12  N   UNL     1      -2.839  -0.994  -1.158  0.00  0.00    -0.325 N 
ATOM     13  H   UNL     1      -2.768  -0.510  -1.995  0.00  0.00    +0.145 HD
ATOM     14  H   UNL     1      -2.989  -1.952  -1.163  0.00  0.00    +0.145 HD
ENDBRANCH   8  10
BRANCH   7  15
ATOM     15  N   UNL     1      -0.011   0.966   0.007  0.00  0.00    -0.275 N 
ATOM     16  C   UNL     1       1.147   1.655   0.000  0.00  0.00    +0.250 C 
ATOM     17  O   UNL     1       1.130   2.871   0.007  0.00  0.00    -0.270 OA
ATOM     18  H   UNL     1       0.002  -0.004   0.002  0.00  0.00    +0.156 HD
BRANCH  16  19
ATOM     19  C   UNL     1       2.436   0.934  -0.016  0.00  0.00    +0.057 A 
ATOM     20  C   UNL     1       2.459  -0.462  -0.024  0.00  0.00    +0.047 A 
ATOM     21  C   UNL     1       3.666  -1.129  -0.039  0.00  0.00    +0.127 A 
ATOM     22  C   UNL     1       4.853  -0.418  -0.047  0.00  0.00    +0.034 A 
ATOM     23  C   UNL     1       4.840   0.965  -0.039  0.00  0.00    +0.023 A 
ATOM     24  C   UNL     1       3.638   1.646  -0.030  0.00  0.00    +0.053 A 
ATOM     25 CL   UNL     1       3.622   3.382  -0.027  0.00  0.00    -0.083 Cl
BRANCH  21  26
ATOM     26  N   UNL     1       3.691  -2.609  -0.047  0.00  0.00    +0.056 N 
ATOM     27  O   UNL     1       2.647  -3.236  -0.041  0.00  0.00    -0.126 OA
ATOM     28  O   UNL     1       4.756  -3.200  -0.060  0.00  0.00    -0.126 OA
ENDBRANCH  21  26
ENDBRANCH  16  19
ENDBRANCH   7  15
BRANCH   1  29
ATOM     29  C   UNL     1      -6.614   5.155   0.154  0.00  0.00    +0.003 C 
BRANCH  29  31
ATOM     30  C   UNL     1      -7.367   7.445   0.809  0.00  0.00    +0.004 C 
ATOM     31  C   UNL     1      -6.347   6.338   1.086  0.00  0.00    -0.003 C 
ENDBRANCH  29  31
ENDBRANCH   1  29
TORSDOF 6
