REMARK  Name = ZINC58997507
REMARK  9 active torsions:
REMARK  status: ('A' for Active; 'I' for Inactive)
REMARK    1  A    between atoms: C_1  and  C_2
REMARK    2  A    between atoms: C_2  and  C_3
REMARK    3  A    between atoms: C_9  and  C_11
REMARK    4  A    between atoms: C_11  and  S_12
REMARK    5  A    between atoms: S_12  and  C_13
REMARK    6  A    between atoms: N_18  and  N_19
REMARK    7  A    between atoms: C_20  and  C_21
REMARK    8  A    between atoms: C_23  and  N_28
REMARK    9  A    between atoms: C_26  and  O_27
REMARK                            x       y       z     vdW  Elec       q    Type
REMARK                         _______ _______ _______ _____ _____    ______ ____
ROOT
ATOM      1  C   UNL     1       5.191  -3.409  -8.529  0.00  0.00    +0.211 A 
ATOM      2  N   UNL     1       6.315  -3.780  -9.130  0.00  0.00    -0.186 NA
ATOM      3  C   UNL     1       6.011  -4.102 -10.384  0.00  0.00    +0.232 A 
ATOM      4  N   UNL     1       4.660  -3.916 -10.534  0.00  0.00    -0.245 N 
ATOM      5  N   UNL     1       4.188  -3.506  -9.407  0.00  0.00    -0.144 NA
ATOM      6  N   UNL     1       6.869  -4.531 -11.332  0.00  0.00    -0.205 N 
ATOM      7  H   UNL     1       6.545  -4.740 -12.222  0.00  0.00    +0.177 HD
ATOM      8  H   UNL     1       4.149  -4.071 -11.344  0.00  0.00    +0.192 HD
ENDROOT
BRANCH   6   9
ATOM      9  N   UNL     1       8.122  -4.662 -11.055  0.00  0.00    -0.187 NA
ATOM     10  C   UNL     1       8.970  -5.085 -11.990  0.00  0.00    +0.142 C 
BRANCH  10  11
ATOM     11  C   UNL     1      10.335  -5.228 -11.688  0.00  0.00    +0.038 A 
ATOM     12  C   UNL     1      11.248  -5.670 -12.672  0.00  0.00    +0.045 A 
ATOM     13  C   UNL     1      12.566  -5.803 -12.364  0.00  0.00    +0.127 A 
ATOM     14  C   UNL     1      13.041  -5.510 -11.089  0.00  0.00    +0.036 A 
ATOM     15  C   UNL     1      12.194  -5.075 -10.090  0.00  0.00    +0.048 A 
ATOM     16  C   UNL     1      10.840  -4.915 -10.349  0.00  0.00    +0.126 A 
BRANCH  13  17
ATOM     17  N   UNL     1      13.512  -6.267 -13.403  0.00  0.00    +0.056 N 
ATOM     18  O   UNL     1      13.075  -6.548 -14.613  0.00  0.00    -0.126 OA
ATOM     19  O   UNL     1      14.791  -6.400 -13.118  0.00  0.00    -0.126 OA
ENDBRANCH  13  17
BRANCH  16  20
ATOM     20  O   UNL     1      10.000  -4.484  -9.380  0.00  0.00    -0.506 OA
ATOM     21  H   UNL     1       9.614  -5.194  -8.849  0.00  0.00    +0.292 HD
ENDBRANCH  16  20
ENDBRANCH  10  11
ENDBRANCH   6   9
BRANCH   1  22
ATOM     22  S   UNL     1       5.044  -2.884  -6.854  0.00  0.00    -0.075 S 
BRANCH  22  23
ATOM     23  C   UNL     1       3.275  -2.533  -6.657  0.00  0.00    +0.173 C 
BRANCH  23  30
ATOM     24  C   UNL     1       0.707  -0.490  -1.238  0.00  0.00    +0.103 A 
ATOM     25  N   UNL     1       1.983  -0.759  -1.434  0.00  0.00    -0.145 NA
ATOM     26  N   UNL     1       2.358  -1.161  -2.572  0.00  0.00    -0.126 NA
ATOM     27  C   UNL     1       1.510  -1.319  -3.570  0.00  0.00    +0.188 A 
ATOM     28  S   UNL     1       0.050  -0.872  -2.855  0.00  0.00    -0.035 S 
ATOM     29  N   UNL     1       1.756  -1.748  -4.870  0.00  0.00    -0.263 N 
ATOM     30  C   UNL     1       3.009  -2.068  -5.248  0.00  0.00    +0.229 C 
ATOM     31  O   UNL     1       3.923  -1.982  -4.455  0.00  0.00    -0.275 OA
ATOM     32  H   UNL     1       1.025  -1.817  -5.504  0.00  0.00    +0.157 HD
BRANCH  24  34
ATOM     33  C   UNL     1      -0.019   1.526   0.010  0.00  0.00    +0.011 C 
ATOM     34  C   UNL     1       0.002  -0.004   0.002  0.00  0.00    +0.061 C 
ENDBRANCH  24  34
ENDBRANCH  23  30
ENDBRANCH  22  23
ENDBRANCH   1  22
TORSDOF 8
