REMARK  Name = ZINC63806986
REMARK  7 active torsions:
REMARK  status: ('A' for Active; 'I' for Inactive)
REMARK    1  A    between atoms: C_1  and  C_2
REMARK    2  A    between atoms: C_2  and  C_3
REMARK    3  A    between atoms: C_2  and  C_4
REMARK    4  A    between atoms: C_4  and  C_5
REMARK    5  A    between atoms: C_7  and  C_11
REMARK    6  A    between atoms: C_15  and  C_20
REMARK    7  A    between atoms: C_20  and  C_21
REMARK                            x       y       z     vdW  Elec       q    Type
REMARK                         _______ _______ _______ _____ _____    ______ ____
ROOT
ATOM      1  C   UNL     1      -4.311  -0.743  -3.720  0.00  0.00    +0.182 C 
ATOM      2  N   UNL     1      -5.034   0.016  -4.775  0.00  0.00    -0.265 N 
ATOM      3  N   UNL     1      -4.747  -0.359  -6.053  0.00  0.00    -0.224 N 
ATOM      4  C   UNL     1      -4.844   0.190  -7.320  0.00  0.00    +0.156 A 
ATOM      5  N   UNL     1      -4.440  -0.701  -8.176  0.00  0.00    -0.132 NA
ATOM      6  N   UNL     1      -4.077  -1.771  -7.561  0.00  0.00    -0.121 NA
ATOM      7  C   UNL     1      -4.225  -1.606  -6.284  0.00  0.00    +0.210 A 
ATOM      8  S   UNL     1      -4.023  -2.306  -4.657  0.00  0.00    -0.058 S 
ATOM      9  H   UNL     1      -6.030   0.006  -4.610  0.00  0.00    +0.168 HD
ENDROOT
BRANCH   1  12
ATOM     10  C   UNL     1      -2.125  -0.137  -1.266  0.00  0.00    +0.062 C 
ATOM     11  C   UNL     1      -2.218  -0.912  -2.349  0.00  0.00    +0.029 C 
ATOM     12  C   UNL     1      -2.994  -0.063  -3.340  0.00  0.00    +0.185 C 
ATOM     13  N   UNL     1      -3.242   1.179  -2.589  0.00  0.00    -0.177 NA
ATOM     14  N   UNL     1      -2.740   1.049  -1.470  0.00  0.00    -0.159 NA
BRANCH  10  15
ATOM     15  C   UNL     1      -1.433  -0.534   0.013  0.00  0.00    +0.060 C 
BRANCH  15  17
ATOM     16  C   UNL     1      -0.019   1.526   0.010  0.00  0.00    +0.007 C 
ATOM     17  C   UNL     1       0.002  -0.004   0.002  0.00  0.00    -0.011 C 
ATOM     18  C   UNL     1       0.742  -0.511   1.242  0.00  0.00    +0.007 C 
ENDBRANCH  15  17
ENDBRANCH  10  15
ENDBRANCH   1  12
BRANCH   4  19
ATOM     19  C   UNL     1      -5.333   1.577  -7.649  0.00  0.00    +0.113 C 
BRANCH  19  20
ATOM     20  C   UNL     1      -4.169   2.534  -7.646  0.00  0.00    -0.040 A 
ATOM     21  C   UNL     1      -3.810   3.182  -6.478  0.00  0.00    +0.007 A 
ATOM     22  C   UNL     1      -2.743   4.059  -6.474  0.00  0.00    +0.038 A 
ATOM     23  C   UNL     1      -2.032   4.289  -7.640  0.00  0.00    +0.123 A 
ATOM     24  C   UNL     1      -2.392   3.640  -8.809  0.00  0.00    +0.038 A 
ATOM     25  C   UNL     1      -3.457   2.759  -8.809  0.00  0.00    +0.007 A 
ATOM     26  F   UNL     1      -0.988   5.147  -7.637  0.00  0.00    -0.205 F 
ENDBRANCH  19  20
ENDBRANCH   4  19
TORSDOF 5
