REMARK  Name = ZINC10419904
REMARK  8 active torsions:
REMARK  status: ('A' for Active; 'I' for Inactive)
REMARK    1  A    between atoms: C_1  and  C_2
REMARK    2  A    between atoms: C_2  and  C_3
REMARK    3  A    between atoms: C_6  and  C_15
REMARK    4  A    between atoms: C_13  and  O_14
REMARK    5  A    between atoms: C_15  and  S_16
REMARK    6  A    between atoms: S_16  and  C_17
REMARK    7  A    between atoms: C_20  and  C_23
REMARK    8  A    between atoms: N_21  and  N_22
REMARK                            x       y       z     vdW  Elec       q    Type
REMARK                         _______ _______ _______ _____ _____    ______ ____
ROOT
ATOM      1  C   UNL     1       3.976   2.709  -0.049  0.00  0.00    +0.113 C 
ENDROOT
BRANCH   1   5
ATOM      2  C   UNL     1       6.505   2.948   3.451  0.00  0.00    -0.005 A 
ATOM      3  C   UNL     1       5.715   2.875   2.341  0.00  0.00    +0.019 A 
ATOM      4  C   UNL     1       6.259   3.145   1.081  0.00  0.00    +0.022 A 
ATOM      5  C   UNL     1       5.435   3.075  -0.128  0.00  0.00    -0.020 A 
ATOM      6  C   UNL     1       6.021   3.355  -1.321  0.00  0.00    +0.097 A 
ATOM      7  C   UNL     1       7.389   3.695  -1.368  0.00  0.00    +0.338 A 
ATOM      8  O   UNL     1       7.902   3.943  -2.445  0.00  0.00    -0.245 OA
ATOM      9  O   UNL     1       8.140   3.752  -0.258  0.00  0.00    -0.422 OA
ATOM     10  C   UNL     1       7.620   3.486   0.960  0.00  0.00    +0.143 A 
ATOM     11  C   UNL     1       8.409   3.551   2.097  0.00  0.00    +0.092 A 
ATOM     12  C   UNL     1       7.851   3.290   3.338  0.00  0.00    +0.124 A 
BRANCH   2  14
ATOM     13  C   UNL     1       6.280   1.228   5.224  0.00  0.00    +0.009 C 
ATOM     14  C   UNL     1       5.918   2.656   4.809  0.00  0.00    +0.035 C 
ENDBRANCH   2  14
BRANCH  12  15
ATOM     15  O   UNL     1       8.624   3.358   4.452  0.00  0.00    -0.506 OA
ATOM     16  H   UNL     1       9.057   2.524   4.682  0.00  0.00    +0.292 HD
ENDBRANCH  12  15
ENDBRANCH   1   5
BRANCH   1  17
ATOM     17  S   UNL     1       3.794   0.915  -0.205  0.00  0.00    -0.080 S 
BRANCH  17  18
ATOM     18  C   UNL     1       2.042   0.773  -0.083  0.00  0.00    +0.209 A 
ATOM     19  N   UNL     1       1.189   1.760   0.077  0.00  0.00    -0.121 NA
ATOM     20  N   UNL     1      -0.011   1.303   0.127  0.00  0.00    -0.127 NA
ATOM     21  C   UNL     1       0.002  -0.004   0.002  0.00  0.00    +0.184 A 
ATOM     22  N   UNL     1       1.317  -0.384  -0.136  0.00  0.00    -0.224 N 
BRANCH  21  23
ATOM     23  C   UNL     1      -1.175  -0.899   0.008  0.00  0.00    +0.056 A 
ATOM     24  C   UNL     1      -1.166  -2.063   0.777  0.00  0.00    +0.014 A 
ATOM     25  C   UNL     1      -2.267  -2.894   0.778  0.00  0.00    +0.001 A 
ATOM     26  C   UNL     1      -3.380  -2.576   0.019  0.00  0.00    +0.003 A 
ATOM     27  C   UNL     1      -3.397  -1.424  -0.746  0.00  0.00    +0.039 A 
ATOM     28  C   UNL     1      -2.303  -0.580  -0.753  0.00  0.00    +0.134 A 
ATOM     29  F   UNL     1      -2.322   0.548  -1.496  0.00  0.00    -0.205 F 
ENDBRANCH  21  23
BRANCH  22  30
ATOM     30  N   UNL     1       1.798  -1.652  -0.295  0.00  0.00    -0.295 N 
ATOM     31  H   UNL     1       1.853  -1.899  -1.272  0.00  0.00    +0.163 HD
ATOM     32  H   UNL     1       2.695  -1.758   0.155  0.00  0.00    +0.163 HD
ENDBRANCH  22  30
ENDBRANCH  17  18
ENDBRANCH   1  17
TORSDOF 7
