REMARK  Name = ZINC37130623
REMARK  10 active torsions:
REMARK  status: ('A' for Active; 'I' for Inactive)
REMARK    1  A    between atoms: C_1  and  C_2
REMARK    2  A    between atoms: C_5  and  N_10
REMARK    3  A    between atoms: C_6  and  C_9
REMARK    4  A    between atoms: C_7  and  O_8
REMARK    5  A    between atoms: N_10  and  C_11
REMARK    6  A    between atoms: C_11  and  C_12
REMARK    7  A    between atoms: C_13  and  O_20
REMARK    8  A    between atoms: N_17  and  C_18
REMARK    9  A    between atoms: N_17  and  C_19
REMARK   10  A    between atoms: O_20  and  C_21
REMARK                            x       y       z     vdW  Elec       q    Type
REMARK                         _______ _______ _______ _____ _____    ______ ____
ROOT
ATOM      1  N   UNL     1       0.059  -4.171  -0.026  0.00  0.00    -0.339 N 
ATOM      2  H   UNL     1       0.070  -4.663   0.810  0.00  0.00    +0.146 HD
ENDROOT
BRANCH   1   7
ATOM      3  C   UNL     1      -0.018   1.503   0.010  0.00  0.00    +0.047 C 
ATOM      4  C   UNL     1       0.002  -0.004   0.002  0.00  0.00    -0.009 A 
ATOM      5  C   UNL     1       0.006  -0.688  -1.199  0.00  0.00    +0.009 A 
ATOM      6  C   UNL     1       0.025  -2.069  -1.211  0.00  0.00    +0.024 A 
ATOM      7  C   UNL     1       0.041  -2.774  -0.014  0.00  0.00    +0.034 A 
ATOM      8  C   UNL     1       0.037  -2.089   1.193  0.00  0.00    +0.012 A 
ATOM      9  C   UNL     1       0.023  -0.703   1.200  0.00  0.00    +0.124 A 
ATOM     10  C   UNL     1       0.054  -2.851   2.493  0.00  0.00    +0.049 C 
BRANCH   9  11
ATOM     11  O   UNL     1       0.025  -0.030   2.381  0.00  0.00    -0.506 OA
ATOM     12  H   UNL     1      -0.858   0.153   2.731  0.00  0.00    +0.292 HD
ENDBRANCH   9  11
ENDBRANCH   1   7
BRANCH   1  13
ATOM     13  C   UNL     1       0.063  -4.893  -1.300  0.00  0.00    +0.149 C 
BRANCH  13  14
ATOM     14  C   UNL     1       0.084  -6.376  -1.038  0.00  0.00    +0.071 A 
ATOM     15  C   UNL     1      -0.950  -7.244  -0.887  0.00  0.00    +0.228 A 
ATOM     16  N   UNL     1      -0.641  -8.511  -0.662  0.00  0.00    -0.190 NA
ATOM     17  C   UNL     1       0.615  -8.901  -0.590  0.00  0.00    +0.164 A 
ATOM     18  S   UNL     1       1.476  -7.478  -0.846  0.00  0.00    -0.052 S 
ATOM     19  N   UNL     1       1.107 -10.176  -0.362  0.00  0.00    -0.316 N 
ATOM     20  C   UNL     1       0.182 -11.295  -0.166  0.00  0.00    +0.131 C 
ATOM     21  C   UNL     1       2.554 -10.406  -0.317  0.00  0.00    +0.131 C 
BRANCH  15  22
ATOM     22  O   UNL     1      -2.244  -6.829  -0.963  0.00  0.00    -0.479 OA
ATOM     23  C   UNL     1      -3.255  -7.824  -0.789  0.00  0.00    +0.279 C 
ENDBRANCH  15  22
ENDBRANCH  13  14
ENDBRANCH   1  13
TORSDOF 5
