REMARK  Name = ZINC39265027
REMARK  0 active torsions:
REMARK  status: ('A' for Active; 'I' for Inactive)
REMARK                            x       y       z     vdW  Elec       q    Type
REMARK                         _______ _______ _______ _____ _____    ______ ____
ROOT
ATOM      1  C   UNL     1      -0.017   1.378   0.019  0.00  0.00    +0.000 A 
ATOM      2  C   UNL     1       1.174   2.082   0.013  0.00  0.00    +0.002 A 
ATOM      3  C   UNL     1       2.377   1.411  -0.006  0.00  0.00    +0.024 A 
ATOM      4  C   UNL     1       2.404   0.014  -0.018  0.00  0.00    +0.038 A 
ATOM      5  C   UNL     1       1.206  -0.682  -0.011  0.00  0.00    -0.025 A 
ATOM      6  C   UNL     1       0.002  -0.004   0.007  0.00  0.00    +0.005 A 
ATOM      7  C   UNL     1       1.510  -2.163  -0.026  0.00  0.00    +0.056 C 
ATOM      8  C   UNL     1       3.046  -2.242  -0.043  0.00  0.00    +0.117 C 
ATOM      9  N   UNL     1       3.502  -0.850  -0.036  0.00  0.00    -0.286 N 
ATOM     10  C   UNL     1       4.805  -0.456  -0.047  0.00  0.00    +0.138 C 
ATOM     11  N   UNL     1       5.100   0.812  -0.142  0.00  0.00    -0.201 NA
ATOM     12  C   UNL     1       6.354   1.321  -0.221  0.00  0.00    +0.215 C 
ATOM     13  N   UNL     1       7.462   0.459  -0.141  0.00  0.00    -0.270 N 
ATOM     14  C   UNL     1       7.151  -0.816  -0.521  0.00  0.00    +0.135 C 
ATOM     15  N   UNL     1       7.651  -1.673  -1.337  0.00  0.00    -0.223 NA
ATOM     16  C   UNL     1       6.788  -2.673  -1.588  0.00  0.00    +0.218 C 
ATOM     17  N   UNL     1       5.720  -2.625  -0.845  0.00  0.00    -0.254 NA
ATOM     18  C   UNL     1       5.898  -1.482   0.057  0.00  0.00    +0.234 C 
ATOM     19  N   UNL     1       6.532   2.606  -0.371  0.00  0.00    -0.268 NA
ATOM     20  H   UNL     1       7.430   2.968  -0.427  0.00  0.00    +0.190 HD
ATOM     21  H   UNL     1       8.344   0.738   0.150  0.00  0.00    +0.156 HD
ENDROOT
TORSDOF 0
