REMARK  Name = ZINC57825813
REMARK  3 active torsions:
REMARK  status: ('A' for Active; 'I' for Inactive)
REMARK    1  A    between atoms: C_6  and  C_7
REMARK    2  A    between atoms: C_8  and  C_9
REMARK    3  A    between atoms: C_15  and  N_19
REMARK                            x       y       z     vdW  Elec       q    Type
REMARK                         _______ _______ _______ _____ _____    ______ ____
ROOT
ATOM      1  C   UNL     1      -2.498  -2.860   0.011  0.00  0.00    +0.132 A 
ATOM      2  N   UNL     1      -2.600  -4.228   0.011  0.00  0.00    -0.338 N 
ATOM      3  H   UNL     1      -1.864  -4.861   0.005  0.00  0.00    +0.167 HD
ATOM      4  C   UNL     1      -3.946  -4.537   0.020  0.00  0.00    +0.067 A 
ATOM      5  C   UNL     1      -4.661  -5.726   0.024  0.00  0.00    +0.030 A 
ATOM      6  C   UNL     1      -6.040  -5.696   0.033  0.00  0.00    +0.035 A 
ATOM      7  C   UNL     1      -6.717  -4.484   0.040  0.00  0.00    +0.128 A 
ATOM      8  C   UNL     1      -6.032  -3.303   0.036  0.00  0.00    +0.062 A 
ATOM      9  C   UNL     1      -4.632  -3.308   0.027  0.00  0.00    +0.092 A 
ATOM     10  N   UNL     1      -3.699  -2.327   0.027  0.00  0.00    -0.228 NA
ENDROOT
BRANCH   7  11
ATOM     11  N   UNL     1      -8.197  -4.472   0.049  0.00  0.00    +0.056 N 
ATOM     12  O   UNL     1      -8.810  -5.514   0.052  0.00  0.00    -0.126 OA
ATOM     13  O   UNL     1      -8.793  -3.420   0.055  0.00  0.00    -0.126 OA
ENDBRANCH   7  11
BRANCH   1  15
ATOM     14  C   UNL     1      -1.261  -0.760   0.011  0.00  0.00    +0.011 C 
ATOM     15  C   UNL     1      -1.240  -2.107   0.003  0.00  0.00    +0.047 C 
BRANCH  14  21
ATOM     16  C   UNL     1      -0.017   1.394   0.010  0.00  0.00    +0.011 A 
ATOM     17  C   UNL     1       1.169   2.097   0.002  0.00  0.00    +0.042 A 
ATOM     18  C   UNL     1       2.379   1.422  -0.013  0.00  0.00    +0.158 A 
ATOM     19  C   UNL     1       2.406   0.034  -0.021  0.00  0.00    +0.159 A 
ATOM     20  C   UNL     1       1.226  -0.681  -0.014  0.00  0.00    +0.049 A 
ATOM     21  C   UNL     1       0.002  -0.004   0.002  0.00  0.00    -0.022 A 
ATOM     22  F   UNL     1       3.589  -0.618  -0.035  0.00  0.00    -0.202 F 
ATOM     23  F   UNL     1       3.537   2.118  -0.021  0.00  0.00    -0.202 F 
ENDBRANCH  14  21
ENDBRANCH   1  15
TORSDOF 3
