REMARK  Name = ZINC05997455
REMARK  4 active torsions:
REMARK  status: ('A' for Active; 'I' for Inactive)
REMARK    1  A    between atoms: C_1  and  S_2
REMARK    2  A    between atoms: S_2  and  C_3
REMARK    3  A    between atoms: C_6  and  C_9
REMARK    4  A    between atoms: N_15  and  C_18
REMARK                            x       y       z     vdW  Elec       q    Type
REMARK                         _______ _______ _______ _____ _____    ______ ____
ROOT
ATOM      1  C   UNL     1       2.901  -1.397  -5.106  0.00  0.00    +0.092 C 
ATOM      2  C   UNL     1       1.996  -2.207  -5.991  0.00  0.00    +0.070 A 
ATOM      3  C   UNL     1       2.166  -3.555  -6.180  0.00  0.00    +0.125 A 
ATOM      4  N   UNL     1       1.190  -3.992  -7.023  0.00  0.00    -0.277 N 
ATOM      5  H   UNL     1       1.066  -4.904  -7.329  0.00  0.00    +0.189 HD
ATOM      6  N   UNL     1       0.396  -2.888  -7.371  0.00  0.00    -0.218 N 
ATOM      7  C   UNL     1       0.891  -1.800  -6.739  0.00  0.00    +0.278 A 
ATOM      8  O   UNL     1       0.450  -0.666  -6.811  0.00  0.00    -0.265 OA
ATOM      9  N   UNL     1       3.189  -4.241  -5.571  0.00  0.00    -0.303 N 
ATOM     10  C   UNL     1       4.225  -3.526  -5.016  0.00  0.00    +0.017 C 
ATOM     11  C   UNL     1       4.141  -2.202  -4.779  0.00  0.00    +0.024 C 
ATOM     12  C   UNL     1       5.220  -1.500  -4.206  0.00  0.00    +0.162 C 
ATOM     13  O   UNL     1       5.121  -0.303  -4.026  0.00  0.00    -0.292 OA
ATOM     14  C   UNL     1       6.491  -2.199  -3.813  0.00  0.00    +0.080 C 
ATOM     15  C   UNL     1       6.169  -3.658  -3.472  0.00  0.00    +0.014 C 
ATOM     16  C   UNL     1       5.484  -4.293  -4.682  0.00  0.00    +0.051 C 
ATOM     17  H   UNL     1       3.180  -5.211  -5.533  0.00  0.00    +0.153 HD
ENDROOT
BRANCH   1  21
ATOM     18  C   UNL     1       0.848  -0.411  -1.489  0.00  0.00    +0.008 A 
ATOM     19  C   UNL     1       1.315   0.599  -2.322  0.00  0.00    +0.015 A 
ATOM     20  C   UNL     1       1.978   0.276  -3.490  0.00  0.00    +0.005 A 
ATOM     21  C   UNL     1       2.178  -1.049  -3.830  0.00  0.00    -0.035 A 
ATOM     22  C   UNL     1       1.714  -2.056  -3.004  0.00  0.00    +0.005 A 
ATOM     23  C   UNL     1       1.056  -1.742  -1.831  0.00  0.00    +0.015 A 
BRANCH  18  25
ATOM     24  C   UNL     1      -0.022   1.810   0.012  0.00  0.00    +0.090 C 
ATOM     25  S   UNL     1       0.002  -0.004   0.002  0.00  0.00    -0.129 S 
ENDBRANCH  18  25
ENDBRANCH   1  21
BRANCH   6  26
ATOM     26  C   UNL     1      -0.714  -2.909  -8.221  0.00  0.00    +0.067 A 
ATOM     27  C   UNL     1      -1.411  -1.737  -8.486  0.00  0.00    +0.028 A 
ATOM     28  C   UNL     1      -2.507  -1.762  -9.327  0.00  0.00    +0.002 A 
ATOM     29  C   UNL     1      -2.910  -2.952  -9.904  0.00  0.00    +0.000 A 
ATOM     30  C   UNL     1      -2.219  -4.121  -9.642  0.00  0.00    +0.002 A 
ATOM     31  C   UNL     1      -1.119  -4.102  -8.807  0.00  0.00    +0.028 A 
ENDBRANCH   6  26
TORSDOF 3
