REMARK  Name = ZINC39676560
REMARK  12 active torsions:
REMARK  status: ('A' for Active; 'I' for Inactive)
REMARK    1  A    between atoms: C_1  and  C_2
REMARK    2  A    between atoms: C_2  and  C_3
REMARK    3  A    between atoms: C_3  and  C_5
REMARK    4  A    between atoms: C_3  and  C_6
REMARK    5  A    between atoms: C_10  and  C_19
REMARK    6  A    between atoms: N_21  and  C_22
REMARK    7  A    between atoms: C_22  and  C_23
REMARK    8  A    between atoms: C_22  and  C_31
REMARK    9  A    between atoms: C_26  and  O_29
REMARK   10  A    between atoms: O_29  and  C_30
REMARK   11  A    between atoms: C_34  and  O_37
REMARK   12  A    between atoms: O_37  and  C_38
REMARK                            x       y       z     vdW  Elec       q    Type
REMARK                         _______ _______ _______ _____ _____    ______ ____
ROOT
ATOM      1  C   UNL     1      -4.129  -2.685  -2.543  0.00  0.00    +0.219 C 
ATOM      2  O   UNL     1      -3.142  -2.028  -2.799  0.00  0.00    -0.275 OA
ATOM      3  N   UNL     1      -4.935  -3.107  -3.537  0.00  0.00    -0.304 N 
ATOM      4  H   UNL     1      -5.724  -3.632  -3.332  0.00  0.00    +0.150 HD
ENDROOT
BRANCH   1   9
ATOM      5  C   UNL     1      -1.374  -1.930   0.442  0.00  0.00    +0.218 C 
ATOM      6  O   UNL     1      -0.371  -2.566   0.690  0.00  0.00    -0.275 OA
ATOM      7  N   UNL     1      -2.548  -2.567   0.264  0.00  0.00    -0.300 N 
ATOM      8  C   UNL     1      -3.844  -1.982  -0.154  0.00  0.00    +0.121 C 
ATOM      9  C   UNL     1      -4.454  -3.030  -1.112  0.00  0.00    +0.100 C 
ATOM     10  C   UNL     1      -3.790  -4.358  -0.715  0.00  0.00    -0.004 C 
ATOM     11  C   UNL     1      -2.834  -4.011   0.436  0.00  0.00    +0.115 C 
ATOM     12  C   UNL     1      -3.004  -4.929  -1.891  0.00  0.00    -0.010 C 
ATOM     13  C   UNL     1      -2.400  -6.278  -1.490  0.00  0.00    -0.082 C 
ATOM     14  N   UNL     1      -3.474  -7.200  -1.099  0.00  0.00    +0.379 N 
ATOM     15  C   UNL     1      -4.165  -6.688   0.090  0.00  0.00    -0.082 C 
ATOM     16  C   UNL     1      -4.843  -5.356  -0.244  0.00  0.00    -0.010 C 
ATOM     17  H   UNL     1      -4.133  -7.287  -1.858  0.00  0.00    -0.086 HD
ATOM     18  H   UNL     1      -3.079  -8.105  -0.894  0.00  0.00    -0.086 HD
BRANCH   5  19
ATOM     19  C   UNL     1      -1.306  -0.429   0.334  0.00  0.00    +0.072 C 
ATOM     20  C   UNL     1       0.038  -0.021  -0.272  0.00  0.00    +0.017 C 
BRANCH  19  22
ATOM     21  C   UNL     1      -1.504   1.714   1.603  0.00  0.00    +0.004 C 
ATOM     22  C   UNL     1      -1.448   0.190   1.726  0.00  0.00    +0.009 C 
ENDBRANCH  19  22
ENDBRANCH   5  19
ENDBRANCH   1   9
BRANCH   3  23
ATOM     23  C   UNL     1      -4.619  -2.772  -4.928  0.00  0.00    +0.134 C 
BRANCH  23  24
ATOM     24  C   UNL     1      -5.236  -3.796  -5.844  0.00  0.00    -0.023 A 
ATOM     25  C   UNL     1      -6.505  -4.279  -5.584  0.00  0.00    +0.009 A 
ATOM     26  C   UNL     1      -7.074  -5.219  -6.422  0.00  0.00    +0.046 A 
ATOM     27  C   UNL     1      -6.370  -5.677  -7.527  0.00  0.00    +0.120 A 
ATOM     28  C   UNL     1      -5.097  -5.190  -7.786  0.00  0.00    +0.046 A 
ATOM     29  C   UNL     1      -4.535  -4.247  -6.948  0.00  0.00    +0.009 A 
BRANCH  27  30
ATOM     30  O   UNL     1      -6.927  -6.602  -8.352  0.00  0.00    -0.495 OA
ATOM     31  C   UNL     1      -6.145  -7.028  -9.470  0.00  0.00    +0.277 C 
ENDBRANCH  27  30
ENDBRANCH  23  24
BRANCH  23  32
ATOM     32  C   UNL     1      -5.171  -1.408  -5.254  0.00  0.00    -0.023 A 
ATOM     33  C   UNL     1      -6.412  -1.033  -4.773  0.00  0.00    +0.009 A 
ATOM     34  C   UNL     1      -6.920   0.217  -5.071  0.00  0.00    +0.046 A 
ATOM     35  C   UNL     1      -6.185   1.095  -5.853  0.00  0.00    +0.120 A 
ATOM     36  C   UNL     1      -4.940   0.717  -6.334  0.00  0.00    +0.046 A 
ATOM     37  C   UNL     1      -4.434  -0.532  -6.029  0.00  0.00    +0.009 A 
BRANCH  35  38
ATOM     38  O   UNL     1      -6.684   2.325  -6.148  0.00  0.00    -0.495 OA
ATOM     39  C   UNL     1      -5.872   3.177  -6.958  0.00  0.00    +0.277 C 
ENDBRANCH  35  38
ENDBRANCH  23  32
ENDBRANCH   3  23
TORSDOF 8
