REMARK  Name = ZINC58019005
REMARK  8 active torsions:
REMARK  status: ('A' for Active; 'I' for Inactive)
REMARK    1  A    between atoms: C_1  and  C_2
REMARK    2  A    between atoms: C_2  and  C_3
REMARK    3  A    between atoms: N_9  and  C_10
REMARK    4  A    between atoms: C_10  and  C_11
REMARK    5  A    between atoms: N_13  and  N_14
REMARK    6  A    between atoms: C_17  and  C_21
REMARK    7  A    between atoms: C_17  and  C_23
REMARK    8  A    between atoms: C_21  and  C_22
REMARK                            x       y       z     vdW  Elec       q    Type
REMARK                         _______ _______ _______ _____ _____    ______ ____
ROOT
ATOM      1  N   UNL     1      -2.820   3.727   4.220  0.00  0.00    -0.137 N 
ATOM      2  C   UNL     1      -3.986   4.367   4.440  0.00  0.00    +0.268 C 
ATOM      3  O   UNL     1      -4.825   4.664   3.618  0.00  0.00    -0.271 OA
ATOM      4  C   UNL     1      -4.030   4.636   5.931  0.00  0.00    +0.139 C 
ATOM      5  N   UNL     1      -2.765   4.063   6.424  0.00  0.00    -0.280 N 
ATOM      6  C   UNL     1      -2.131   3.553   5.353  0.00  0.00    +0.327 C 
ATOM      7  O   UNL     1      -1.051   2.998   5.408  0.00  0.00    -0.251 OA
ATOM      8  H   UNL     1      -2.452   4.053   7.342  0.00  0.00    +0.152 HD
ENDROOT
BRANCH   4   9
ATOM      9  C   UNL     1      -5.208   3.938   6.562  0.00  0.00    -0.015 A 
ATOM     10  C   UNL     1      -6.423   4.590   6.664  0.00  0.00    +0.006 A 
ATOM     11  C   UNL     1      -7.504   3.951   7.242  0.00  0.00    +0.000 A 
ATOM     12  C   UNL     1      -7.370   2.660   7.717  0.00  0.00    +0.000 A 
ATOM     13  C   UNL     1      -6.155   2.008   7.614  0.00  0.00    +0.000 A 
ATOM     14  C   UNL     1      -5.076   2.646   7.032  0.00  0.00    +0.006 A 
ENDBRANCH   4   9
BRANCH   1  17
ATOM     15  C   UNL     1      -2.443   1.986   2.641  0.00  0.00    +0.213 C 
ATOM     16  O   UNL     1      -2.869   1.184   3.444  0.00  0.00    -0.276 OA
ATOM     17  N   UNL     1      -2.386   3.294   2.960  0.00  0.00    -0.225 N 
ATOM     18  H   UNL     1      -2.046   3.936   2.317  0.00  0.00    +0.173 HD
BRANCH  15  19
ATOM     19  C   UNL     1      -1.976   1.520   1.286  0.00  0.00    +0.020 C 
BRANCH  19  25
ATOM     20  C   UNL     1      -1.534  -0.410  -0.065  0.00  0.00    -0.068 C 
ATOM     21  C   UNL     1      -1.629  -1.936  -0.135  0.00  0.00    -0.015 C 
ATOM     22  C   UNL     1      -3.102  -2.353  -0.088  0.00  0.00    -0.003 C 
ATOM     23  C   UNL     1      -3.741  -1.790   1.185  0.00  0.00    -0.019 C 
ATOM     24  C   UNL     1      -3.568  -0.270   1.206  0.00  0.00    -0.078 C 
ATOM     25  N   UNL     1      -2.139   0.063   1.186  0.00  0.00    +0.387 N 
ATOM     26  H   UNL     1      -1.680  -0.379   1.969  0.00  0.00    -0.081 HD
BRANCH  20  28
ATOM     27  C   UNL     1       0.537  -0.386  -1.461  0.00  0.00    +0.002 C 
ATOM     28  C   UNL     1      -0.065   0.011  -0.112  0.00  0.00    -0.019 C 
ENDBRANCH  20  28
ENDBRANCH  19  25
ENDBRANCH  15  19
ENDBRANCH   1  17
BRANCH   4  29
ATOM     29  C   UNL     1      -4.083   6.140   6.206  0.00  0.00    +0.037 C 
ATOM     30  C   UNL     1      -2.848   6.812   5.603  0.00  0.00    +0.007 C 
ENDBRANCH   4  29
TORSDOF 6
