REMARK  Name = ZINC51148877
REMARK  5 active torsions:
REMARK  status: ('A' for Active; 'I' for Inactive)
REMARK    1  A    between atoms: C_1  and  C_2
REMARK    2  A    between atoms: C_7  and  O_8
REMARK    3  A    between atoms: O_8  and  C_9
REMARK    4  A    between atoms: C_9  and  C_10
REMARK    5  A    between atoms: N_19  and  N_20
REMARK                            x       y       z     vdW  Elec       q    Type
REMARK                         _______ _______ _______ _____ _____    ______ ____
ROOT
ATOM      1  C   UNL     1       0.047   0.090   4.775  0.00  0.00    +0.170 A 
ATOM      2  N   UNL     1       1.199   0.500   5.276  0.00  0.00    -0.212 NA
ATOM      3  C   UNL     1       1.266   1.299   6.328  0.00  0.00    +0.144 A 
ATOM      4  C   UNL     1       0.060   1.734   6.946  0.00  0.00    +0.049 A 
ATOM      5  C   UNL     1      -0.134   2.600   8.095  0.00  0.00    +0.021 A 
ATOM      6  C   UNL     1      -1.381   2.877   8.503  0.00  0.00    +0.048 A 
ATOM      7  S   UNL     1      -2.405   1.978   7.353  0.00  0.00    -0.077 S 
ATOM      8  C   UNL     1      -1.129   1.255   6.355  0.00  0.00    +0.114 A 
ATOM      9  N   UNL     1      -1.103   0.464   5.300  0.00  0.00    -0.221 NA
ATOM     10  N   UNL     1       2.492   1.705   6.822  0.00  0.00    -0.267 N 
ATOM     11  H   UNL     1       2.534   2.291   7.595  0.00  0.00    +0.167 HD
ENDROOT
BRANCH  10  12
ATOM     12  N   UNL     1       3.644   1.281   6.223  0.00  0.00    -0.255 NA
ATOM     13  H   UNL     1       4.455   1.657   6.692  0.00  0.00    +0.140 HD
ATOM     14  H   UNL     1       3.683   0.273   6.186  0.00  0.00    +0.140 HD
ENDBRANCH  10  12
BRANCH   1  15
ATOM     15  C   UNL     1       0.048  -0.820   3.574  0.00  0.00    +0.305 C 
BRANCH  15  16
ATOM     16  O   UNL     1       0.025  -0.033   2.381  0.00  0.00    -0.484 OA
BRANCH  16  23
ATOM     17  C   UNL     1      -0.018   1.503   0.010  0.00  0.00    +0.047 C 
ATOM     18  C   UNL     1       0.002  -0.004   0.002  0.00  0.00    -0.009 A 
ATOM     19  C   UNL     1       0.006  -0.689  -1.198  0.00  0.00    +0.007 A 
ATOM     20  C   UNL     1       0.024  -2.071  -1.206  0.00  0.00    +0.000 A 
ATOM     21  C   UNL     1       0.039  -2.772  -0.014  0.00  0.00    +0.004 A 
ATOM     22  C   UNL     1       0.036  -2.092   1.188  0.00  0.00    +0.046 A 
ATOM     23  C   UNL     1       0.023  -0.705   1.199  0.00  0.00    +0.124 A 
ENDBRANCH  16  23
ENDBRANCH  15  16
ENDBRANCH   1  15
TORSDOF 4
