REMARK  Name = ZINC08770428
REMARK  9 active torsions:
REMARK  status: ('A' for Active; 'I' for Inactive)
REMARK    1  A    between atoms: C_1  and  O_2
REMARK    2  A    between atoms: O_2  and  C_3
REMARK    3  A    between atoms: C_8  and  O_9
REMARK    4  A    between atoms: O_9  and  C_10
REMARK    5  A    between atoms: C_11  and  C_15
REMARK    6  A    between atoms: C_16  and  O_26
REMARK    7  A    between atoms: C_18  and  O_25
REMARK    8  A    between atoms: N_19  and  C_22
REMARK    9  A    between atoms: C_22  and  C_23
REMARK                            x       y       z     vdW  Elec       q    Type
REMARK                         _______ _______ _______ _____ _____    ______ ____
ROOT
ATOM      1  C   UNL     1       0.151   1.204  -6.402  0.00  0.00    +0.162 A 
ATOM      2  C   UNL     1      -1.223   1.338  -6.499  0.00  0.00    +0.053 A 
ATOM      3  C   UNL     1      -2.061   0.375  -5.956  0.00  0.00    -0.044 A 
ATOM      4  C   UNL     1      -1.526  -0.724  -5.320  0.00  0.00    -0.050 A 
ATOM      5  C   UNL     1      -0.149  -0.862  -5.220  0.00  0.00    +0.052 A 
ATOM      6  C   UNL     1       0.692   0.097  -5.757  0.00  0.00    +0.162 A 
ATOM      7  C   UNL     1      -2.397  -1.798  -4.721  0.00  0.00    +0.001 C 
ATOM      8  C   UNL     1      -4.274  -0.751  -5.811  0.00  0.00    -0.077 C 
ATOM      9  C   UNL     1      -3.551   0.568  -6.083  0.00  0.00    +0.016 C 
ATOM     10  N   UNL     1      -3.771  -1.309  -4.542  0.00  0.00    +0.387 N 
ATOM     11  H   UNL     1      -3.781  -0.578  -3.821  0.00  0.00    -0.085 HD
ATOM     12  H   UNL     1      -4.374  -2.087  -4.250  0.00  0.00    -0.085 HD
ENDROOT
BRANCH   7  13
ATOM     13  C   UNL     1      -1.839  -2.202  -3.380  0.00  0.00    +0.069 A 
ATOM     14  C   UNL     1      -1.329  -3.473  -3.183  0.00  0.00    +0.224 A 
ATOM     15  N   UNL     1      -0.838  -3.812  -1.986  0.00  0.00    -0.161 NA
ATOM     16  C   UNL     1      -0.829  -2.960  -0.986  0.00  0.00    +0.302 A 
ATOM     17  N   UNL     1      -1.318  -1.700  -1.126  0.00  0.00    -0.259 N 
ATOM     18  C   UNL     1      -1.831  -1.300  -2.308  0.00  0.00    +0.262 A 
ATOM     19  O   UNL     1      -2.276  -0.171  -2.443  0.00  0.00    -0.267 OA
BRANCH  16  20
ATOM     20  O   UNL     1      -0.325  -3.344   0.205  0.00  0.00    -0.479 OA
ATOM     21  H   UNL     1       0.013  -4.247   0.268  0.00  0.00    +0.295 HD
ENDBRANCH  16  20
BRANCH  14  22
ATOM     22  O   UNL     1      -1.326  -4.369  -4.197  0.00  0.00    -0.492 OA
ATOM     23  H   UNL     1      -0.949  -5.228  -3.961  0.00  0.00    +0.294 HD
ENDBRANCH  14  22
BRANCH  17  24
ATOM     24  C   UNL     1      -1.293  -0.775   0.010  0.00  0.00    +0.156 C 
BRANCH  24  25
ATOM     25  C   UNL     1       0.002  -0.004   0.002  0.00  0.00    -0.013 C 
ATOM     26  C   UNL     1      -0.016   1.306   0.009  0.00  0.00    +0.005 C 
ENDBRANCH  24  25
ENDBRANCH  17  24
ENDBRANCH   7  13
BRANCH   1  28
ATOM     27  C   UNL     1       0.341   3.260  -7.583  0.00  0.00    +0.277 C 
ATOM     28  O   UNL     1       0.968   2.151  -6.936  0.00  0.00    -0.491 OA
ENDBRANCH   1  28
BRANCH   6  29
ATOM     29  O   UNL     1       2.040  -0.043  -5.655  0.00  0.00    -0.491 OA
ATOM     30  C   UNL     1       2.523  -1.206  -4.978  0.00  0.00    +0.277 C 
ENDBRANCH   6  29
TORSDOF 7
