REMARK  Name = ZINC08901398
REMARK  9 active torsions:
REMARK  status: ('A' for Active; 'I' for Inactive)
REMARK    1  A    between atoms: C_1  and  C_2
REMARK    2  A    between atoms: C_2  and  C_3
REMARK    3  A    between atoms: C_2  and  C_4
REMARK    4  A    between atoms: C_2  and  C_5
REMARK    5  A    between atoms: C_12  and  N_17
REMARK    6  A    between atoms: C_13  and  C_14
REMARK    7  A    between atoms: C_18  and  C_20
REMARK    8  A    between atoms: C_21  and  C_22
REMARK    9  A    between atoms: C_25  and  C_27
REMARK                            x       y       z     vdW  Elec       q    Type
REMARK                         _______ _______ _______ _____ _____    ______ ____
ROOT
ATOM      1  C   UNL     1      -9.200  10.310   0.523  0.00  0.00    -0.000 C 
ATOM      2  C   UNL     1      -9.986   9.296  -0.313  0.00  0.00    +0.009 C 
ATOM      3  C   UNL     1      -9.639   7.875   0.133  0.00  0.00    +0.037 C 
ATOM      4  C   UNL     1      -8.124   7.712   0.118  0.00  0.00    -0.023 A 
ATOM      5  C   UNL     1      -7.309   8.790   0.118  0.00  0.00    -0.004 A 
ATOM      6  S   UNL     1      -5.671   8.118   0.105  0.00  0.00    -0.077 S 
ATOM      7  C   UNL     1      -6.061   6.430   0.091  0.00  0.00    +0.085 A 
ATOM      8  C   UNL     1      -7.449   6.426   0.104  0.00  0.00    +0.068 A 
ATOM      9  C   UNL     1      -7.717  10.230   0.131  0.00  0.00    +0.046 C 
ENDROOT
BRANCH   8  10
ATOM     10  C   UNL     1      -8.206   5.170   0.104  0.00  0.00    +0.244 C 
ATOM     11  O   UNL     1      -8.510   4.643   1.158  0.00  0.00    -0.270 OA
ATOM     12  N   UNL     1      -8.565   4.600  -1.063  0.00  0.00    -0.325 N 
ATOM     13  H   UNL     1      -8.323   5.021  -1.903  0.00  0.00    +0.145 HD
ATOM     14  H   UNL     1      -9.066   3.769  -1.063  0.00  0.00    +0.145 HD
ENDBRANCH   8  10
BRANCH   1  16
ATOM     15  C   UNL     1      -9.578  12.041  -1.238  0.00  0.00    +0.011 C 
ATOM     16  C   UNL     1      -9.727  11.720   0.250  0.00  0.00    -0.035 C 
ATOM     17  C   UNL     1     -11.204  11.796   0.642  0.00  0.00    +0.011 C 
ATOM     18  C   UNL     1      -8.928  12.732   1.073  0.00  0.00    +0.011 C 
ENDBRANCH   1  16
BRANCH   7  19
ATOM     19  N   UNL     1      -5.198   5.348   0.078  0.00  0.00    -0.276 N 
ATOM     20  C   UNL     1      -3.865   5.549   0.067  0.00  0.00    +0.242 C 
ATOM     21  O   UNL     1      -3.420   6.683   0.069  0.00  0.00    -0.270 OA
ATOM     22  H   UNL     1      -5.552   4.444   0.076  0.00  0.00    +0.156 HD
BRANCH  20  23
ATOM     23  C   UNL     1      -2.983   4.444   0.052  0.00  0.00    +0.071 C 
ATOM     24  C   UNL     1      -1.640   4.647   0.041  0.00  0.00    +0.051 C 
BRANCH  24  25
ATOM     25  C   UNL     1      -0.759   3.542   0.027  0.00  0.00    +0.129 A 
ATOM     26  C   UNL     1       0.622   3.607   0.015  0.00  0.00    +0.050 A 
ATOM     27  C   UNL     1       1.089   2.290   0.004  0.00  0.00    +0.050 A 
ATOM     28  C   UNL     1      -0.018   1.472   0.010  0.00  0.00    +0.136 A 
ATOM     29  O   UNL     1      -1.120   2.242   0.019  0.00  0.00    -0.455 OA
BRANCH  28  30
ATOM     30  C   UNL     1       0.002  -0.004   0.002  0.00  0.00    +0.017 A 
ATOM     31  C   UNL     1       1.220  -0.689  -0.019  0.00  0.00    +0.013 A 
ATOM     32  C   UNL     1       1.231  -2.068  -0.022  0.00  0.00    +0.021 A 
ATOM     33  C   UNL     1       0.040  -2.774  -0.015  0.00  0.00    +0.041 A 
ATOM     34  C   UNL     1      -1.171  -2.101   0.002  0.00  0.00    +0.021 A 
ATOM     35  C   UNL     1      -1.196  -0.722   0.010  0.00  0.00    +0.013 A 
ATOM     36 CL   UNL     1       0.063  -4.510  -0.026  0.00  0.00    -0.084 Cl
ENDBRANCH  28  30
ENDBRANCH  24  25
ENDBRANCH  20  23
ENDBRANCH   7  19
TORSDOF 6
