REMARK  Name = ZINC08709952
REMARK  6 active torsions:
REMARK  status: ('A' for Active; 'I' for Inactive)
REMARK    1  A    between atoms: C_6  and  C_7
REMARK    2  A    between atoms: C_10  and  S_13
REMARK    3  A    between atoms: S_13  and  C_14
REMARK    4  A    between atoms: C_14  and  C_15
REMARK    5  A    between atoms: N_17  and  C_18
REMARK    6  A    between atoms: C_19  and  C_26
REMARK                            x       y       z     vdW  Elec       q    Type
REMARK                         _______ _______ _______ _____ _____    ______ ____
ROOT
ATOM      1  C   UNL     1      -0.016   1.344   0.009  0.00  0.00    +0.228 C 
ATOM      2  O   UNL     1       1.026   1.964   0.003  0.00  0.00    -0.275 OA
ATOM      3  N   UNL     1       0.002  -0.004   0.002  0.00  0.00    -0.279 N 
ATOM      4  H   UNL     1      -0.831  -0.500   0.007  0.00  0.00    +0.155 HD
ENDROOT
BRANCH   3   5
ATOM      5  C   UNL     1       1.212  -0.681  -0.013  0.00  0.00    +0.084 A 
ATOM      6  C   UNL     1       1.434  -2.047  -0.017  0.00  0.00    +0.068 A 
ATOM      7  C   UNL     1       2.821  -2.509  -0.038  0.00  0.00    -0.023 A 
ATOM      8  C   UNL     1       3.747  -1.533  -0.042  0.00  0.00    -0.004 A 
ATOM      9  S   UNL     1       2.813  -0.023  -0.024  0.00  0.00    -0.077 S 
ATOM     10  C   UNL     1       5.147  -2.084  -0.061  0.00  0.00    +0.043 C 
ATOM     11  C   UNL     1       4.981  -3.554  -0.506  0.00  0.00    +0.010 C 
ATOM     12  C   UNL     1       3.540  -3.859  -0.051  0.00  0.00    +0.037 C 
BRANCH   6  13
ATOM     13  C   UNL     1       0.317  -2.998  -0.004  0.00  0.00    +0.244 C 
ATOM     14  O   UNL     1      -0.159  -3.392  -1.053  0.00  0.00    -0.270 OA
ATOM     15  N   UNL     1      -0.182  -3.435   1.169  0.00  0.00    -0.325 N 
ATOM     16  H   UNL     1       0.197  -3.121   2.004  0.00  0.00    +0.145 HD
ATOM     17  H   UNL     1      -0.921  -4.064   1.177  0.00  0.00    +0.145 HD
ENDBRANCH   6  13
ENDBRANCH   3   5
BRANCH   1  18
ATOM     18  C   UNL     1      -1.331   2.079   0.020  0.00  0.00    +0.173 C 
BRANCH  18  19
ATOM     19  S   UNL     1      -1.025   3.863   0.028  0.00  0.00    -0.079 S 
BRANCH  19  23
ATOM     20  C   UNL     1      -4.441   5.791   0.054  0.00  0.00    +0.067 A 
ATOM     21  C   UNL     1      -4.851   4.496   0.048  0.00  0.00    +0.139 A 
ATOM     22  N   UNL     1      -3.765   3.712   0.034  0.00  0.00    -0.230 NA
ATOM     23  C   UNL     1      -2.683   4.458   0.039  0.00  0.00    +0.167 A 
ATOM     24  N   UNL     1      -3.056   5.768   0.048  0.00  0.00    -0.333 N 
ATOM     25  H   UNL     1      -2.447   6.561   0.050  0.00  0.00    +0.168 HD
BRANCH  20  31
ATOM     26  C   UNL     1      -4.733   8.265   0.076  0.00  0.00    +0.011 A 
ATOM     27  C   UNL     1      -5.543   9.381   0.081  0.00  0.00    +0.016 A 
ATOM     28  C   UNL     1      -6.921   9.239   0.085  0.00  0.00    +0.018 A 
ATOM     29  C   UNL     1      -7.493   7.978   0.080  0.00  0.00    +0.016 A 
ATOM     30  C   UNL     1      -6.693   6.855   0.070  0.00  0.00    +0.011 A 
ATOM     31  C   UNL     1      -5.303   6.991   0.065  0.00  0.00    -0.000 A 
ATOM     32 BR   UNL     1      -8.025  10.774   0.099  0.00  0.00    -0.050 Br
ENDBRANCH  20  31
ENDBRANCH  19  23
ENDBRANCH  18  19
ENDBRANCH   1  18
TORSDOF 6
