REMARK  Name = ZINC39951721
REMARK  5 active torsions:
REMARK  status: ('A' for Active; 'I' for Inactive)
REMARK    1  A    between atoms: C_1  and  O_2
REMARK    2  A    between atoms: O_2  and  C_3
REMARK    3  A    between atoms: C_3  and  C_5
REMARK    4  A    between atoms: C_8  and  C_12
REMARK    5  A    between atoms: C_10  and  O_11
REMARK                            x       y       z     vdW  Elec       q    Type
REMARK                         _______ _______ _______ _____ _____    ______ ____
ROOT
ATOM      1  C   UNL     1       0.659  -2.073  -1.122  0.00  0.00    +0.101 A 
ATOM      2  C   UNL     1       0.089  -2.852  -0.111  0.00  0.00    +0.034 A 
ATOM      3  C   UNL     1       0.146  -4.227  -0.188  0.00  0.00    +0.031 A 
ATOM      4  C   UNL     1       0.767  -4.841  -1.264  0.00  0.00    +0.072 A 
ATOM      5  C   UNL     1       1.333  -4.084  -2.270  0.00  0.00    +0.059 A 
ATOM      6  C   UNL     1       1.280  -2.699  -2.211  0.00  0.00    +0.131 A 
ATOM      7 BR   UNL     1      -0.625  -5.279   1.181  0.00  0.00    -0.050 Br
ENDROOT
BRANCH   4   8
ATOM      8  C   UNL     1       0.823  -6.346  -1.337  0.00  0.00    +0.419 C 
ATOM      9  F   UNL     1       1.493  -6.731  -2.503  0.00  0.00    -0.166 F 
ATOM     10  F   UNL     1       1.507  -6.841  -0.221  0.00  0.00    -0.166 F 
ATOM     11  F   UNL     1      -0.477  -6.861  -1.354  0.00  0.00    -0.166 F 
ENDBRANCH   4   8
BRANCH   1  12
ATOM     12  C   UNL     1       0.601  -0.602  -1.047  0.00  0.00    +0.343 C 
ATOM     13  O   UNL     1       1.093   0.071  -1.930  0.00  0.00    -0.245 OA
BRANCH  12  15
ATOM     14  C   UNL     1      -0.017   1.425   0.010  0.00  0.00    +0.280 C 
ATOM     15  O   UNL     1       0.002  -0.004   0.002  0.00  0.00    -0.464 OA
ENDBRANCH  12  15
ENDBRANCH   1  12
BRANCH   6  16
ATOM     16  O   UNL     1       1.832  -1.954  -3.202  0.00  0.00    -0.506 OA
ATOM     17  H   UNL     1       2.761  -1.730  -3.054  0.00  0.00    +0.292 HD
ENDBRANCH   6  16
TORSDOF 4
