REMARK  Name = ZINC65385083
REMARK  8 active torsions:
REMARK  status: ('A' for Active; 'I' for Inactive)
REMARK    1  A    between atoms: C_1  and  C_2
REMARK    2  A    between atoms: C_3  and  C_12
REMARK    3  A    between atoms: C_4  and  C_11
REMARK    4  A    between atoms: N_5  and  C_7
REMARK    5  A    between atoms: C_7  and  C_8
REMARK    6  A    between atoms: C_7  and  C_9
REMARK    7  A    between atoms: C_7  and  C_10
REMARK    8  A    between atoms: C_20  and  C_24
REMARK                            x       y       z     vdW  Elec       q    Type
REMARK                         _______ _______ _______ _____ _____    ______ ____
ROOT
ATOM      1  C   UNL     1      -0.692   0.574  -2.424  0.00  0.00    +0.067 C 
ATOM      2  C   UNL     1       0.568   0.460  -3.288  0.00  0.00    +0.109 C 
ATOM      3  C   UNL     1       0.228   0.491  -4.751  0.00  0.00    +0.219 C 
ATOM      4  O   UNL     1       0.962   1.085  -5.513  0.00  0.00    -0.275 OA
ATOM      5  N   UNL     1      -0.869  -0.121  -5.245  0.00  0.00    -0.270 N 
ATOM      6  C   UNL     1      -1.803  -0.628  -4.340  0.00  0.00    +0.125 A 
ATOM      7  C   UNL     1      -1.750  -0.327  -3.007  0.00  0.00    +0.031 A 
ATOM      8  C   UNL     1      -2.808  -0.988  -2.374  0.00  0.00    +0.133 A 
ATOM      9  N   UNL     1      -3.486  -1.648  -3.298  0.00  0.00    -0.169 NA
ATOM     10  N   UNL     1      -2.871  -1.425  -4.542  0.00  0.00    -0.263 N 
ATOM     11  H   UNL     1      -3.164  -1.780  -5.395  0.00  0.00    +0.190 HD
ATOM     12  H   UNL     1      -1.005  -0.205  -6.202  0.00  0.00    +0.156 HD
ENDROOT
BRANCH   1  15
ATOM     13  C   UNL     1      -1.192   2.287   0.195  0.00  0.00    +0.068 C 
ATOM     14  C   UNL     1      -0.602   0.901   0.144  0.00  0.00    +0.064 A 
ATOM     15  C   UNL     1      -0.382   0.146  -1.013  0.00  0.00    +0.004 A 
ATOM     16  C   UNL     1       0.160  -1.038  -0.641  0.00  0.00    +0.041 A 
ATOM     17  N   UNL     1       0.277  -1.032   0.703  0.00  0.00    -0.263 N 
ATOM     18  N   UNL     1      -0.203   0.198   1.173  0.00  0.00    -0.175 NA
ATOM     19  C   UNL     1       0.559  -2.161  -1.563  0.00  0.00    +0.065 C 
BRANCH  17  20
ATOM     20  C   UNL     1       0.817  -2.117   1.526  0.00  0.00    +0.056 C 
ATOM     21  C   UNL     1       2.200  -2.513   1.005  0.00  0.00    +0.036 C 
ATOM     22  C   UNL     1       0.933  -1.647   2.977  0.00  0.00    +0.036 C 
ATOM     23  C   UNL     1      -0.120  -3.325   1.455  0.00  0.00    +0.036 C 
ENDBRANCH  17  20
ENDBRANCH   1  15
BRANCH   8  24
ATOM     24  C   UNL     1      -3.115  -0.953  -0.928  0.00  0.00    +0.155 A 
ATOM     25  C   UNL     1      -4.340  -0.745  -0.378  0.00  0.00    +0.051 A 
ATOM     26  C   UNL     1      -4.170  -0.794   1.021  0.00  0.00    +0.042 A 
ATOM     27  C   UNL     1      -2.864  -1.028   1.252  0.00  0.00    +0.196 A 
ATOM     28  O   UNL     1      -2.230  -1.129   0.072  0.00  0.00    -0.461 OA
ENDBRANCH   8  24
TORSDOF 3
