REMARK  Name = ZINC33908587
REMARK  11 active torsions:
REMARK  status: ('A' for Active; 'I' for Inactive)
REMARK    1  A    between atoms: C_4  and  C_7
REMARK    2  A    between atoms: C_7  and  O_9
REMARK    3  A    between atoms: C_7  and  C_10
REMARK    4  A    between atoms: C_10  and  C_35
REMARK    5  A    between atoms: N_11  and  N_12
REMARK    6  A    between atoms: C_13  and  C_15
REMARK    7  A    between atoms: N_17  and  N_18
REMARK    8  A    between atoms: C_19  and  C_20
REMARK    9  A    between atoms: C_19  and  C_29
REMARK   10  A    between atoms: C_20  and  O_22
REMARK   11  A    between atoms: C_20  and  C_23
REMARK                            x       y       z     vdW  Elec       q    Type
REMARK                         _______ _______ _______ _____ _____    ______ ____
ROOT
ATOM      1  N   UNL     1       8.061  -0.171   0.020  0.00  0.00    -0.199 N 
ATOM      2  C   UNL     1       9.280  -0.102  -0.551  0.00  0.00    +0.320 C 
ATOM      3  O   UNL     1       9.496  -0.685  -1.594  0.00  0.00    -0.263 OA
ATOM      4  H   UNL     1       7.888   0.294   0.853  0.00  0.00    +0.178 HD
ENDROOT
BRANCH   2   5
ATOM      5  C   UNL     1      10.363   0.689   0.099  0.00  0.00    +0.320 C 
ATOM      6  O   UNL     1      10.147   1.271   1.142  0.00  0.00    -0.263 OA
ATOM      7  N   UNL     1      11.582   0.757  -0.472  0.00  0.00    -0.199 N 
ATOM      8  H   UNL     1      11.754   0.292  -1.305  0.00  0.00    +0.178 HD
BRANCH   7   9
ATOM      9  N   UNL     1      12.600   1.501   0.139  0.00  0.00    -0.181 NA
ATOM     10  C   UNL     1      13.778   1.557  -0.404  0.00  0.00    +0.099 C 
BRANCH  10  11
ATOM     11  C   UNL     1      14.786   2.498   0.117  0.00  0.00    +0.001 A 
ATOM     12  C   UNL     1      15.782   2.998  -0.727  0.00  0.00    +0.010 A 
ATOM     13  C   UNL     1      16.721   3.879  -0.233  0.00  0.00    +0.001 A 
ATOM     14  C   UNL     1      16.679   4.268   1.095  0.00  0.00    +0.000 A 
ATOM     15  C   UNL     1      15.696   3.777   1.936  0.00  0.00    +0.001 A 
ATOM     16  C   UNL     1      14.747   2.900   1.454  0.00  0.00    +0.010 A 
ENDBRANCH  10  11
BRANCH  10  17
ATOM     17  C   UNL     1      14.116   0.658  -1.566  0.00  0.00    +0.195 C 
BRANCH  17  18
ATOM     18  C   UNL     1      13.645  -0.742  -1.271  0.00  0.00    -0.013 A 
ATOM     19  C   UNL     1      13.994  -1.353  -0.082  0.00  0.00    +0.006 A 
ATOM     20  C   UNL     1      13.562  -2.638   0.189  0.00  0.00    +0.000 A 
ATOM     21  C   UNL     1      12.780  -3.312  -0.731  0.00  0.00    +0.000 A 
ATOM     22  C   UNL     1      12.429  -2.701  -1.920  0.00  0.00    +0.000 A 
ATOM     23  C   UNL     1      12.858  -1.414  -2.188  0.00  0.00    +0.006 A 
ENDBRANCH  17  18
BRANCH  17  24
ATOM     24  O   UNL     1      15.531   0.652  -1.768  0.00  0.00    -0.381 OA
ATOM     25  H   UNL     1      16.030   0.258  -1.040  0.00  0.00    +0.211 HD
ENDBRANCH  17  24
ENDBRANCH  10  17
ENDBRANCH   7   9
ENDBRANCH   2   5
BRANCH   1  27
ATOM     26  C   UNL     1       5.866  -0.976  -0.045  0.00  0.00    +0.099 C 
ATOM     27  N   UNL     1       7.043  -0.915  -0.591  0.00  0.00    -0.181 NA
BRANCH  26  28
ATOM     28  C   UNL     1       4.847  -1.891  -0.590  0.00  0.00    +0.001 A 
ATOM     29  C   UNL     1       3.838  -2.391   0.237  0.00  0.00    +0.010 A 
ATOM     30  C   UNL     1       2.888  -3.247  -0.280  0.00  0.00    +0.001 A 
ATOM     31  C   UNL     1       2.932  -3.610  -1.614  0.00  0.00    +0.000 A 
ATOM     32  C   UNL     1       3.928  -3.119  -2.439  0.00  0.00    +0.001 A 
ATOM     33  C   UNL     1       4.882  -2.258  -1.938  0.00  0.00    +0.010 A 
ENDBRANCH  26  28
BRANCH  26  34
ATOM     34  C   UNL     1       5.543  -0.112   1.147  0.00  0.00    +0.195 C 
BRANCH  34  38
ATOM     35  C   UNL     1       6.892   3.875   0.419  0.00  0.00    +0.000 A 
ATOM     36  C   UNL     1       7.410   3.152   1.477  0.00  0.00    +0.000 A 
ATOM     37  C   UNL     1       6.974   1.862   1.713  0.00  0.00    +0.006 A 
ATOM     38  C   UNL     1       6.018   1.295   0.890  0.00  0.00    -0.013 A 
ATOM     39  C   UNL     1       5.499   2.018  -0.167  0.00  0.00    +0.006 A 
ATOM     40  C   UNL     1       5.937   3.308  -0.404  0.00  0.00    +0.000 A 
ENDBRANCH  34  38
BRANCH  34  41
ATOM     41  O   UNL     1       4.130  -0.105   1.361  0.00  0.00    -0.381 OA
ATOM     42  H   UNL     1       3.622   0.261   0.625  0.00  0.00    +0.211 HD
ENDBRANCH  34  41
ENDBRANCH  26  34
ENDBRANCH   1  27
TORSDOF 11
