REMARK  Name = ZINC01934926
REMARK  5 active torsions:
REMARK  status: ('A' for Active; 'I' for Inactive)
REMARK    1  A    between atoms: C_1  and  C_2
REMARK    2  A    between atoms: C_9  and  N_14
REMARK    3  A    between atoms: C_10  and  C_11
REMARK    4  A    between atoms: C_15  and  C_17
REMARK    5  A    between atoms: C_22  and  N_23
REMARK                            x       y       z     vdW  Elec       q    Type
REMARK                         _______ _______ _______ _____ _____    ______ ____
ROOT
ATOM      1  C   UNL     1     -10.162  -2.644   0.832  0.00  0.00    +0.008 C 
ATOM      2  C   UNL     1      -8.672  -2.551   0.498  0.00  0.00    -0.009 C 
ATOM      3  C   UNL     1      -7.874  -3.455   1.442  0.00  0.00    +0.008 C 
ATOM      4  C   UNL     1      -6.426  -3.560   0.960  0.00  0.00    +0.037 C 
ATOM      5  C   UNL     1      -5.872  -2.155   0.762  0.00  0.00    -0.023 A 
ATOM      6  C   UNL     1      -6.697  -1.092   0.643  0.00  0.00    -0.004 A 
ATOM      7  S   UNL     1      -5.619   0.297   0.435  0.00  0.00    -0.077 S 
ATOM      8  C   UNL     1      -4.093  -0.520   0.506  0.00  0.00    +0.085 A 
ATOM      9  C   UNL     1      -4.454  -1.849   0.682  0.00  0.00    +0.068 A 
ATOM     10  C   UNL     1      -8.194  -1.103   0.679  0.00  0.00    +0.046 C 
ENDROOT
BRANCH   9  11
ATOM     11  C   UNL     1      -3.441  -2.904   0.789  0.00  0.00    +0.244 C 
ATOM     12  O   UNL     1      -2.994  -3.210   1.878  0.00  0.00    -0.270 OA
ATOM     13  N   UNL     1      -3.006  -3.534  -0.320  0.00  0.00    -0.325 N 
ATOM     14  H   UNL     1      -3.362  -3.290  -1.188  0.00  0.00    +0.145 HD
ATOM     15  H   UNL     1      -2.336  -4.232  -0.250  0.00  0.00    +0.145 HD
ENDBRANCH   9  11
BRANCH   8  16
ATOM     16  N   UNL     1      -2.821   0.021   0.404  0.00  0.00    -0.275 N 
ATOM     17  C   UNL     1      -2.666   1.347   0.227  0.00  0.00    +0.251 C 
ATOM     18  O   UNL     1      -3.641   2.070   0.156  0.00  0.00    -0.270 OA
ATOM     19  H   UNL     1      -2.043  -0.556   0.460  0.00  0.00    +0.156 HD
BRANCH  17  20
ATOM     20  C   UNL     1      -1.310   1.924   0.118  0.00  0.00    +0.067 A 
ATOM     21  C   UNL     1      -0.194   1.086   0.063  0.00  0.00    +0.017 A 
ATOM     22  C   UNL     1       1.069   1.630  -0.045  0.00  0.00    +0.021 A 
ATOM     23  C   UNL     1       1.232   3.005  -0.092  0.00  0.00    +0.043 A 
ATOM     24  C   UNL     1       0.130   3.841  -0.031  0.00  0.00    +0.053 A 
ATOM     25  C   UNL     1      -1.138   3.309   0.077  0.00  0.00    +0.140 A 
ATOM     26 CL   UNL     1       2.824   3.682  -0.228  0.00  0.00    -0.083 Cl
BRANCH  25  27
ATOM     27  N   UNL     1      -2.315   4.204   0.143  0.00  0.00    +0.057 N 
ATOM     28  O   UNL     1      -2.455   5.087  -0.685  0.00  0.00    -0.126 OA
ATOM     29  O   UNL     1      -3.143   4.058   1.024  0.00  0.00    -0.126 OA
ENDBRANCH  25  27
ENDBRANCH  17  20
ENDBRANCH   8  16
TORSDOF 4
