REMARK  Name = ZINC60454268
REMARK  7 active torsions:
REMARK  status: ('A' for Active; 'I' for Inactive)
REMARK    1  A    between atoms: C_3  and  C_10
REMARK    2  A    between atoms: C_5  and  C_7
REMARK    3  A    between atoms: C_10  and  O_11
REMARK    4  A    between atoms: O_11  and  N_12
REMARK    5  A    between atoms: C_13  and  C_14
REMARK    6  A    between atoms: C_14  and  O_15
REMARK    7  A    between atoms: O_15  and  C_16
REMARK                            x       y       z     vdW  Elec       q    Type
REMARK                         _______ _______ _______ _____ _____    ______ ____
ROOT
ATOM      1  N   UNL     1       5.298   3.176   1.428  0.00  0.00    -0.070 NA
ATOM      2  C   UNL     1       5.784   3.458   2.591  0.00  0.00    +0.170 C 
ATOM      3  N   UNL     1       6.958   4.170   2.692  0.00  0.00    -0.341 N 
ATOM      4  H   UNL     1       7.420   4.460   1.890  0.00  0.00    +0.144 HD
ATOM      5  H   UNL     1       7.323   4.382   3.566  0.00  0.00    +0.144 HD
ENDROOT
BRANCH   1   6
ATOM      6  O   UNL     1       4.090   2.443   1.323  0.00  0.00    -0.388 OA
BRANCH   6   7
ATOM      7  C   UNL     1       3.671   2.203  -0.021  0.00  0.00    +0.298 C 
BRANCH   7  10
ATOM      8  C   UNL     1      -0.017   1.375   0.010  0.00  0.00    +0.001 A 
ATOM      9  C   UNL     1       1.170   2.086   0.002  0.00  0.00    +0.007 A 
ATOM     10  C   UNL     1       2.383   1.420  -0.013  0.00  0.00    -0.007 A 
ATOM     11  C   UNL     1       2.416   0.041  -0.021  0.00  0.00    +0.020 A 
ATOM     12  C   UNL     1       1.222  -0.682  -0.014  0.00  0.00    +0.037 A 
ATOM     13  C   UNL     1       0.002  -0.004   0.002  0.00  0.00    +0.013 A 
BRANCH  12  14
ATOM     14  C   UNL     1       1.250  -2.161  -0.023  0.00  0.00    +0.242 C 
ATOM     15  O   UNL     1       2.313  -2.748  -0.037  0.00  0.00    -0.270 OA
ATOM     16  N   UNL     1       0.095  -2.856  -0.016  0.00  0.00    -0.325 N 
ATOM     17  H   UNL     1      -0.754  -2.387  -0.004  0.00  0.00    +0.145 HD
ATOM     18  H   UNL     1       0.113  -3.826  -0.022  0.00  0.00    +0.145 HD
ENDBRANCH  12  14
ENDBRANCH   7  10
ENDBRANCH   6   7
ENDBRANCH   1   6
BRANCH   2  19
ATOM     19  C   UNL     1       5.066   3.007   3.837  0.00  0.00    +0.303 C 
BRANCH  19  20
ATOM     20  O   UNL     1       3.883   2.293   3.473  0.00  0.00    -0.483 OA
BRANCH  20  21
ATOM     21  C   UNL     1       3.114   1.814   4.487  0.00  0.00    +0.139 A 
ATOM     22  C   UNL     1       3.488   2.034   5.805  0.00  0.00    +0.048 A 
ATOM     23  C   UNL     1       2.706   1.547   6.834  0.00  0.00    +0.023 A 
ATOM     24  C   UNL     1       1.550   0.841   6.552  0.00  0.00    +0.043 A 
ATOM     25  C   UNL     1       1.175   0.620   5.239  0.00  0.00    +0.043 A 
ATOM     26  C   UNL     1       1.951   1.111   4.206  0.00  0.00    +0.084 A 
ATOM     27 CL   UNL     1       1.477   0.841   2.558  0.00  0.00    -0.080 Cl
ATOM     28 CL   UNL     1       0.570   0.229   7.848  0.00  0.00    -0.083 Cl
ENDBRANCH  20  21
ENDBRANCH  19  20
ENDBRANCH   2  19
TORSDOF 7
