REMARK  Name = ZINC36922437
REMARK  4 active torsions:
REMARK  status: ('A' for Active; 'I' for Inactive)
REMARK    1  A    between atoms: C_3  and  C_9
REMARK    2  A    between atoms: C_5  and  C_7
REMARK    3  A    between atoms: C_9  and  N_10
REMARK    4  A    between atoms: N_10  and  C_11
REMARK                            x       y       z     vdW  Elec       q    Type
REMARK                         _______ _______ _______ _____ _____    ______ ____
ROOT
ATOM      1  N   UNL     1       4.102   2.451   1.356  0.00  0.00    -0.339 N 
ATOM      2  H   UNL     1       3.571   2.119   2.097  0.00  0.00    +0.146 HD
ENDROOT
BRANCH   1   3
ATOM      3  C   UNL     1       5.280   3.165   1.603  0.00  0.00    +0.050 A 
ATOM      4  C   UNL     1       6.037   3.644   0.543  0.00  0.00    +0.073 A 
ATOM      5  C   UNL     1       7.204   4.352   0.788  0.00  0.00    +0.164 A 
ATOM      6  C   UNL     1       7.613   4.582   2.097  0.00  0.00    +0.164 A 
ATOM      7  C   UNL     1       6.856   4.101   3.154  0.00  0.00    +0.071 A 
ATOM      8  C   UNL     1       5.689   3.399   2.910  0.00  0.00    +0.065 A 
ATOM      9 CL   UNL     1       4.740   2.805   4.236  0.00  0.00    -0.082 Cl
ATOM     10  O   UNL     1       8.753   5.282   2.357  0.00  0.00    -0.485 OA
ATOM     11  C   UNL     1       9.680   5.427   1.276  0.00  0.00    +0.270 C 
ATOM     12  C   UNL     1       8.896   5.837   0.022  0.00  0.00    +0.270 C 
ATOM     13  O   UNL     1       7.938   4.812  -0.262  0.00  0.00    -0.485 OA
ENDBRANCH   1   3
BRANCH   1  14
ATOM     14  C   UNL     1       3.671   2.204  -0.023  0.00  0.00    +0.137 C 
BRANCH  14  17
ATOM     15  C   UNL     1      -0.017   1.375   0.010  0.00  0.00    +0.002 A 
ATOM     16  C   UNL     1       1.170   2.086   0.002  0.00  0.00    +0.005 A 
ATOM     17  C   UNL     1       2.383   1.421  -0.013  0.00  0.00    -0.029 A 
ATOM     18  C   UNL     1       2.416   0.041  -0.021  0.00  0.00    +0.024 A 
ATOM     19  C   UNL     1       1.223  -0.682  -0.013  0.00  0.00    +0.052 A 
ATOM     20  C   UNL     1       0.002  -0.004   0.002  0.00  0.00    +0.019 A 
BRANCH  19  21
ATOM     21  C   UNL     1       1.250  -2.114  -0.022  0.00  0.00    +0.099 C 
ATOM     22  N   UNL     1       1.271  -3.250  -0.029  0.00  0.00    -0.191 NA
ENDBRANCH  19  21
ENDBRANCH  14  17
ENDBRANCH   1  14
TORSDOF 4
