REMARK  Name = ZINC51652303
REMARK  7 active torsions:
REMARK  status: ('A' for Active; 'I' for Inactive)
REMARK    1  A    between atoms: C_1  and  C_2
REMARK    2  A    between atoms: C_5  and  C_7
REMARK    3  A    between atoms: N_9  and  C_10
REMARK    4  A    between atoms: C_10  and  C_11
REMARK    5  A    between atoms: C_13  and  C_14
REMARK    6  A    between atoms: C_13  and  C_16
REMARK    7  A    between atoms: N_18  and  C_19
REMARK                            x       y       z     vdW  Elec       q    Type
REMARK                         _______ _______ _______ _____ _____    ______ ____
ROOT
ATOM      1  C   UNL     1       4.488  -5.366  -0.049  0.00  0.00    +0.195 C 
ATOM      2  O   UNL     1       5.124  -4.829  -1.104  0.00  0.00    -0.289 OA
ATOM      3  C   UNL     1       5.204  -5.829   1.015  0.00  0.00    +0.157 C 
ENDROOT
BRANCH   3   4
ATOM      4  C   UNL     1       6.671  -5.741   1.008  0.00  0.00    +0.258 C 
ATOM      5  O   UNL     1       7.247  -5.254   0.054  0.00  0.00    -0.269 OA
ATOM      6  N   UNL     1       7.378  -6.198   2.060  0.00  0.00    -0.308 N 
ATOM      7  H   UNL     1       6.919  -6.586   2.822  0.00  0.00    +0.149 HD
BRANCH   6   8
ATOM      8  C   UNL     1       8.841  -6.110   2.054  0.00  0.00    +0.073 C 
ATOM      9  C   UNL     1       9.443  -7.361   1.382  0.00  0.00    +0.022 C 
ATOM     10  C   UNL     1      10.722  -7.656   2.205  0.00  0.00    +0.002 C 
ATOM     11  C   UNL     1      10.281  -7.324   3.652  0.00  0.00    +0.002 C 
ATOM     12  C   UNL     1       9.373  -6.086   3.498  0.00  0.00    +0.022 C 
ENDBRANCH   6   8
ENDBRANCH   3   4
BRANCH   3  13
ATOM     13  C   UNL     1       4.526  -6.402   2.139  0.00  0.00    +0.108 C 
ATOM     14  N   UNL     1       3.988  -6.856   3.030  0.00  0.00    -0.191 NA
ENDBRANCH   3  13
BRANCH   1  15
ATOM     15  C   UNL     1       2.984  -5.457  -0.043  0.00  0.00    +0.185 C 
BRANCH  15  18
ATOM     16  C   UNL     1       1.076  -3.942  -0.025  0.00  0.00    +0.251 C 
ATOM     17  O   UNL     1       0.342  -4.913  -0.028  0.00  0.00    -0.270 OA
ATOM     18  N   UNL     1       2.413  -4.108  -0.033  0.00  0.00    -0.304 N 
ATOM     19  H   UNL     1       2.998  -3.334  -0.031  0.00  0.00    +0.149 HD
BRANCH  16  24
ATOM     20  C   UNL     1      -0.018   1.503   0.010  0.00  0.00    +0.051 C 
ATOM     21  C   UNL     1       0.002  -0.004   0.002  0.00  0.00    -0.013 A 
ATOM     22  C   UNL     1      -1.056  -0.852   0.002  0.00  0.00    +0.011 A 
ATOM     23  C   UNL     1      -0.827  -2.207  -0.007  0.00  0.00    +0.021 A 
ATOM     24  C   UNL     1       0.505  -2.592  -0.015  0.00  0.00    +0.074 A 
ATOM     25  S   UNL     1       1.341  -1.018  -0.017  0.00  0.00    -0.089 S 
ENDBRANCH  16  24
ENDBRANCH  15  18
ENDBRANCH   1  15
TORSDOF 6
