REMARK  Name = ZINC67000221
REMARK  8 active torsions:
REMARK  status: ('A' for Active; 'I' for Inactive)
REMARK    1  A    between atoms: C_1  and  S_2
REMARK    2  A    between atoms: S_2  and  C_3
REMARK    3  A    between atoms: C_6  and  C_27
REMARK    4  A    between atoms: C_8  and  N_9
REMARK    5  A    between atoms: C_10  and  C_12
REMARK    6  A    between atoms: N_14  and  C_15
REMARK    7  A    between atoms: C_15  and  C_16
REMARK    8  A    between atoms: C_16  and  O_26
REMARK                            x       y       z     vdW  Elec       q    Type
REMARK                         _______ _______ _______ _____ _____    ______ ____
ROOT
ATOM      1  C   UNL     1      -0.377  -5.146   0.194  0.00  0.00    +0.299 C 
ATOM      2  O   UNL     1       0.795  -4.833   0.182  0.00  0.00    -0.265 OA
ATOM      3  N   UNL     1      -0.727  -6.444   0.293  0.00  0.00    -0.305 N 
ATOM      4  H   UNL     1      -1.664  -6.695   0.303  0.00  0.00    +0.149 HD
ENDROOT
BRANCH   1   6
ATOM      5  N   UNL     1      -1.083  -2.796   0.002  0.00  0.00    -0.277 N 
ATOM      6  C   UNL     1      -1.433  -4.094   0.100  0.00  0.00    +0.303 C 
ATOM      7  O   UNL     1      -2.605  -4.408   0.113  0.00  0.00    -0.265 OA
ATOM      8  H   UNL     1      -0.148  -2.550  -0.074  0.00  0.00    +0.155 HD
BRANCH   5  14
ATOM      9  C   UNL     1      -1.817  -0.570   0.617  0.00  0.00    +0.029 A 
ATOM     10  C   UNL     1      -2.795   0.419   0.619  0.00  0.00    +0.018 A 
ATOM     11  C   UNL     1      -4.016   0.186   0.027  0.00  0.00    +0.020 A 
ATOM     12  C   UNL     1      -4.277  -1.047  -0.578  0.00  0.00    +0.054 A 
ATOM     13  C   UNL     1      -3.297  -2.044  -0.582  0.00  0.00    +0.043 A 
ATOM     14  C   UNL     1      -2.069  -1.804   0.008  0.00  0.00    +0.048 A 
BRANCH   9  16
ATOM     15  C   UNL     1      -0.399   1.427   2.011  0.00  0.00    +0.090 C 
ATOM     16  S   UNL     1      -0.256  -0.266   1.375  0.00  0.00    -0.127 S 
ENDBRANCH   9  16
BRANCH  12  17
ATOM     17  C   UNL     1      -5.548  -1.290  -1.193  0.00  0.00    +0.099 C 
ATOM     18  N   UNL     1      -6.555  -1.482  -1.681  0.00  0.00    -0.191 NA
ENDBRANCH  12  17
ENDBRANCH   5  14
ENDBRANCH   1   6
BRANCH   3  19
ATOM     19  C   UNL     1       0.308  -7.476   0.385  0.00  0.00    +0.144 C 
BRANCH  19  20
ATOM     20  C   UNL     1      -0.346  -8.859   0.360  0.00  0.00    +0.107 C 
ATOM     21  C   UNL     1      -1.240  -8.970  -0.873  0.00  0.00    +0.041 C 
ATOM     22  C   UNL     1      -1.712 -10.424  -0.999  0.00  0.00    +0.008 C 
ATOM     23  C   UNL     1      -0.514 -11.286  -1.393  0.00  0.00    +0.035 C 
ATOM     24  C   UNL     1       0.648 -11.033  -0.468  0.00  0.00    -0.041 A 
ATOM     25  C   UNL     1       0.727  -9.916   0.334  0.00  0.00    -0.011 A 
ATOM     26  C   UNL     1       1.829  -9.739   1.159  0.00  0.00    +0.007 A 
ATOM     27  C   UNL     1       2.843 -10.674   1.185  0.00  0.00    +0.000 A 
ATOM     28  C   UNL     1       2.762 -11.797   0.383  0.00  0.00    +0.000 A 
ATOM     29  C   UNL     1       1.669 -11.974  -0.440  0.00  0.00    +0.004 A 
BRANCH  20  30
ATOM     30  O   UNL     1      -1.143  -9.025   1.535  0.00  0.00    -0.382 OA
ATOM     31  H   UNL     1      -0.644  -8.958   2.361  0.00  0.00    +0.211 HD
ENDBRANCH  20  30
ENDBRANCH  19  20
ENDBRANCH   3  19
TORSDOF 7
