REMARK  Name = ZINC39073395
REMARK  1 active torsions:
REMARK  status: ('A' for Active; 'I' for Inactive)
REMARK    1  A    between atoms: C_5  and  N_11
REMARK                            x       y       z     vdW  Elec       q    Type
REMARK                         _______ _______ _______ _____ _____    ______ ____
ROOT
ATOM      1  N   UNL     1       1.565  -1.584   1.119  0.00  0.00    -0.296 N 
ATOM      2  C   UNL     1       2.125  -2.163   2.200  0.00  0.00    +0.310 C 
ATOM      3  O   UNL     1       1.994  -1.656   3.296  0.00  0.00    -0.252 OA
ATOM      4  N   UNL     1       2.829  -3.304   2.064  0.00  0.00    -0.234 N 
ATOM      5  C   UNL     1       3.280  -3.922   3.195  0.00  0.00    +0.087 C 
ATOM      6  C   UNL     1       3.641  -5.230   3.202  0.00  0.00    +0.047 C 
ATOM      7  C   UNL     1       3.538  -5.909   1.902  0.00  0.00    +0.106 C 
ATOM      8  N   UNL     1       3.554  -7.168   1.571  0.00  0.00    -0.241 NA
ATOM      9  C   UNL     1       3.408  -7.245   0.107  0.00  0.00    +0.373 C 
ATOM     10  O   UNL     1       3.549  -5.900  -0.386  0.00  0.00    -0.467 OA
ATOM     11  C   UNL     1       3.365  -5.093   0.676  0.00  0.00    +0.162 C 
ATOM     12  C   UNL     1       3.049  -3.787   0.789  0.00  0.00    +0.132 C 
ATOM     13  H   UNL     1       1.605  -2.026   0.257  0.00  0.00    +0.151 HD
ENDROOT
BRANCH   1  17
ATOM     14  C   UNL     1      -1.178   0.882   0.893  0.00  0.00    -0.012 C 
ATOM     15  C   UNL     1      -0.488   0.729  -0.508  0.00  0.00    -0.070 C 
ATOM     16  C   UNL     1       0.994   0.505  -0.079  0.00  0.00    +0.007 C 
ATOM     17  C   UNL     1       0.898  -0.286   1.246  0.00  0.00    +0.074 C 
ATOM     18  C   UNL     1      -0.635  -0.475   1.468  0.00  0.00    -0.009 C 
ATOM     19  C   UNL     1      -1.066  -1.435   0.315  0.00  0.00    -0.077 C 
ATOM     20  N   UNL     1      -0.986  -0.616  -0.930  0.00  0.00    +0.381 N 
ATOM     21  H   UNL     1      -1.892  -0.528  -1.366  0.00  0.00    -0.086 HD
ATOM     22  H   UNL     1      -0.333  -1.041  -1.571  0.00  0.00    -0.086 HD
ENDBRANCH   1  17
TORSDOF 1
