REMARK  Name = ZINC22250449
REMARK  7 active torsions:
REMARK  status: ('A' for Active; 'I' for Inactive)
REMARK    1  A    between atoms: C_3  and  N_23
REMARK    2  A    between atoms: C_4  and  N_8
REMARK    3  A    between atoms: C_9  and  C_11
REMARK    4  A    between atoms: C_11  and  O_12
REMARK    5  A    between atoms: O_12  and  C_13
REMARK    6  A    between atoms: C_13  and  C_15
REMARK    7  A    between atoms: C_20  and  O_21
REMARK                            x       y       z     vdW  Elec       q    Type
REMARK                         _______ _______ _______ _____ _____    ______ ____
ROOT
ATOM      1  N   UNL     1      -1.204   2.064   0.014  0.00  0.00    -0.281 N 
ATOM      2  C   UNL     1      -1.206   3.408   0.113  0.00  0.00    +0.255 C 
ATOM      3  O   UNL     1      -0.159   4.019   0.104  0.00  0.00    -0.272 OA
ATOM      4  H   UNL     1      -2.155   1.516  -0.053  0.00  0.00    +0.155 HD
ENDROOT
BRANCH   1   8
ATOM      5  C   UNL     1       2.408  -0.022  -0.045  0.00  0.00    +0.022 A 
ATOM      6  C   UNL     1       1.305  -0.578   0.575  0.00  0.00    +0.031 A 
ATOM      7  C   UNL     1       0.102   0.112   0.600  0.00  0.00    +0.088 A 
ATOM      8  C   UNL     1       0.009   1.366  -0.002  0.00  0.00    +0.061 A 
ATOM      9  C   UNL     1       1.121   1.918  -0.623  0.00  0.00    +0.045 A 
ATOM     10  C   UNL     1       2.317   1.223  -0.643  0.00  0.00    +0.043 A 
ATOM     11 CL   UNL     1       3.706   1.915  -1.420  0.00  0.00    -0.083 Cl
BRANCH   7  12
ATOM     12  N   UNL     1      -1.018  -0.452   1.228  0.00  0.00    -0.218 N 
ATOM     13  C   UNL     1      -1.060  -1.605   1.922  0.00  0.00    +0.225 A 
ATOM     14  N   UNL     1      -2.285  -1.777   2.349  0.00  0.00    -0.222 NA
ATOM     15  C   UNL     1      -3.052  -0.766   1.943  0.00  0.00    +0.245 A 
ATOM     16  N   UNL     1      -2.321   0.071   1.253  0.00  0.00    -0.153 NA
ENDBRANCH   7  12
ENDBRANCH   1   8
BRANCH   2  17
ATOM     17  C   UNL     1      -2.511   4.152   0.236  0.00  0.00    +0.328 C 
BRANCH  17  18
ATOM     18  O   UNL     1      -2.249   5.578   0.327  0.00  0.00    -0.452 OA
BRANCH  18  19
ATOM     19  C   UNL     1      -3.318   6.390   0.442  0.00  0.00    +0.343 C 
ATOM     20  O   UNL     1      -4.438   5.920   0.466  0.00  0.00    -0.245 OA
BRANCH  19  21
ATOM     21  C   UNL     1      -3.128   7.848   0.539  0.00  0.00    +0.101 A 
ATOM     22  C   UNL     1      -1.841   8.393   0.513  0.00  0.00    +0.034 A 
ATOM     23  C   UNL     1      -1.670   9.758   0.604  0.00  0.00    +0.019 A 
ATOM     24  C   UNL     1      -2.770  10.594   0.721  0.00  0.00    +0.019 A 
ATOM     25  C   UNL     1      -4.046  10.069   0.749  0.00  0.00    +0.047 A 
ATOM     26  C   UNL     1      -4.237   8.698   0.654  0.00  0.00    +0.131 A 
ATOM     27 BR   UNL     1       0.071  10.493   0.568  0.00  0.00    -0.050 Br
BRANCH  26  28
ATOM     28  O   UNL     1      -5.491   8.181   0.675  0.00  0.00    -0.506 OA
ATOM     29  H   UNL     1      -6.360   8.850   0.765  0.00  0.00    +0.292 HD
ENDBRANCH  26  28
ENDBRANCH  19  21
ENDBRANCH  18  19
ENDBRANCH  17  18
ENDBRANCH   2  17
TORSDOF 7
