REMARK  Name = ZINC45584485
REMARK  5 active torsions:
REMARK  status: ('A' for Active; 'I' for Inactive)
REMARK    1  A    between atoms: C_1  and  C_2
REMARK    2  A    between atoms: C_2  and  C_4
REMARK    3  A    between atoms: C_2  and  O_12
REMARK    4  A    between atoms: C_4  and  N_6
REMARK    5  A    between atoms: O_12  and  C_13
REMARK                            x       y       z     vdW  Elec       q    Type
REMARK                         _______ _______ _______ _____ _____    ______ ____
ROOT
ATOM      1  C   UNL     1       0.004   1.495   0.269  0.00  0.00    +0.062 C 
ATOM      2  C   UNL     1       0.005  -0.012   0.001  0.00  0.00    +0.258 C 
ENDROOT
BRANCH   2   3
ATOM      3  C   UNL     1       0.626  -0.283  -1.345  0.00  0.00    +0.279 C 
ATOM      4  O   UNL     1      -0.045  -0.756  -2.240  0.00  0.00    -0.270 OA
BRANCH   3   5
ATOM      5  N   UNL     1       1.911  -0.003  -1.553  0.00  0.00    -0.156 NA
ATOM      6  C   UNL     1       2.458  -0.242  -2.739  0.00  0.00    +0.147 C 
ATOM      7  N   UNL     1       3.746  -0.012  -3.083  0.00  0.00    -0.325 N 
ATOM      8  C   UNL     1       4.205  -0.324  -4.421  0.00  0.00    +0.114 C 
ATOM      9  C   UNL     1       3.063  -0.905  -5.281  0.00  0.00    +0.095 C 
ATOM     10  S   UNL     1       1.680  -0.889  -4.074  0.00  0.00    -0.092 S 
ATOM     11  H   UNL     1       4.362   0.361  -2.434  0.00  0.00    +0.148 HD
ENDBRANCH   3   5
ENDBRANCH   2   3
BRANCH   2  12
ATOM     12  O   UNL     1      -1.339  -0.499   0.012  0.00  0.00    -0.480 OA
BRANCH  12  13
ATOM     13  C   UNL     1      -1.869  -0.818   1.222  0.00  0.00    +0.123 A 
ATOM     14  C   UNL     1      -3.124  -1.406   1.297  0.00  0.00    +0.047 A 
ATOM     15  C   UNL     1      -3.662  -1.730   2.527  0.00  0.00    +0.025 A 
ATOM     16  C   UNL     1      -2.951  -1.469   3.685  0.00  0.00    +0.059 A 
ATOM     17  C   UNL     1      -1.699  -0.882   3.613  0.00  0.00    +0.063 A 
ATOM     18  C   UNL     1      -1.155  -0.561   2.383  0.00  0.00    +0.067 A 
ATOM     19 CL   UNL     1      -0.809  -0.555   5.067  0.00  0.00    -0.082 Cl
ATOM     20 CL   UNL     1      -3.631  -1.876   5.230  0.00  0.00    -0.082 Cl
ENDBRANCH  12  13
ENDBRANCH   2  12
TORSDOF 4
