REMARK  Name = ZINC67268332
REMARK  5 active torsions:
REMARK  status: ('A' for Active; 'I' for Inactive)
REMARK    1  A    between atoms: C_4  and  C_7
REMARK    2  A    between atoms: N_9  and  C_10
REMARK    3  A    between atoms: C_10  and  C_11
REMARK    4  A    between atoms: C_11  and  N_12
REMARK    5  A    between atoms: C_13  and  C_15
REMARK                            x       y       z     vdW  Elec       q    Type
REMARK                         _______ _______ _______ _____ _____    ______ ____
ROOT
ATOM      1  N   UNL     1       4.390  -4.251  -5.148  0.00  0.00    -0.314 N 
ATOM      2  C   UNL     1       4.529  -5.573  -5.370  0.00  0.00    +0.216 C 
ATOM      3  O   UNL     1       4.087  -6.372  -4.572  0.00  0.00    -0.276 OA
ATOM      4  H   UNL     1       4.744  -3.612  -5.787  0.00  0.00    +0.149 HD
ENDROOT
BRANCH   2   5
ATOM      5  C   UNL     1       5.235  -6.059  -6.610  0.00  0.00    +0.075 C 
ATOM      6  C   UNL     1       4.495  -5.551  -7.849  0.00  0.00    +0.015 C 
ATOM      7  C   UNL     1       5.219  -6.035  -9.108  0.00  0.00    +0.036 C 
ATOM      8  C   UNL     1       5.270  -7.559  -9.115  0.00  0.00    +0.112 C 
ATOM      9  C   UNL     1       5.983  -8.081  -7.872  0.00  0.00    +0.036 C 
ATOM     10  C   UNL     1       5.255  -7.589  -6.618  0.00  0.00    +0.015 C 
ATOM     11  C   UNL     1       3.875  -8.134  -9.204  0.00  0.00    +0.244 C 
ATOM     12  O   UNL     1       2.971  -7.991  -8.409  0.00  0.00    -0.273 OA
ATOM     13  N   UNL     1       3.849  -8.839 -10.354  0.00  0.00    -0.238 N 
ATOM     14  C   UNL     1       5.024  -8.786 -10.992  0.00  0.00    +0.307 C 
ATOM     15  O   UNL     1       5.245  -9.342 -12.050  0.00  0.00    -0.252 OA
ATOM     16  N   UNL     1       5.935  -8.046 -10.331  0.00  0.00    -0.285 N 
ATOM     17  H   UNL     1       3.074  -9.324 -10.678  0.00  0.00    +0.159 HD
ATOM     18  H   UNL     1       6.849  -7.869 -10.603  0.00  0.00    +0.151 HD
ENDBRANCH   2   5
BRANCH   1  19
ATOM     19  C   UNL     1       3.704  -3.778  -3.943  0.00  0.00    +0.123 C 
BRANCH  19  20
ATOM     20  C   UNL     1       3.684  -2.248  -3.935  0.00  0.00    +0.123 C 
BRANCH  20  23
ATOM     21  C   UNL     1       2.859  -0.454  -2.507  0.00  0.00    +0.216 C 
ATOM     22  O   UNL     1       3.301   0.345  -3.306  0.00  0.00    -0.276 OA
ATOM     23  N   UNL     1       2.998  -1.776  -2.729  0.00  0.00    -0.314 N 
ATOM     24  H   UNL     1       2.644  -2.415  -2.091  0.00  0.00    +0.149 HD
BRANCH  21  28
ATOM     25  C   UNL     1      -0.019   1.526   0.010  0.00  0.00    +0.000 C 
ATOM     26  C   UNL     1       1.417   2.055  -0.000  0.00  0.00    +0.001 C 
ATOM     27  C   UNL     1       2.133   1.562  -1.259  0.00  0.00    +0.013 C 
ATOM     28  C   UNL     1       2.154   0.032  -1.268  0.00  0.00    +0.075 C 
ATOM     29  C   UNL     1       0.718  -0.497  -1.257  0.00  0.00    +0.013 C 
ATOM     30  C   UNL     1       0.002  -0.004   0.002  0.00  0.00    +0.001 C 
ENDBRANCH  21  28
ENDBRANCH  20  23
ENDBRANCH  19  20
ENDBRANCH   1  19
TORSDOF 5
