REMARK  Name = ZINC36352806
REMARK  4 active torsions:
REMARK  status: ('A' for Active; 'I' for Inactive)
REMARK    1  A    between atoms: C_1  and  C_2
REMARK    2  A    between atoms: C_6  and  C_7
REMARK    3  A    between atoms: C_10  and  O_25
REMARK    4  A    between atoms: C_14  and  C_24
REMARK                            x       y       z     vdW  Elec       q    Type
REMARK                         _______ _______ _______ _____ _____    ______ ____
ROOT
ATOM      1  C   UNL     1       0.030  -0.179   2.581  0.00  0.00    +0.070 C 
ATOM      2  C   UNL     1      -1.194  -0.711   3.336  0.00  0.00    +0.109 C 
ATOM      3  C   UNL     1      -1.016  -0.595   4.822  0.00  0.00    +0.190 C 
ATOM      4  N   UNL     1       0.132  -0.719   5.419  0.00  0.00    -0.197 NA
ATOM      5  C   UNL     1       1.253  -0.916   4.668  0.00  0.00    +0.165 A 
ATOM      6  C   UNL     1       1.261  -0.670   3.300  0.00  0.00    +0.028 A 
ATOM      7  C   UNL     1       2.526  -0.956   2.823  0.00  0.00    +0.066 A 
ATOM      8  N   UNL     1       3.273  -1.343   3.831  0.00  0.00    -0.168 NA
ATOM      9  N   UNL     1       2.499  -1.320   5.005  0.00  0.00    -0.194 N 
ATOM     10  C   UNL     1       2.939  -1.650   6.290  0.00  0.00    +0.178 A 
ATOM     11  C   UNL     1       4.022  -2.511   6.458  0.00  0.00    +0.053 A 
ATOM     12  C   UNL     1       4.420  -2.808   7.753  0.00  0.00    +0.045 A 
ATOM     13  C   UNL     1       3.716  -2.230   8.801  0.00  0.00    +0.152 A 
ATOM     14  N   UNL     1       2.701  -1.425   8.548  0.00  0.00    -0.136 NA
ATOM     15  N   UNL     1       2.333  -1.143   7.351  0.00  0.00    -0.128 NA
ATOM     16 CL   UNL     1       4.169  -2.567  10.442  0.00  0.00    -0.060 Cl
ATOM     17  C   UNL     1       2.973  -0.842   1.388  0.00  0.00    +0.068 C 
ENDROOT
BRANCH   1  23
ATOM     18  C   UNL     1      -0.018   1.503   0.010  0.00  0.00    +0.044 C 
ATOM     19  C   UNL     1       0.002  -0.004   0.002  0.00  0.00    -0.040 A 
ATOM     20  C   UNL     1       0.006  -0.699  -1.193  0.00  0.00    +0.011 A 
ATOM     21  C   UNL     1       0.024  -2.054  -1.165  0.00  0.00    +0.046 A 
ATOM     22  S   UNL     1       0.037  -2.387   0.589  0.00  0.00    -0.101 S 
ATOM     23  C   UNL     1       0.023  -0.698   1.166  0.00  0.00    +0.001 A 
ENDBRANCH   1  23
BRANCH   3  24
ATOM     24  O   UNL     1      -2.105  -0.350   5.579  0.00  0.00    -0.495 OA
ATOM     25  H   UNL     1      -1.920  -0.287   6.526  0.00  0.00    +0.293 HD
ENDBRANCH   3  24
TORSDOF 2
