REMARK  Name = ZINC03439000
REMARK  9 active torsions:
REMARK  status: ('A' for Active; 'I' for Inactive)
REMARK    1  A    between atoms: C_1  and  C_2
REMARK    2  A    between atoms: C_2  and  C_3
REMARK    3  A    between atoms: C_2  and  C_4
REMARK    4  A    between atoms: C_4  and  N_5
REMARK    5  A    between atoms: C_9  and  C_11
REMARK    6  A    between atoms: C_11  and  O_12
REMARK    7  A    between atoms: O_12  and  C_13
REMARK    8  A    between atoms: C_13  and  C_15
REMARK    9  A    between atoms: C_24  and  O_25
REMARK                            x       y       z     vdW  Elec       q    Type
REMARK                         _______ _______ _______ _____ _____    ______ ____
ROOT
ATOM      1  O   UNL     1       2.255   8.105   0.020  0.00  0.00    -0.452 OA
ENDROOT
BRANCH   1   2
ATOM      2  C   UNL     1       1.090   7.427   0.028  0.00  0.00    +0.343 C 
ATOM      3  O   UNL     1       0.035   8.030   0.040  0.00  0.00    -0.245 OA
BRANCH   2   4
ATOM      4  C   UNL     1       1.095   5.955   0.021  0.00  0.00    +0.101 A 
ATOM      5  C   UNL     1       2.319   5.259   0.006  0.00  0.00    +0.019 A 
ATOM      6  C   UNL     1       2.350   3.904  -0.000  0.00  0.00    +0.009 A 
ATOM      7  C   UNL     1       1.149   3.167   0.008  0.00  0.00    -0.014 A 
ATOM      8  C   UNL     1       1.163   1.763   0.000  0.00  0.00    +0.008 A 
ATOM      9  C   UNL     1      -0.013   1.076   0.008  0.00  0.00    +0.001 A 
ATOM     10  C   UNL     1      -1.234   1.745   0.017  0.00  0.00    +0.001 A 
ATOM     11  C   UNL     1      -1.285   3.106   0.030  0.00  0.00    +0.012 A 
ATOM     12  C   UNL     1      -0.093   3.848   0.023  0.00  0.00    +0.024 A 
ATOM     13  C   UNL     1      -0.111   5.258   0.029  0.00  0.00    +0.138 A 
BRANCH  13  14
ATOM     14  O   UNL     1      -1.288   5.926   0.043  0.00  0.00    -0.505 OA
ATOM     15  H   UNL     1      -1.622   6.117   0.931  0.00  0.00    +0.292 HD
ENDBRANCH  13  14
ENDBRANCH   2   4
ENDBRANCH   1   2
BRANCH   1  16
ATOM     16  C   UNL     1       2.173   9.555   0.027  0.00  0.00    +0.328 C 
BRANCH  16  21
ATOM     17  N   UNL     1       5.151  13.329   0.015  0.00  0.00    -0.299 N 
ATOM     18  C   UNL     1       4.979  11.992   0.011  0.00  0.00    +0.306 C 
ATOM     19  O   UNL     1       5.946  11.255  -0.001  0.00  0.00    -0.252 OA
ATOM     20  N   UNL     1       3.736  11.473   0.021  0.00  0.00    -0.237 N 
ATOM     21  C   UNL     1       3.564  10.136   0.016  0.00  0.00    +0.258 C 
ATOM     22  O   UNL     1       4.528   9.401   0.004  0.00  0.00    -0.272 OA
ATOM     23  H   UNL     1       4.379  13.917   0.025  0.00  0.00    +0.150 HD
ATOM     24  H   UNL     1       2.964  12.060   0.030  0.00  0.00    +0.159 HD
BRANCH  17  25
ATOM     25  C   UNL     1       6.502  13.894   0.005  0.00  0.00    +0.108 C 
BRANCH  25  27
ATOM     26  C   UNL     1       5.792  15.891   1.328  0.00  0.00    +0.009 C 
ATOM     27  C   UNL     1       6.417  15.421   0.013  0.00  0.00    -0.000 C 
ATOM     28  C   UNL     1       7.822  16.012  -0.124  0.00  0.00    +0.009 C 
ENDBRANCH  25  27
ENDBRANCH  17  25
ENDBRANCH  16  21
ENDBRANCH   1  16
TORSDOF 7
