REMARK  Name = ZINC15930789
REMARK  5 active torsions:
REMARK  status: ('A' for Active; 'I' for Inactive)
REMARK    1  A    between atoms: C_1  and  C_2
REMARK    2  A    between atoms: C_2  and  C_32
REMARK    3  A    between atoms: C_6  and  C_16
REMARK    4  A    between atoms: C_19  and  C_21
REMARK    5  A    between atoms: C_25  and  C_27
REMARK                            x       y       z     vdW  Elec       q    Type
REMARK                         _______ _______ _______ _____ _____    ______ ____
ROOT
ATOM      1  C   UNL     1      -3.122  11.328   3.129  0.00  0.00    +0.011 C 
ATOM      2  C   UNL     1      -2.804  10.075   3.948  0.00  0.00    -0.023 C 
ATOM      3  C   UNL     1      -3.656   8.905   3.458  0.00  0.00    +0.058 C 
ATOM      4  C   UNL     1      -3.365   8.632   1.991  0.00  0.00    +0.017 C 
ATOM      5  C   UNL     1      -2.138   8.844   1.489  0.00  0.00    +0.039 C 
ATOM      6  C   UNL     1      -1.707   8.592   0.064  0.00  0.00    +0.172 C 
ATOM      7  N   UNL     1      -2.797   8.331  -0.852  0.00  0.00    -0.329 N 
ATOM      8  C   UNL     1      -3.597   7.200  -0.719  0.00  0.00    +0.049 A 
ATOM      9  C   UNL     1      -3.566   6.178  -1.654  0.00  0.00    +0.025 A 
ATOM     10  C   UNL     1      -4.295   5.024  -1.423  0.00  0.00    +0.002 A 
ATOM     11  C   UNL     1      -5.050   4.891  -0.272  0.00  0.00    +0.002 A 
ATOM     12  C   UNL     1      -5.099   5.920   0.653  0.00  0.00    +0.025 A 
ATOM     13  C   UNL     1      -4.384   7.081   0.416  0.00  0.00    +0.052 A 
ATOM     14  N   UNL     1      -4.425   8.168   1.281  0.00  0.00    -0.316 N 
ATOM     15  C   UNL     1      -1.108   9.352   2.316  0.00  0.00    +0.163 C 
ATOM     16  O   UNL     1      -0.002   9.520   1.839  0.00  0.00    -0.292 OA
ATOM     17  C   UNL     1      -1.331   9.691   3.759  0.00  0.00    +0.086 C 
ATOM     18  C   UNL     1      -3.085  10.336   5.429  0.00  0.00    +0.011 C 
ATOM     19  H   UNL     1      -2.973   8.955  -1.573  0.00  0.00    +0.147 HD
ATOM     20  H   UNL     1      -5.272   8.630   1.384  0.00  0.00    +0.152 HD
ENDROOT
BRANCH   6  21
ATOM     21  C   UNL     1      -0.776   7.407   0.049  0.00  0.00    +0.130 A 
ATOM     22  C   UNL     1       0.570   7.465   0.035  0.00  0.00    +0.047 A 
ATOM     23  C   UNL     1       1.040   6.137   0.024  0.00  0.00    +0.050 A 
ATOM     24  C   UNL     1      -0.056   5.333   0.031  0.00  0.00    +0.135 A 
ATOM     25  O   UNL     1      -1.151   6.117   0.040  0.00  0.00    -0.457 OA
BRANCH  24  26
ATOM     26  C   UNL     1      -0.048   3.855   0.023  0.00  0.00    +0.018 A 
ATOM     27  C   UNL     1       1.165   3.162   0.007  0.00  0.00    +0.011 A 
ATOM     28  C   UNL     1       1.175   1.781   0.000  0.00  0.00    +0.001 A 
ATOM     29  C   UNL     1      -0.013   1.076   0.008  0.00  0.00    +0.015 A 
ATOM     30  C   UNL     1      -1.233   1.756   0.017  0.00  0.00    +0.064 A 
ATOM     31  C   UNL     1      -1.249   3.150   0.031  0.00  0.00    +0.026 A 
BRANCH  30  32
ATOM     32  C   UNL     1      -2.502   1.000   0.019  0.00  0.00    +0.387 C 
ATOM     33  O   UNL     1      -3.562   1.593   0.028  0.00  0.00    -0.241 OA
ATOM     34  O   UNL     1      -2.484  -0.347   0.012  0.00  0.00    -0.241 OA
ENDBRANCH  30  32
ENDBRANCH  24  26
ENDBRANCH   6  21
TORSDOF 3
