REMARK  Name = ZINC08429685
REMARK  5 active torsions:
REMARK  status: ('A' for Active; 'I' for Inactive)
REMARK    1  A    between atoms: C_4  and  C_7
REMARK    2  A    between atoms: C_9  and  C_23
REMARK    3  A    between atoms: C_11  and  C_18
REMARK    4  A    between atoms: C_11  and  O_22
REMARK    5  A    between atoms: C_23  and  C_25
REMARK                            x       y       z     vdW  Elec       q    Type
REMARK                         _______ _______ _______ _____ _____    ______ ____
ROOT
ATOM      1  C   UNL     1       3.780  -0.599  -0.021  0.00  0.00    +0.144 C 
ATOM      2  C   UNL     1       4.012  -1.115  -1.451  0.00  0.00    +0.150 C 
ATOM      3  C   UNL     1       5.222  -2.050  -1.471  0.00  0.00    +0.269 C 
ATOM      4  N   UNL     1       5.026  -3.171  -0.544  0.00  0.00    -0.205 NA
ATOM      5  C   UNL     1       4.344  -2.977   0.547  0.00  0.00    +0.256 C 
ATOM      6  N   UNL     1       3.739  -1.764   0.860  0.00  0.00    -0.195 N 
ATOM      7  N   UNL     1       3.143  -1.950   2.103  0.00  0.00    -0.163 N 
ATOM      8  N   UNL     1       3.352  -3.174   2.457  0.00  0.00    -0.060 NA
ATOM      9  N   UNL     1       4.045  -3.811   1.572  0.00  0.00    -0.095 NA
ATOM     10  H   UNL     1       2.659  -1.281   2.612  0.00  0.00    +0.195 HD
ENDROOT
BRANCH   1  14
ATOM     11  C   UNL     1       0.069   1.508   0.177  0.00  0.00    +0.000 A 
ATOM     12  C   UNL     1       1.258   2.208   0.098  0.00  0.00    +0.000 A 
ATOM     13  C   UNL     1       2.459   1.527   0.034  0.00  0.00    +0.005 A 
ATOM     14  C   UNL     1       2.471   0.145   0.050  0.00  0.00    -0.024 A 
ATOM     15  C   UNL     1       1.282  -0.556   0.130  0.00  0.00    +0.005 A 
ATOM     16  C   UNL     1       0.081   0.126   0.193  0.00  0.00    +0.000 A 
ENDBRANCH   1  14
BRANCH   3  17
ATOM     17  C   UNL     1       5.415  -2.595  -2.888  0.00  0.00    +0.440 C 
ATOM     18  F   UNL     1       5.757  -1.546  -3.748  0.00  0.00    -0.166 F 
ATOM     19  F   UNL     1       6.439  -3.549  -2.885  0.00  0.00    -0.166 F 
ATOM     20  F   UNL     1       4.226  -3.188  -3.325  0.00  0.00    -0.166 F 
ENDBRANCH   3  17
BRANCH   3  21
ATOM     21  O   UNL     1       6.388  -1.319  -1.086  0.00  0.00    -0.361 OA
ATOM     22  H   UNL     1       7.198  -1.847  -1.075  0.00  0.00    +0.213 HD
ENDBRANCH   3  21
BRANCH   2  23
ATOM     23  C   UNL     1       4.266   0.051  -2.371  0.00  0.00    +0.173 C 
ATOM     24  O   UNL     1       5.153   0.839  -2.120  0.00  0.00    -0.292 OA
BRANCH  23  25
ATOM     25  C   UNL     1       3.436   0.234  -3.572  0.00  0.00    +0.018 A 
ATOM     26  C   UNL     1       2.340  -0.602  -3.804  0.00  0.00    +0.011 A 
ATOM     27  C   UNL     1       1.567  -0.424  -4.932  0.00  0.00    +0.001 A 
ATOM     28  C   UNL     1       1.874   0.580  -5.834  0.00  0.00    +0.000 A 
ATOM     29  C   UNL     1       2.958   1.412  -5.612  0.00  0.00    +0.001 A 
ATOM     30  C   UNL     1       3.737   1.250  -4.486  0.00  0.00    +0.011 A 
ENDBRANCH  23  25
ENDBRANCH   2  23
TORSDOF 5
