REMARK  Name = ZINC49959352
REMARK  5 active torsions:
REMARK  status: ('A' for Active; 'I' for Inactive)
REMARK    1  A    between atoms: C_3  and  S_27
REMARK    2  A    between atoms: C_6  and  N_7
REMARK    3  A    between atoms: C_8  and  C_10
REMARK    4  A    between atoms: C_10  and  N_11
REMARK    5  A    between atoms: S_27  and  C_28
REMARK                            x       y       z     vdW  Elec       q    Type
REMARK                         _______ _______ _______ _____ _____    ______ ____
ROOT
ATOM      1  N   UNL     1      -1.202  -0.721   0.010  0.00  0.00    -0.284 N 
ATOM      2  C   UNL     1      -1.187  -2.064  -0.099  0.00  0.00    +0.235 C 
ATOM      3  O   UNL     1      -0.131  -2.660  -0.113  0.00  0.00    -0.274 OA
ATOM      4  H   UNL     1      -2.046  -0.250   0.088  0.00  0.00    +0.155 HD
ENDROOT
BRANCH   1  10
ATOM      5  C   UNL     1       0.065   1.248  -0.586  0.00  0.00    +0.024 A 
ATOM      6  C   UNL     1       1.252   1.954  -0.586  0.00  0.00    +0.017 A 
ATOM      7  C   UNL     1       2.383   1.411   0.011  0.00  0.00    +0.016 A 
ATOM      8  C   UNL     1       2.319   0.158   0.607  0.00  0.00    +0.017 A 
ATOM      9  C   UNL     1       1.133  -0.548   0.607  0.00  0.00    +0.024 A 
ATOM     10  C   UNL     1       0.003  -0.005   0.010  0.00  0.00    +0.033 A 
BRANCH   7  11
ATOM     11  S   UNL     1       3.897   2.311   0.011  0.00  0.00    -0.016 S 
BRANCH  11  12
ATOM     12  C   UNL     1       5.056   1.222   0.884  0.00  0.00    +0.448 C 
ATOM     13  F   UNL     1       5.164   0.009   0.196  0.00  0.00    -0.160 F 
ATOM     14  F   UNL     1       6.312   1.834   0.950  0.00  0.00    -0.160 F 
ATOM     15  F   UNL     1       4.585   0.983   2.179  0.00  0.00    -0.160 F 
ENDBRANCH  11  12
ENDBRANCH   7  11
ENDBRANCH   1  10
BRANCH   2  16
ATOM     16  C   UNL     1      -2.483  -2.826  -0.205  0.00  0.00    +0.212 C 
BRANCH  16  17
ATOM     17  N   UNL     1      -2.200  -4.259  -0.312  0.00  0.00    -0.233 N 
ATOM     18  C   UNL     1      -2.017  -4.874  -1.486  0.00  0.00    +0.227 C 
ATOM     19  O   UNL     1      -2.063  -4.338  -2.572  0.00  0.00    -0.275 OA
ATOM     20  C   UNL     1      -1.744  -6.342  -1.248  0.00  0.00    +0.095 C 
ATOM     21  C   UNL     1      -0.250  -6.626  -1.601  0.00  0.00    +0.025 C 
ATOM     22  C   UNL     1       0.091  -7.729  -0.534  0.00  0.00    +0.016 C 
ATOM     23  C   UNL     1      -0.306  -6.810   0.678  0.00  0.00    +0.025 C 
ATOM     24  C   UNL     1      -1.804  -6.471   0.302  0.00  0.00    +0.095 C 
ATOM     25  C   UNL     1      -2.097  -5.059   0.756  0.00  0.00    +0.227 C 
ATOM     26  O   UNL     1      -2.222  -4.705   1.909  0.00  0.00    -0.275 OA
ATOM     27  C   UNL     1       0.477  -5.543   0.313  0.00  0.00    -0.027 C 
ATOM     28  C   UNL     1       0.507  -5.426  -1.020  0.00  0.00    -0.027 C 
ENDBRANCH  16  17
ENDBRANCH   2  16
TORSDOF 5
