REMARK  Name = ZINC59271546
REMARK  7 active torsions:
REMARK  status: ('A' for Active; 'I' for Inactive)
REMARK    1  A    between atoms: C_1  and  C_2
REMARK    2  A    between atoms: C_2  and  N_3
REMARK    3  A    between atoms: C_4  and  C_6
REMARK    4  A    between atoms: C_6  and  C_7
REMARK    5  A    between atoms: C_7  and  S_8
REMARK    6  A    between atoms: S_8  and  C_9
REMARK    7  A    between atoms: N_19  and  C_20
REMARK                            x       y       z     vdW  Elec       q    Type
REMARK                         _______ _______ _______ _____ _____    ______ ____
ROOT
ATOM      1  C   UNL     1      -4.504  -6.270   0.011  0.00  0.00    +0.211 A 
ATOM      2  N   UNL     1      -5.582  -7.043   0.012  0.00  0.00    -0.201 NA
ATOM      3  C   UNL     1      -5.435  -8.364   0.003  0.00  0.00    +0.165 A 
ATOM      4  C   UNL     1      -4.128  -8.893  -0.007  0.00  0.00    +0.138 A 
ATOM      5  C   UNL     1      -4.274 -10.359  -0.015  0.00  0.00    +0.029 A 
ATOM      6  C   UNL     1      -3.366 -11.415  -0.025  0.00  0.00    +0.012 A 
ATOM      7  C   UNL     1      -3.826 -12.714  -0.030  0.00  0.00    +0.001 A 
ATOM      8  C   UNL     1      -5.188 -12.972  -0.024  0.00  0.00    +0.002 A 
ATOM      9  C   UNL     1      -6.098 -11.937  -0.014  0.00  0.00    +0.026 A 
ATOM     10  C   UNL     1      -5.653 -10.619  -0.009  0.00  0.00    +0.053 A 
ATOM     11  N   UNL     1      -6.327  -9.408   0.002  0.00  0.00    -0.327 N 
ATOM     12  C   UNL     1      -7.785  -9.263   0.010  0.00  0.00    +0.151 C 
ATOM     13  N   UNL     1      -3.092  -8.067  -0.007  0.00  0.00    -0.143 NA
ATOM     14  N   UNL     1      -3.281  -6.792  -0.003  0.00  0.00    -0.122 NA
ENDROOT
BRANCH   1  15
ATOM     15  S   UNL     1      -4.696  -4.519   0.023  0.00  0.00    -0.084 S 
BRANCH  15  16
ATOM     16  C   UNL     1      -2.994  -3.891   0.010  0.00  0.00    +0.086 C 
BRANCH  16  17
ATOM     17  C   UNL     1      -3.014  -2.361   0.018  0.00  0.00    +0.107 C 
BRANCH  17  19
ATOM     18  N   UNL     1      -1.372  -0.511   0.012  0.00  0.00    -0.316 N 
ATOM     19  C   UNL     1      -1.601  -1.839   0.007  0.00  0.00    +0.214 C 
ATOM     20  O   UNL     1      -0.668  -2.615  -0.006  0.00  0.00    -0.276 OA
ATOM     21  H   UNL     1      -2.118   0.109   0.023  0.00  0.00    +0.149 HD
BRANCH  18  23
ATOM     22  C   UNL     1      -0.019   1.526   0.010  0.00  0.00    +0.024 C 
ATOM     23  C   UNL     1       0.002  -0.004   0.002  0.00  0.00    +0.101 C 
ENDBRANCH  18  23
ENDBRANCH  17  19
ENDBRANCH  16  17
ENDBRANCH  15  16
ENDBRANCH   1  15
TORSDOF 5
