REMARK  Name = ZINC50117992
REMARK  8 active torsions:
REMARK  status: ('A' for Active; 'I' for Inactive)
REMARK    1  A    between atoms: C_1  and  C_2
REMARK    2  A    between atoms: C_2  and  C_3
REMARK    3  A    between atoms: C_2  and  C_4
REMARK    4  A    between atoms: C_4  and  N_5
REMARK    5  A    between atoms: C_6  and  C_8
REMARK    6  A    between atoms: C_8  and  N_9
REMARK    7  A    between atoms: N_12  and  N_13
REMARK    8  A    between atoms: N_13  and  C_14
REMARK                            x       y       z     vdW  Elec       q    Type
REMARK                         _______ _______ _______ _____ _____    ______ ____
ROOT
ATOM      1  N   UNL     1       5.202  -0.844  -3.206  0.00  0.00    -0.290 N 
ATOM      2  C   UNL     1       6.482  -0.484  -3.426  0.00  0.00    +0.316 C 
ATOM      3  O   UNL     1       7.119   0.067  -2.549  0.00  0.00    -0.251 OA
ATOM      4  N   UNL     1       7.056  -0.734  -4.620  0.00  0.00    -0.220 N 
ATOM      5  H   UNL     1       4.694  -1.283  -3.906  0.00  0.00    +0.151 HD
ATOM      6  H   UNL     1       7.978  -0.475  -4.779  0.00  0.00    +0.174 HD
ENDROOT
BRANCH   4   7
ATOM      7  N   UNL     1       6.323  -1.369  -5.631  0.00  0.00    -0.258 N 
ATOM      8  H   UNL     1       5.380  -1.558  -5.500  0.00  0.00    +0.170 HD
BRANCH   7   9
ATOM      9  C   UNL     1       6.950  -1.730  -6.830  0.00  0.00    +0.121 A 
ATOM     10  C   UNL     1       8.269  -2.167  -6.821  0.00  0.00    +0.186 A 
ATOM     11  C   UNL     1       8.888  -2.524  -8.008  0.00  0.00    +0.198 A 
ATOM     12  C   UNL     1       8.192  -2.446  -9.204  0.00  0.00    +0.199 A 
ATOM     13  C   UNL     1       6.876  -2.010  -9.215  0.00  0.00    +0.198 A 
ATOM     14  C   UNL     1       6.253  -1.657  -8.030  0.00  0.00    +0.186 A 
ATOM     15  F   UNL     1       4.969  -1.238  -8.040  0.00  0.00    -0.200 F 
ATOM     16  F   UNL     1       6.200  -1.935 -10.382  0.00  0.00    -0.199 F 
ATOM     17  F   UNL     1       8.797  -2.794 -10.361  0.00  0.00    -0.199 F 
ATOM     18  F   UNL     1      10.170  -2.949  -8.000  0.00  0.00    -0.199 F 
ATOM     19  F   UNL     1       8.948  -2.243  -5.656  0.00  0.00    -0.200 F 
ENDBRANCH   7   9
ENDBRANCH   4   7
BRANCH   1  20
ATOM     20  C   UNL     1       4.578  -0.571  -1.909  0.00  0.00    +0.201 C 
BRANCH  20  22
ATOM     21  N   UNL     1       2.381  -0.924  -0.828  0.00  0.00    -0.314 N 
ATOM     22  C   UNL     1       3.155  -1.068  -1.921  0.00  0.00    +0.230 C 
ATOM     23  O   UNL     1       2.707  -1.598  -2.916  0.00  0.00    -0.274 OA
ATOM     24  H   UNL     1       2.740  -0.501  -0.032  0.00  0.00    +0.149 HD
BRANCH  21  25
ATOM     25  C   UNL     1       0.999  -1.408  -0.840  0.00  0.00    +0.107 C 
BRANCH  25  27
ATOM     26  C   UNL     1       0.245   0.389   0.724  0.00  0.00    +0.009 C 
ATOM     27  C   UNL     1       0.347  -1.123   0.515  0.00  0.00    -0.000 C 
ATOM     28  C   UNL     1      -1.054  -1.738   0.546  0.00  0.00    +0.009 C 
ENDBRANCH  25  27
ENDBRANCH  21  25
ENDBRANCH  20  22
ENDBRANCH   1  20
TORSDOF 6
