REMARK  Name = ZINC39594847
REMARK  9 active torsions:
REMARK  status: ('A' for Active; 'I' for Inactive)
REMARK    1  A    between atoms: C_1  and  S_2
REMARK    2  A    between atoms: S_2  and  C_3
REMARK    3  A    between atoms: C_3  and  C_4
REMARK    4  A    between atoms: C_4  and  C_5
REMARK    5  A    between atoms: C_9  and  C_18
REMARK    6  A    between atoms: N_20  and  C_21
REMARK    7  A    between atoms: C_21  and  C_22
REMARK    8  A    between atoms: C_22  and  C_24
REMARK    9  A    between atoms: C_22  and  N_30
REMARK                            x       y       z     vdW  Elec       q    Type
REMARK                         _______ _______ _______ _____ _____    ______ ____
ROOT
ATOM      1  C   UNL     1      -4.113  -2.449  -0.031  0.00  0.00    +0.216 C 
ATOM      2  O   UNL     1      -5.054  -1.685   0.002  0.00  0.00    -0.276 OA
ATOM      3  N   UNL     1      -4.324  -3.780  -0.013  0.00  0.00    -0.300 N 
ATOM      4  C   UNL     1      -3.311  -4.861  -0.040  0.00  0.00    +0.121 C 
ATOM      5  C   UNL     1      -3.854  -5.929   0.936  0.00  0.00    +0.100 C 
ATOM      6  C   UNL     1      -5.372  -5.684   0.981  0.00  0.00    -0.004 C 
ATOM      7  C   UNL     1      -5.623  -4.493   0.044  0.00  0.00    +0.115 C 
ATOM      8  C   UNL     1      -6.121  -6.915   0.483  0.00  0.00    -0.010 C 
ATOM      9  C   UNL     1      -7.629  -6.669   0.592  0.00  0.00    -0.082 C 
ATOM     10  N   UNL     1      -7.981  -6.388   1.989  0.00  0.00    +0.379 N 
ATOM     11  C   UNL     1      -7.329  -5.150   2.431  0.00  0.00    -0.082 C 
ATOM     12  C   UNL     1      -5.808  -5.333   2.400  0.00  0.00    -0.010 C 
ATOM     13  H   UNL     1      -8.982  -6.286   2.068  0.00  0.00    -0.086 HD
ATOM     14  H   UNL     1      -7.676  -7.154   2.571  0.00  0.00    -0.086 HD
ENDROOT
BRANCH   5  15
ATOM     15  C   UNL     1      -3.559  -7.312   0.416  0.00  0.00    +0.218 C 
ATOM     16  O   UNL     1      -3.504  -7.512  -0.779  0.00  0.00    -0.275 OA
ATOM     17  N   UNL     1      -3.357  -8.328   1.279  0.00  0.00    -0.316 N 
ATOM     18  H   UNL     1      -3.402  -8.168   2.235  0.00  0.00    +0.149 HD
BRANCH  17  19
ATOM     19  C   UNL     1      -3.071  -9.672   0.774  0.00  0.00    +0.093 C 
BRANCH  19  20
ATOM     20  C   UNL     1      -2.985 -10.651   1.947  0.00  0.00    -0.019 C 
BRANCH  20  21
ATOM     21  C   UNL     1      -1.799 -10.299   2.809  0.00  0.00    -0.041 A 
ATOM     22  C   UNL     1      -1.973  -9.584   3.984  0.00  0.00    +0.005 A 
ATOM     23  C   UNL     1      -0.854  -9.283   4.745  0.00  0.00    +0.020 A 
ATOM     24  C   UNL     1       0.389  -9.701   4.309  0.00  0.00    +0.111 A 
ATOM     25  N   UNL     1       0.517 -10.379   3.185  0.00  0.00    -0.263 NA
ATOM     26  C   UNL     1      -0.526 -10.688   2.440  0.00  0.00    +0.112 A 
ENDBRANCH  20  21
BRANCH  20  27
ATOM     27  N   UNL     1      -2.828 -12.018   1.434  0.00  0.00    +0.385 N 
ATOM     28  C   UNL     1      -2.765 -12.984   2.561  0.00  0.00    -0.078 C 
ATOM     29  C   UNL     1      -3.168 -14.326   1.901  0.00  0.00    -0.020 C 
ATOM     30  C   UNL     1      -4.262 -13.902   0.894  0.00  0.00    -0.020 C 
ATOM     31  C   UNL     1      -4.014 -12.403   0.639  0.00  0.00    -0.078 C 
ATOM     32  H   UNL     1      -1.994 -12.085   0.870  0.00  0.00    -0.081 HD
ENDBRANCH  20  27
ENDBRANCH  19  20
ENDBRANCH  17  19
ENDBRANCH   5  15
BRANCH   1  33
ATOM     33  C   UNL     1      -2.706  -1.910  -0.091  0.00  0.00    +0.106 C 
BRANCH  33  34
ATOM     34  C   UNL     1      -2.746  -0.380  -0.100  0.00  0.00    +0.078 C 
BRANCH  34  36
ATOM     35  C   UNL     1      -1.273   2.069  -0.176  0.00  0.00    +0.084 C 
ATOM     36  S   UNL     1      -1.054   0.268  -0.172  0.00  0.00    -0.164 S 
ENDBRANCH  34  36
ENDBRANCH  33  34
ENDBRANCH   1  33
TORSDOF 8
