REMARK  Name = ZINC39689232
REMARK  5 active torsions:
REMARK  status: ('A' for Active; 'I' for Inactive)
REMARK    1  A    between atoms: C_4  and  N_6
REMARK    2  A    between atoms: C_9  and  C_12
REMARK    3  A    between atoms: C_12  and  N_13
REMARK    4  A    between atoms: C_14  and  C_16
REMARK    5  A    between atoms: C_27  and  C_29
REMARK                            x       y       z     vdW  Elec       q    Type
REMARK                         _______ _______ _______ _____ _____    ______ ____
ROOT
ATOM      1  C   UNL     1      -1.294  -7.902  -4.736  0.00  0.00    +0.100 C 
ATOM      2  C   UNL     1       0.018  -8.664  -4.446  0.00  0.00    +0.121 C 
ATOM      3  N   UNL     1      -0.199 -10.014  -5.017  0.00  0.00    -0.300 N 
ATOM      4  C   UNL     1      -0.932  -9.767  -6.281  0.00  0.00    +0.115 C 
ATOM      5  C   UNL     1      -1.914  -8.628  -5.942  0.00  0.00    -0.004 C 
ATOM      6  C   UNL     1      -2.043  -7.673  -7.125  0.00  0.00    -0.010 C 
ATOM      7  C   UNL     1      -2.715  -8.401  -8.292  0.00  0.00    -0.082 C 
ATOM      8  N   UNL     1      -4.040  -8.879  -7.876  0.00  0.00    +0.379 N 
ATOM      9  C   UNL     1      -3.900  -9.867  -6.800  0.00  0.00    -0.082 C 
ATOM     10  C   UNL     1      -3.278  -9.201  -5.569  0.00  0.00    -0.010 C 
ATOM     11  C   UNL     1       0.183 -11.200  -4.502  0.00  0.00    +0.219 C 
ATOM     12  O   UNL     1       0.710 -11.246  -3.410  0.00  0.00    -0.275 OA
ATOM     13  H   UNL     1      -4.588  -8.099  -7.545  0.00  0.00    -0.086 HD
ATOM     14  H   UNL     1      -4.505  -9.304  -8.664  0.00  0.00    -0.086 HD
ENDROOT
BRANCH  11  15
ATOM     15  C   UNL     1      -0.043 -12.469  -5.283  0.00  0.00    +0.079 C 
ATOM     16  C   UNL     1      -0.128 -13.659  -4.319  0.00  0.00    +0.017 C 
ATOM     17  C   UNL     1      -0.534 -14.900  -5.118  0.00  0.00    +0.027 C 
ATOM     18  C   UNL     1       0.333 -15.038  -6.335  0.00  0.00    -0.031 C 
ATOM     19  C   UNL     1       1.053 -14.080  -6.825  0.00  0.00    -0.030 C 
ATOM     20  C   UNL     1       1.128 -12.699  -6.241  0.00  0.00    +0.039 C 
ENDBRANCH  11  15
BRANCH   1  22
ATOM     21  N   UNL     1      -1.917  -5.510  -4.830  0.00  0.00    -0.315 N 
ATOM     22  C   UNL     1      -1.001  -6.465  -5.083  0.00  0.00    +0.218 C 
ATOM     23  O   UNL     1       0.060  -6.168  -5.590  0.00  0.00    -0.275 OA
ATOM     24  H   UNL     1      -2.766  -5.748  -4.425  0.00  0.00    +0.149 HD
BRANCH  21  25
ATOM     25  C   UNL     1      -1.632  -4.113  -5.168  0.00  0.00    +0.107 C 
BRANCH  25  29
ATOM     26  N   UNL     1      -4.823  -1.298  -5.578  0.00  0.00    +0.382 N 
ATOM     27  C   UNL     1      -3.711  -0.907  -4.703  0.00  0.00    -0.078 C 
ATOM     28  C   UNL     1      -2.485  -1.767  -5.016  0.00  0.00    -0.014 C 
ATOM     29  C   UNL     1      -2.828  -3.241  -4.781  0.00  0.00    +0.003 C 
ATOM     30  C   UNL     1      -4.037  -3.617  -5.643  0.00  0.00    -0.014 C 
ATOM     31  C   UNL     1      -5.205  -2.688  -5.306  0.00  0.00    -0.078 C 
ATOM     32  H   UNL     1      -4.537  -1.210  -6.542  0.00  0.00    -0.081 HD
BRANCH  26  36
ATOM     33  C   UNL     1      -7.391   0.506  -7.127  0.00  0.00    -0.002 C 
ATOM     34  C   UNL     1      -6.859   1.662  -6.244  0.00  0.00    -0.002 C 
ATOM     35  C   UNL     1      -5.587   1.049  -5.609  0.00  0.00    -0.015 C 
ATOM     36  C   UNL     1      -5.973  -0.418  -5.328  0.00  0.00    -0.069 C 
ATOM     37  C   UNL     1      -7.120  -0.763  -6.293  0.00  0.00    -0.015 C 
ENDBRANCH  26  36
ENDBRANCH  25  29
ENDBRANCH  21  25
ENDBRANCH   1  22
TORSDOF 5
