REMARK  Name = ZINC00420317
REMARK  7 active torsions:
REMARK  status: ('A' for Active; 'I' for Inactive)
REMARK    1  A    between atoms: C_1  and  C_2
REMARK    2  A    between atoms: C_4  and  C_25
REMARK    3  A    between atoms: C_6  and  N_8
REMARK    4  A    between atoms: C_9  and  C_11
REMARK    5  A    between atoms: C_11  and  O_12
REMARK    6  A    between atoms: O_12  and  C_13
REMARK    7  A    between atoms: C_17  and  C_24
REMARK                            x       y       z     vdW  Elec       q    Type
REMARK                         _______ _______ _______ _____ _____    ______ ____
ROOT
ATOM      1  C   UNL     1       4.863   4.229  -0.240  0.00  0.00    +0.324 C 
ENDROOT
BRANCH   1   3
ATOM      2  N   UNL     1       3.584   2.123  -0.022  0.00  0.00    -0.283 N 
ATOM      3  C   UNL     1       3.568   3.468  -0.117  0.00  0.00    +0.255 C 
ATOM      4  O   UNL     1       2.513   4.065  -0.103  0.00  0.00    -0.272 OA
ATOM      5  H   UNL     1       4.429   1.652   0.044  0.00  0.00    +0.155 HD
BRANCH   2  11
ATOM      6  C   UNL     1       0.955  -1.731   1.529  0.00  0.00    +0.044 C 
ATOM      7  C   UNL     1       1.080  -0.465   0.721  0.00  0.00    -0.048 A 
ATOM      8  C   UNL     1       0.002  -0.005  -0.013  0.00  0.00    +0.006 A 
ATOM      9  C   UNL     1       0.111   1.160  -0.751  0.00  0.00    -0.048 A 
ATOM     10  C   UNL     1       1.297   1.868  -0.756  0.00  0.00    +0.026 A 
ATOM     11  C   UNL     1       2.381   1.409  -0.019  0.00  0.00    +0.034 A 
ATOM     12  C   UNL     1       2.269   0.238   0.720  0.00  0.00    +0.026 A 
ATOM     13  C   UNL     1      -1.066   1.657  -1.550  0.00  0.00    +0.044 C 
ENDBRANCH   2  11
ENDBRANCH   1   3
BRANCH   1  14
ATOM     14  O   UNL     1       4.586   5.629  -0.325  0.00  0.00    -0.483 OA
BRANCH  14  15
ATOM     15  C   UNL     1       5.652   6.462  -0.440  0.00  0.00    +0.125 A 
ATOM     16  C   UNL     1       6.942   5.935  -0.465  0.00  0.00    +0.046 A 
ATOM     17  C   UNL     1       8.023   6.758  -0.586  0.00  0.00    +0.015 A 
ATOM     18  C   UNL     1       7.836   8.143  -0.675  0.00  0.00    +0.021 A 
ATOM     19  C   UNL     1       8.978   9.051  -0.800  0.00  0.00    -0.033 A 
ATOM     20  C   UNL     1       8.731  10.384  -0.882  0.00  0.00    +0.096 A 
ATOM     21  C   UNL     1       7.402  10.855  -0.846  0.00  0.00    +0.337 A 
ATOM     22  O   UNL     1       7.195  12.053  -0.920  0.00  0.00    -0.245 OA
ATOM     23  O   UNL     1       6.360  10.017  -0.731  0.00  0.00    -0.422 OA
ATOM     24  C   UNL     1       6.536   8.681  -0.645  0.00  0.00    +0.143 A 
ATOM     25  C   UNL     1       5.449   7.829  -0.527  0.00  0.00    +0.092 A 
ATOM     26  C   UNL     1      10.388   8.521  -0.838  0.00  0.00    +0.045 C 
ENDBRANCH  14  15
ENDBRANCH   1  14
TORSDOF 4
