REMARK  Name = ZINC20613909
REMARK  16 active torsions:
REMARK  status: ('A' for Active; 'I' for Inactive)
REMARK    1  A    between atoms: C_1  and  C_2
REMARK    2  A    between atoms: C_2  and  N_3
REMARK    3  A    between atoms: N_3  and  C_4
REMARK    4  A    between atoms: N_3  and  C_6
REMARK    5  A    between atoms: C_4  and  C_5
REMARK    6  A    between atoms: C_6  and  C_7
REMARK    7  A    between atoms: C_7  and  C_8
REMARK    8  A    between atoms: C_8  and  N_9
REMARK    9  A    between atoms: N_9  and  C_10
REMARK   10  A    between atoms: C_10  and  N_12
REMARK   11  A    between atoms: N_12  and  N_13
REMARK   12  A    between atoms: C_14  and  C_16
REMARK   13  A    between atoms: C_19  and  C_21
REMARK   14  A    between atoms: C_21  and  O_22
REMARK   15  A    between atoms: O_22  and  C_23
REMARK   16  A    between atoms: C_28  and  C_29
REMARK                            x       y       z     vdW  Elec       q    Type
REMARK                         _______ _______ _______ _____ _____    ______ ____
ROOT
ATOM      1  N   UNL     1       3.602   2.303  -1.726  0.00  0.00    -0.229 N 
ATOM      2  C   UNL     1       2.902   1.167  -1.913  0.00  0.00    +0.295 C 
ATOM      3  O   UNL     1       3.474   0.149  -2.259  0.00  0.00    -0.265 OA
ATOM      4  H   UNL     1       3.086   3.222  -1.413  0.00  0.00    +0.173 HD
ENDROOT
BRANCH   2   5
ATOM      5  C   UNL     1       1.451   1.156  -1.701  0.00  0.00    +0.191 A 
ATOM      6  C   UNL     1       0.625   0.079  -1.855  0.00  0.00    +0.055 A 
ATOM      7  C   UNL     1      -0.672   0.519  -1.549  0.00  0.00    +0.049 A 
ATOM      8  C   UNL     1      -0.583   1.828  -1.226  0.00  0.00    +0.143 A 
ATOM      9  O   UNL     1       0.698   2.208  -1.319  0.00  0.00    -0.452 OA
BRANCH   8  10
ATOM     10  C   UNL     1      -1.736   2.716  -0.833  0.00  0.00    +0.303 C 
BRANCH  10  11
ATOM     11  O   UNL     1      -1.914   2.665   0.584  0.00  0.00    -0.484 OA
BRANCH  11  12
ATOM     12  C   UNL     1      -2.920   3.415   1.107  0.00  0.00    +0.124 A 
ATOM     13  C   UNL     1      -3.719   4.184   0.273  0.00  0.00    +0.047 A 
ATOM     14  C   UNL     1      -4.741   4.944   0.805  0.00  0.00    +0.023 A 
ATOM     15  C   UNL     1      -4.968   4.940   2.171  0.00  0.00    +0.041 A 
ATOM     16  C   UNL     1      -4.173   4.175   3.004  0.00  0.00    +0.027 A 
ATOM     17  C   UNL     1      -3.153   3.408   2.474  0.00  0.00    -0.007 A 
ATOM     18  C   UNL     1      -2.291   2.569   3.382  0.00  0.00    +0.047 C 
ATOM     19 CL   UNL     1      -6.254   5.898   2.838  0.00  0.00    -0.084 Cl
ENDBRANCH  11  12
ENDBRANCH  10  11
ENDBRANCH   8  10
ENDBRANCH   2   5
BRANCH   1  20
ATOM     20  N   UNL     1       4.989   2.313  -1.929  0.00  0.00    -0.246 N 
ATOM     21  H   UNL     1       5.505   1.393  -2.241  0.00  0.00    +0.172 HD
BRANCH  20  22
ATOM     22  C   UNL     1       5.689   3.449  -1.741  0.00  0.00    +0.147 C 
ATOM     23  S   UNL     1       7.383   3.461  -1.989  0.00  0.00    -0.017 S 
BRANCH  22  24
ATOM     24  N   UNL     1       5.056   4.575  -1.358  0.00  0.00    -0.326 N 
ATOM     25  H   UNL     1       3.967   4.567  -1.199  0.00  0.00    +0.148 HD
BRANCH  24  26
ATOM     26  C   UNL     1       5.817   5.810  -1.155  0.00  0.00    +0.101 C 
BRANCH  26  27
ATOM     27  C   UNL     1       4.867   6.930  -0.726  0.00  0.00    +0.000 C 
BRANCH  27  28
ATOM     28  C   UNL     1       5.662   8.220  -0.513  0.00  0.00    -0.077 C 
BRANCH  28  29
ATOM     29  N   UNL     1       4.749   9.295  -0.102  0.00  0.00    +0.379 N 
ATOM     30  H   UNL     1       3.925   9.336  -0.830  0.00  0.00    -0.082 HD
BRANCH  29  32
ATOM     31  C   UNL     1       5.292   8.930   2.258  0.00  0.00    -0.017 C 
ATOM     32  C   UNL     1       4.171   9.019   1.220  0.00  0.00    -0.082 C 
ENDBRANCH  29  32
BRANCH  29  33
ATOM     33  C   UNL     1       5.429  10.597  -0.117  0.00  0.00    -0.082 C 
ATOM     34  C   UNL     1       4.388  11.717  -0.073  0.00  0.00    -0.017 C 
ENDBRANCH  29  33
ENDBRANCH  28  29
ENDBRANCH  27  28
ENDBRANCH  26  27
ENDBRANCH  24  26
ENDBRANCH  22  24
ENDBRANCH  20  22
ENDBRANCH   1  20
TORSDOF 13
