REMARK  Name = ZINC36598218
REMARK  16 active torsions:
REMARK  status: ('A' for Active; 'I' for Inactive)
REMARK    1  A    between atoms: C_1  and  C_2
REMARK    2  A    between atoms: C_5  and  C_7
REMARK    3  A    between atoms: C_7  and  N_8
REMARK    4  A    between atoms: N_8  and  C_9
REMARK    5  A    between atoms: C_9  and  C_11
REMARK    6  A    between atoms: C_9  and  C_20
REMARK    7  A    between atoms: C_12  and  O_19
REMARK    8  A    between atoms: C_14  and  O_18
REMARK    9  A    between atoms: C_16  and  O_17
REMARK   10  A    between atoms: N_22  and  C_23
REMARK   11  A    between atoms: C_23  and  C_24
REMARK   12  A    between atoms: C_23  and  C_25
REMARK   13  A    between atoms: C_23  and  C_26
REMARK   14  A    between atoms: C_27  and  C_29
REMARK   15  A    between atoms: C_29  and  C_30
REMARK   16  A    between atoms: C_30  and  S_31
REMARK                            x       y       z     vdW  Elec       q    Type
REMARK                         _______ _______ _______ _____ _____    ______ ____
ROOT
ATOM      1  C   UNL     1       3.010  -2.900  -2.052  0.00  0.00    +0.200 C 
ENDROOT
BRANCH   1   2
ATOM      2  C   UNL     1       3.095  -4.325  -2.535  0.00  0.00    +0.065 A 
ATOM      3  C   UNL     1       3.932  -4.650  -3.592  0.00  0.00    +0.129 A 
ATOM      4  C   UNL     1       4.010  -5.962  -4.037  0.00  0.00    +0.091 A 
ATOM      5  C   UNL     1       3.251  -6.948  -3.424  0.00  0.00    +0.124 A 
ATOM      6  C   UNL     1       2.415  -6.622  -2.367  0.00  0.00    +0.091 A 
ATOM      7  C   UNL     1       2.340  -5.312  -1.919  0.00  0.00    +0.129 A 
BRANCH   7   8
ATOM      8  O   UNL     1       1.524  -4.994  -0.880  0.00  0.00    -0.506 OA
ATOM      9  H   UNL     1       0.603  -4.848  -1.134  0.00  0.00    +0.292 HD
ENDBRANCH   7   8
BRANCH   5  10
ATOM     10  O   UNL     1       3.327  -8.232  -3.860  0.00  0.00    -0.507 OA
ATOM     11  H   UNL     1       4.007  -8.758  -3.418  0.00  0.00    +0.292 HD
ENDBRANCH   5  10
BRANCH   3  12
ATOM     12  O   UNL     1       4.675  -3.684  -4.192  0.00  0.00    -0.506 OA
ATOM     13  H   UNL     1       5.576  -3.611  -3.849  0.00  0.00    +0.292 HD
ENDBRANCH   3  12
ENDBRANCH   1   2
BRANCH   1  14
ATOM     14  C   UNL     1       2.937  -1.972  -3.237  0.00  0.00    +0.239 C 
ATOM     15  O   UNL     1       1.920  -1.906  -3.895  0.00  0.00    -0.273 OA
ATOM     16  N   UNL     1       4.002  -1.214  -3.566  0.00  0.00    -0.309 N 
ATOM     17  H   UNL     1       4.846  -1.335  -3.103  0.00  0.00    +0.149 HD
BRANCH  16  18
ATOM     18  C   UNL     1       3.885  -0.205  -4.622  0.00  0.00    +0.026 C 
ATOM     19  C   UNL     1       2.810   0.814  -4.238  0.00  0.00    +0.031 C 
ATOM     20  C   UNL     1       5.227   0.509  -4.795  0.00  0.00    +0.031 C 
ATOM     21  C   UNL     1       3.496  -0.886  -5.936  0.00  0.00    +0.031 C 
ENDBRANCH  16  18
ENDBRANCH   1  14
BRANCH   1  22
ATOM     22  N   UNL     1       1.811  -2.735  -1.227  0.00  0.00    -0.278 N 
ATOM     23  C   UNL     1       0.591  -2.941  -1.763  0.00  0.00    +0.218 C 
ATOM     24  O   UNL     1       0.488  -3.450  -2.859  0.00  0.00    -0.276 OA
BRANCH  22  25
ATOM     25  C   UNL     1       1.937  -2.345   0.179  0.00  0.00    +0.183 C 
BRANCH  25  30
ATOM     26  C   UNL     1       3.490   2.450   0.370  0.00  0.00    +0.086 C 
ATOM     27  C   UNL     1       2.588   1.243   0.371  0.00  0.00    +0.102 A 
ATOM     28  C   UNL     1       1.250   1.261   0.503  0.00  0.00    +0.045 A 
ATOM     29  C   UNL     1       0.814  -0.083   0.450  0.00  0.00    +0.046 A 
ATOM     30  C   UNL     1       1.913  -0.842   0.288  0.00  0.00    +0.122 A 
ATOM     31  O   UNL     1       2.984  -0.033   0.236  0.00  0.00    -0.463 OA
ENDBRANCH  25  30
ENDBRANCH  22  25
BRANCH  23  32
ATOM     32  C   UNL     1      -0.644  -2.538  -0.999  0.00  0.00    +0.106 C 
BRANCH  32  33
ATOM     33  C   UNL     1      -1.887  -2.879  -1.824  0.00  0.00    +0.075 C 
BRANCH  33  34
ATOM     34  S   UNL     1      -3.374  -2.395  -0.905  0.00  0.00    -0.178 S 
ATOM     35  H   UNL     1      -4.387  -2.740  -1.721  0.00  0.00    +0.102 HD
ENDBRANCH  33  34
ENDBRANCH  32  33
ENDBRANCH  23  32
ENDBRANCH   1  22
TORSDOF 12
