REMARK  Name = ZINC63515174
REMARK  12 active torsions:
REMARK  status: ('A' for Active; 'I' for Inactive)
REMARK    1  A    between atoms: C_1  and  C_2
REMARK    2  A    between atoms: C_4  and  C_12
REMARK    3  A    between atoms: C_12  and  C_13
REMARK    4  A    between atoms: C_13  and  N_14
REMARK    5  A    between atoms: C_18  and  C_22
REMARK    6  A    between atoms: C_18  and  C_23
REMARK    7  A    between atoms: C_19  and  C_20
REMARK    8  A    between atoms: C_19  and  O_21
REMARK    9  A    between atoms: C_23  and  C_24
REMARK   10  A    between atoms: C_24  and  C_25
REMARK   11  A    between atoms: C_26  and  C_27
REMARK   12  A    between atoms: C_26  and  C_28
REMARK                            x       y       z     vdW  Elec       q    Type
REMARK                         _______ _______ _______ _____ _____    ______ ____
ROOT
ATOM      1  N   UNL     1      -0.981  -0.086  -5.203  0.00  0.00    -0.235 N 
ATOM      2  C   UNL     1      -1.625  -0.856  -6.100  0.00  0.00    +0.406 C 
ATOM      3  O   UNL     1      -2.383  -1.754  -5.793  0.00  0.00    -0.226 OA
ATOM      4  O   UNL     1      -1.339  -0.526  -7.371  0.00  0.00    -0.439 OA
ATOM      5  C   UNL     1      -0.792   0.807  -7.373  0.00  0.00    +0.158 C 
ATOM      6  C   UNL     1      -0.193   0.913  -5.952  0.00  0.00    +0.175 C 
ATOM      7  C   UNL     1       1.291   0.541  -5.961  0.00  0.00    +0.068 C 
ATOM      8  C   UNL     1      -1.893   1.850  -7.574  0.00  0.00    +0.060 C 
ENDROOT
BRANCH   6   9
ATOM      9  O   UNL     1      -0.387   2.222  -5.413  0.00  0.00    -0.368 OA
ATOM     10  H   UNL     1      -0.105   2.314  -4.492  0.00  0.00    +0.212 HD
ENDBRANCH   6   9
BRANCH   1  11
ATOM     11  C   UNL     1      -1.054  -0.212  -3.746  0.00  0.00    +0.118 C 
BRANCH  11  12
ATOM     12  C   UNL     1      -2.204   0.647  -3.216  0.00  0.00    +0.052 C 
BRANCH  12  15
ATOM     13  C   UNL     1      -3.127   2.716  -0.897  0.00  0.00    +0.035 C 
ATOM     14  C   UNL     1      -3.267   1.196  -0.794  0.00  0.00    +0.103 C 
ATOM     15  C   UNL     1      -2.279   0.517  -1.717  0.00  0.00    -0.037 C 
ATOM     16  C   UNL     1      -1.477  -0.230  -0.924  0.00  0.00    -0.001 A 
ATOM     17  C   UNL     1      -0.339  -1.111  -1.210  0.00  0.00    +0.010 A 
ATOM     18  C   UNL     1       0.278  -1.740  -0.183  0.00  0.00    +0.001 A 
ATOM     19  C   UNL     1      -0.142  -1.571   1.143  0.00  0.00    +0.002 A 
ATOM     20  C   UNL     1      -1.179  -0.777   1.485  0.00  0.00    +0.026 A 
ATOM     21  C   UNL     1      -1.901  -0.068   0.485  0.00  0.00    +0.043 A 
ATOM     22  N   UNL     1      -2.926   0.748   0.561  0.00  0.00    -0.378 N 
ATOM     23  H   UNL     1      -3.382   1.011   1.376  0.00  0.00    +0.160 HD
ENDBRANCH  12  15
ENDBRANCH  11  12
ENDBRANCH   1  11
BRANCH   5  24
ATOM     24  C   UNL     1       0.295   0.950  -8.440  0.00  0.00    +0.056 C 
BRANCH  24  25
ATOM     25  C   UNL     1      -0.334   0.822  -9.829  0.00  0.00    +0.031 C 
BRANCH  25  26
ATOM     26  C   UNL     1       0.737   0.963 -10.880  0.00  0.00    -0.028 C 
ATOM     27  C   UNL     1       0.941  -0.004 -11.740  0.00  0.00    -0.080 C 
ATOM     28  C   UNL     1       0.200  -1.309 -11.597  0.00  0.00    +0.038 C 
ATOM     29  C   UNL     1       1.918   0.188 -12.871  0.00  0.00    +0.038 C 
ENDBRANCH  25  26
ENDBRANCH  24  25
ENDBRANCH   5  24
TORSDOF 7
