REMARK  Name = ZINC23983654
REMARK  7 active torsions:
REMARK  status: ('A' for Active; 'I' for Inactive)
REMARK    1  A    between atoms: C_1  and  C_2
REMARK    2  A    between atoms: C_2  and  C_4
REMARK    3  A    between atoms: C_2  and  N_17
REMARK    4  A    between atoms: N_17  and  C_18
REMARK    5  A    between atoms: C_18  and  C_19
REMARK    6  A    between atoms: N_21  and  C_31
REMARK    7  A    between atoms: C_23  and  C_24
REMARK                            x       y       z     vdW  Elec       q    Type
REMARK                         _______ _______ _______ _____ _____    ______ ____
ROOT
ATOM      1  N   UNL     1      -0.704   2.017   1.221  0.00  0.00    +0.389 N 
ATOM      2  H   UNL     1      -0.492   1.335   2.057  0.00  0.00    -0.084 HD
ATOM      3  H   UNL     1      -0.342   3.025   1.469  0.00  0.00    -0.084 HD
ENDROOT
BRANCH   1   5
ATOM      4  C   UNL     1      -0.017   0.005   0.005  0.00  0.00    -0.004 C 
ATOM      5  C   UNL     1      -0.023   1.535   0.012  0.00  0.00    +0.014 C 
BRANCH   5   6
ATOM      6  C   UNL     1       1.396   2.043  -0.001  0.00  0.00    +0.206 C 
ATOM      7  O   UNL     1       1.947   2.329   1.042  0.00  0.00    -0.277 OA
ATOM      8  N   UNL     1       2.053   2.179  -1.170  0.00  0.00    -0.262 N 
ATOM      9  C   UNL     1       1.377   1.935  -2.453  0.00  0.00    +0.209 C 
ATOM     10  C   UNL     1       2.306   1.169  -3.360  0.00  0.00    +0.235 C 
ATOM     11  O   UNL     1       1.845   0.424  -4.198  0.00  0.00    -0.274 OA
ATOM     12  N   UNL     1       3.642   1.302  -3.250  0.00  0.00    -0.283 N 
ATOM     13  C   UNL     1       4.200   2.115  -2.258  0.00  0.00    +0.055 A 
ATOM     14  C   UNL     1       3.402   2.565  -1.202  0.00  0.00    +0.058 A 
ATOM     15  C   UNL     1       3.944   3.359  -0.211  0.00  0.00    +0.025 A 
ATOM     16  C   UNL     1       5.279   3.720  -0.272  0.00  0.00    +0.002 A 
ATOM     17  C   UNL     1       6.069   3.285  -1.320  0.00  0.00    +0.002 A 
ATOM     18  C   UNL     1       5.535   2.484  -2.313  0.00  0.00    +0.025 A 
ATOM     19  H   UNL     1       4.306   0.768  -3.945  0.00  0.00    +0.155 HD
ENDBRANCH   5   6
ENDBRANCH   1   5
BRANCH   1  20
ATOM     20  C   UNL     1      -2.158   2.075   1.018  0.00  0.00    -0.042 C 
BRANCH  20  21
ATOM     21  C   UNL     1      -2.822   2.572   2.276  0.00  0.00    -0.019 A 
ATOM     22  C   UNL     1      -3.436   1.808   3.205  0.00  0.00    +0.116 A 
ATOM     23  N   UNL     1      -3.899   2.632   4.182  0.00  0.00    -0.239 N 
ATOM     24  N   UNL     1      -3.564   3.947   3.834  0.00  0.00    -0.166 NA
ATOM     25  C   UNL     1      -2.916   3.916   2.688  0.00  0.00    +0.094 A 
BRANCH  25  26
ATOM     26  C   UNL     1      -2.380   5.091   1.958  0.00  0.00    +0.002 A 
ATOM     27  C   UNL     1      -1.184   4.987   1.250  0.00  0.00    +0.013 A 
ATOM     28  C   UNL     1      -0.691   6.082   0.570  0.00  0.00    +0.039 A 
ATOM     29  C   UNL     1      -1.378   7.285   0.598  0.00  0.00    +0.123 A 
ATOM     30  C   UNL     1      -2.564   7.393   1.304  0.00  0.00    +0.039 A 
ATOM     31  C   UNL     1      -3.067   6.303   1.984  0.00  0.00    +0.013 A 
ATOM     32  F   UNL     1      -0.889   8.355  -0.066  0.00  0.00    -0.205 F 
ENDBRANCH  25  26
BRANCH  23  33
ATOM     33  C   UNL     1      -4.594   2.236   5.332  0.00  0.00    +0.065 A 
ATOM     34  C   UNL     1      -4.867   0.892   5.552  0.00  0.00    +0.028 A 
ATOM     35  C   UNL     1      -5.548   0.505   6.689  0.00  0.00    +0.002 A 
ATOM     36  C   UNL     1      -5.969   1.454   7.603  0.00  0.00    +0.000 A 
ATOM     37  C   UNL     1      -5.703   2.793   7.383  0.00  0.00    +0.002 A 
ATOM     38  C   UNL     1      -5.018   3.187   6.251  0.00  0.00    +0.028 A 
ENDBRANCH  23  33
ENDBRANCH  20  21
ENDBRANCH   1  20
TORSDOF 6
