REMARK  Name = ZINC39930015
REMARK  4 active torsions:
REMARK  status: ('A' for Active; 'I' for Inactive)
REMARK    1  A    between atoms: C_1  and  C_2
REMARK    2  A    between atoms: C_2  and  C_3
REMARK    3  A    between atoms: C_2  and  N_4
REMARK    4  A    between atoms: N_4  and  C_5
REMARK                            x       y       z     vdW  Elec       q    Type
REMARK                         _______ _______ _______ _____ _____    ______ ____
ROOT
ATOM      1  C   UNL     1      -1.650  -1.764  -0.497  0.00  0.00    +0.128 A 
ATOM      2  C   UNL     1      -2.951  -2.244  -0.494  0.00  0.00    +0.113 A 
ATOM      3  C   UNL     1      -3.199  -3.517  -1.017  0.00  0.00    +0.254 A 
ATOM      4  O   UNL     1      -4.332  -3.973  -1.032  0.00  0.00    -0.268 OA
ATOM      5  N   UNL     1      -2.165  -4.233  -1.507  0.00  0.00    -0.295 N 
ATOM      6  H   UNL     1      -2.320  -5.117  -1.874  0.00  0.00    +0.172 HD
ATOM      7  C   UNL     1      -0.906  -3.716  -1.487  0.00  0.00    +0.195 A 
ATOM      8  N   UNL     1      -0.665  -2.517  -1.001  0.00  0.00    -0.201 NA
ATOM      9  N   UNL     1       0.131  -4.457  -1.988  0.00  0.00    -0.329 N 
ATOM     10  H   UNL     1      -0.036  -5.341  -2.352  0.00  0.00    +0.145 HD
ATOM     11  H   UNL     1       1.032  -4.099  -1.979  0.00  0.00    +0.145 HD
ENDROOT
BRANCH   1  12
ATOM     12  N   UNL     1      -1.372  -0.511   0.012  0.00  0.00    -0.327 N 
ATOM     13  H   UNL     1      -2.087   0.033   0.377  0.00  0.00    +0.148 HD
BRANCH  12  15
ATOM     14  C   UNL     1      -0.019   1.526   0.010  0.00  0.00    +0.027 C 
ATOM     15  C   UNL     1       0.002  -0.004   0.002  0.00  0.00    +0.066 C 
ATOM     16  C   UNL     1       0.742  -0.511   1.242  0.00  0.00    +0.027 C 
ENDBRANCH  12  15
ENDBRANCH   1  12
TORSDOF 2
