REMARK  Name = ZINC08747146
REMARK  10 active torsions:
REMARK  status: ('A' for Active; 'I' for Inactive)
REMARK    1  A    between atoms: C_1  and  C_2
REMARK    2  A    between atoms: C_3  and  C_28
REMARK    3  A    between atoms: C_7  and  N_27
REMARK    4  A    between atoms: C_9  and  C_11
REMARK    5  A    between atoms: C_11  and  S_12
REMARK    6  A    between atoms: S_12  and  C_13
REMARK    7  A    between atoms: C_14  and  C_25
REMARK    8  A    between atoms: C_15  and  C_23
REMARK    9  A    between atoms: C_15  and  C_24
REMARK   10  A    between atoms: C_16  and  C_21
REMARK                            x       y       z     vdW  Elec       q    Type
REMARK                         _______ _______ _______ _____ _____    ______ ____
ROOT
ATOM      1  C   UNL     1      -1.356  -2.757   0.639  0.00  0.00    +0.151 C 
ENDROOT
BRANCH   1  10
ATOM      2  C   UNL     1       3.770   1.415   1.574  0.00  0.00    +0.045 C 
ATOM      3  C   UNL     1       2.273   1.528   1.435  0.00  0.00    -0.028 A 
ATOM      4  C   UNL     1       1.676   2.727   1.495  0.00  0.00    -0.008 A 
ATOM      5  S   UNL     1      -0.052   2.342   1.282  0.00  0.00    -0.074 S 
ATOM      6  C   UNL     1       0.075   0.582   1.118  0.00  0.00    +0.114 A 
ATOM      7  C   UNL     1       1.462   0.341   1.233  0.00  0.00    +0.050 A 
ATOM      8  C   UNL     1       1.854  -1.023   1.136  0.00  0.00    +0.128 A 
ATOM      9  N   UNL     1       0.927  -1.949   0.950  0.00  0.00    -0.216 NA
ATOM     10  C   UNL     1      -0.356  -1.650   0.851  0.00  0.00    +0.142 A 
ATOM     11  N   UNL     1      -0.780  -0.404   0.933  0.00  0.00    -0.224 NA
ATOM     12  C   UNL     1       2.313   4.078   1.695  0.00  0.00    +0.052 C 
BRANCH   8  13
ATOM     13  N   UNL     1       3.187  -1.377   1.235  0.00  0.00    -0.343 N 
ATOM     14  H   UNL     1       3.876  -0.756   0.951  0.00  0.00    +0.144 HD
ATOM     15  H   UNL     1       3.433  -2.246   1.589  0.00  0.00    +0.144 HD
ENDBRANCH   8  13
ENDBRANCH   1  10
BRANCH   1  16
ATOM     16  S   UNL     1      -1.927  -3.370   2.244  0.00  0.00    -0.101 S 
BRANCH  16  17
ATOM     17  C   UNL     1      -3.051  -4.618   1.712  0.00  0.00    +0.082 C 
ATOM     18  C   UNL     1      -3.724  -5.359   2.635  0.00  0.00    +0.064 C 
ATOM     19  C   UNL     1      -4.690  -6.426   2.190  0.00  0.00    +0.026 C 
ATOM     20  C   UNL     1      -5.369  -5.991   0.890  0.00  0.00    +0.188 C 
ATOM     21  C   UNL     1      -4.329  -5.494  -0.079  0.00  0.00    +0.235 C 
ATOM     22  O   UNL     1      -4.474  -5.684  -1.268  0.00  0.00    -0.274 OA
ATOM     23  N   UNL     1      -3.239  -4.840   0.364  0.00  0.00    -0.278 N 
ATOM     24  C   UNL     1      -5.751  -6.640   3.272  0.00  0.00    +0.018 C 
ATOM     25  C   UNL     1      -3.929  -7.732   1.957  0.00  0.00    +0.018 C 
ATOM     26  H   UNL     1      -2.579  -4.522  -0.271  0.00  0.00    +0.155 HD
BRANCH  20  27
ATOM     27  C   UNL     1      -6.329  -4.913   1.175  0.00  0.00    +0.076 C 
ATOM     28  N   UNL     1      -7.071  -4.081   1.394  0.00  0.00    -0.196 NA
ENDBRANCH  20  27
BRANCH  18  29
ATOM     29  C   UNL     1      -3.515  -5.122   4.032  0.00  0.00    +0.098 C 
ATOM     30  N   UNL     1      -3.349  -4.933   5.140  0.00  0.00    -0.191 NA
ENDBRANCH  18  29
ENDBRANCH  16  17
ENDBRANCH   1  16
TORSDOF 6
