REMARK  Name = ZINC49424895
REMARK  8 active torsions:
REMARK  status: ('A' for Active; 'I' for Inactive)
REMARK    1  A    between atoms: C_1  and  C_2
REMARK    2  A    between atoms: C_4  and  C_22
REMARK    3  A    between atoms: C_7  and  C_12
REMARK    4  A    between atoms: N_14  and  C_15
REMARK    5  A    between atoms: N_14  and  C_16
REMARK    6  A    between atoms: C_16  and  C_17
REMARK    7  A    between atoms: C_17  and  C_19
REMARK    8  A    between atoms: C_17  and  C_20
REMARK                            x       y       z     vdW  Elec       q    Type
REMARK                         _______ _______ _______ _____ _____    ______ ____
ROOT
ATOM      1  C   UNL     1      -2.016   1.306   0.298  0.00  0.00    +0.044 C 
ATOM      2  C   UNL     1      -1.652  -0.155   0.238  0.00  0.00    -0.048 A 
ATOM      3  C   UNL     1      -1.573  -0.794  -0.993  0.00  0.00    +0.007 A 
ATOM      4  C   UNL     1      -1.245  -2.117  -1.070  0.00  0.00    -0.041 A 
ATOM      5  C   UNL     1      -0.984  -2.839   0.102  0.00  0.00    +0.003 A 
ATOM      6  C   UNL     1      -0.627  -4.186   0.355  0.00  0.00    +0.041 A 
ATOM      7  C   UNL     1      -0.500  -4.334   1.699  0.00  0.00    +0.103 A 
ATOM      8  N   UNL     1      -0.763  -3.126   2.315  0.00  0.00    -0.351 N 
ATOM      9  H   UNL     1      -0.740  -2.963   3.271  0.00  0.00    +0.166 HD
ATOM     10  C   UNL     1      -1.063  -2.193   1.351  0.00  0.00    +0.048 A 
ATOM     11  C   UNL     1      -1.395  -0.842   1.403  0.00  0.00    +0.029 A 
ATOM     12  C   UNL     1      -1.163  -2.798  -2.412  0.00  0.00    +0.044 C 
ENDROOT
BRANCH   7  13
ATOM     13  C   UNL     1      -0.139  -5.582   2.389  0.00  0.00    +0.263 C 
ATOM     14  O   UNL     1      -0.144  -6.636   1.781  0.00  0.00    -0.268 OA
ATOM     15  N   UNL     1       0.196  -5.559   3.694  0.00  0.00    -0.298 N 
ATOM     16  C   UNL     1       0.183  -4.292   4.430  0.00  0.00    +0.132 C 
BRANCH  15  17
ATOM     17  C   UNL     1       0.575  -6.799   4.375  0.00  0.00    +0.125 C 
BRANCH  17  18
ATOM     18  C   UNL     1       2.085  -7.008   4.254  0.00  0.00    +0.106 C 
ATOM     19  C   UNL     1       2.816  -5.894   5.006  0.00  0.00    +0.025 C 
BRANCH  18  20
ATOM     20  C   UNL     1       2.449  -8.311   4.833  0.00  0.00    +0.067 C 
ATOM     21  N   UNL     1       2.729  -9.317   5.281  0.00  0.00    -0.196 NA
ENDBRANCH  18  20
ENDBRANCH  17  18
ENDBRANCH  15  17
ENDBRANCH   7  13
TORSDOF 4
