REMARK  Name = ZINC40981981
REMARK  10 active torsions:
REMARK  status: ('A' for Active; 'I' for Inactive)
REMARK    1  A    between atoms: C_1  and  C_2
REMARK    2  A    between atoms: C_2  and  C_3
REMARK    3  A    between atoms: C_3  and  S_4
REMARK    4  A    between atoms: S_4  and  C_5
REMARK    5  A    between atoms: C_10  and  C_19
REMARK    6  A    between atoms: C_12  and  C_16
REMARK    7  A    between atoms: C_13  and  C_15
REMARK    8  A    between atoms: C_23  and  O_25
REMARK    9  A    between atoms: O_25  and  C_26
REMARK   10  A    between atoms: C_26  and  C_27
REMARK                            x       y       z     vdW  Elec       q    Type
REMARK                         _______ _______ _______ _____ _____    ______ ____
ROOT
ATOM      1  C   UNL     1       1.997  -2.531  -2.610  0.00  0.00    +0.210 A 
ATOM      2  N   UNL     1       2.454  -1.712  -3.569  0.00  0.00    -0.187 NA
ATOM      3  C   UNL     1       2.836  -2.417  -4.599  0.00  0.00    +0.219 A 
ATOM      4  N   UNL     1       2.631  -3.727  -4.313  0.00  0.00    -0.220 N 
ATOM      5  N   UNL     1       2.093  -3.775  -3.028  0.00  0.00    -0.141 NA
ATOM      6  C   UNL     1       2.952  -4.815  -5.233  0.00  0.00    +0.177 C 
ATOM      7  C   UNL     1       3.242  -4.249  -6.597  0.00  0.00    +0.060 C 
ATOM      8  C   UNL     1       3.432  -2.941  -6.822  0.00  0.00    +0.018 C 
ATOM      9  N   UNL     1       3.365  -2.008  -5.816  0.00  0.00    -0.287 N 
ATOM     10  C   UNL     1       3.729  -2.478  -8.225  0.00  0.00    +0.061 C 
ATOM     11  H   UNL     1       3.676  -1.099  -5.949  0.00  0.00    +0.155 HD
ENDROOT
BRANCH   6  12
ATOM     12  C   UNL     1       4.163  -5.558  -4.729  0.00  0.00    -0.015 A 
ATOM     13  C   UNL     1       5.362  -4.890  -4.561  0.00  0.00    +0.006 A 
ATOM     14  C   UNL     1       6.475  -5.569  -4.100  0.00  0.00    +0.004 A 
ATOM     15  C   UNL     1       6.391  -6.916  -3.805  0.00  0.00    +0.045 A 
ATOM     16  C   UNL     1       5.189  -7.588  -3.973  0.00  0.00    +0.121 A 
ATOM     17  C   UNL     1       4.072  -6.903  -4.430  0.00  0.00    +0.051 A 
BRANCH  16  18
ATOM     18  O   UNL     1       5.104  -8.913  -3.683  0.00  0.00    -0.492 OA
BRANCH  18  19
ATOM     19  C   UNL     1       6.292  -9.551  -3.211  0.00  0.00    +0.225 C 
ATOM     20  C   UNL     1       6.003 -11.029  -2.941  0.00  0.00    +0.048 C 
ENDBRANCH  18  19
ENDBRANCH  16  18
ENDBRANCH   6  12
BRANCH   7  21
ATOM     21  C   UNL     1       3.318  -5.139  -7.694  0.00  0.00    +0.241 C 
ATOM     22  O   UNL     1       2.298  -5.530  -8.233  0.00  0.00    -0.271 OA
ATOM     23  N   UNL     1       4.519  -5.555  -8.143  0.00  0.00    -0.325 N 
ATOM     24  H   UNL     1       5.331  -5.243  -7.714  0.00  0.00    +0.145 HD
ATOM     25  H   UNL     1       4.571  -6.165  -8.895  0.00  0.00    +0.145 HD
ENDBRANCH   7  21
BRANCH   1  26
ATOM     26  S   UNL     1       1.376  -2.023  -1.042  0.00  0.00    -0.084 S 
BRANCH  26  27
ATOM     27  C   UNL     1       1.506  -0.215  -1.082  0.00  0.00    +0.077 C 
BRANCH  27  29
ATOM     28  C   UNL     1       1.103   1.889   0.203  0.00  0.00    +0.004 C 
ATOM     29  C   UNL     1       0.993   0.364   0.238  0.00  0.00    +0.008 C 
ENDBRANCH  27  29
ENDBRANCH  26  27
ENDBRANCH   1  26
TORSDOF 7
