REMARK  Name = ZINC12703893
REMARK  13 active torsions:
REMARK  status: ('A' for Active; 'I' for Inactive)
REMARK    1  A    between atoms: C_1  and  C_2
REMARK    2  A    between atoms: C_2  and  N_66
REMARK    3  A    between atoms: C_3  and  C_4
REMARK    4  A    between atoms: C_3  and  N_66
REMARK    5  A    between atoms: C_5  and  C_6
REMARK    6  A    between atoms: C_5  and  N_66
REMARK    7  A    between atoms: C_6  and  C_7
REMARK    8  A    between atoms: C_7  and  N_8
REMARK    9  A    between atoms: N_8  and  C_9
REMARK   10  A    between atoms: C_9  and  C_10
REMARK   11  A    between atoms: C_15  and  C_23
REMARK   12  A    between atoms: C_16  and  C_22
REMARK   13  A    between atoms: N_26  and  C_27
REMARK                            x       y       z     vdW  Elec       q    Type
REMARK                         _______ _______ _______ _____ _____    ______ ____
ROOT
ATOM      1  N   UNL     1       3.446   3.175  -0.259  0.00  0.00    -0.281 N 
ATOM      2  C   UNL     1       2.745   4.184   0.296  0.00  0.00    +0.307 C 
ATOM      3  O   UNL     1       2.910   4.468   1.466  0.00  0.00    -0.252 OA
ATOM      4  N   UNL     1       1.860   4.878  -0.448  0.00  0.00    -0.269 N 
ATOM      5  H   UNL     1       1.678   4.608  -1.362  0.00  0.00    +0.156 HD
ENDROOT
BRANCH   4   6
ATOM      6  C   UNL     1       1.205   5.987   0.099  0.00  0.00    +0.036 A 
ATOM      7  C   UNL     1       0.921   7.089  -0.697  0.00  0.00    +0.023 A 
ATOM      8  C   UNL     1       0.269   8.181  -0.157  0.00  0.00    +0.003 A 
ATOM      9  C   UNL     1      -0.091   8.182   1.178  0.00  0.00    +0.020 A 
ATOM     10  C   UNL     1       0.195   7.088   1.976  0.00  0.00    +0.043 A 
ATOM     11  C   UNL     1       0.843   5.990   1.439  0.00  0.00    +0.043 A 
ATOM     12 CL   UNL     1      -0.259   7.093   3.651  0.00  0.00    -0.083 Cl
ENDBRANCH   4   6
BRANCH   1  13
ATOM     13  C   UNL     1       4.407   2.421   0.550  0.00  0.00    +0.108 C 
BRANCH  13  14
ATOM     14  C   UNL     1       5.782   3.086   0.459  0.00  0.00    +0.000 C 
BRANCH  14  15
ATOM     15  C   UNL     1       6.786   2.298   1.303  0.00  0.00    -0.077 C 
BRANCH  15  16
ATOM     16  N   UNL     1       8.113   2.939   1.188  0.00  0.00    +0.379 N 
ATOM     17  H   UNL     1       8.339   3.061   0.194  0.00  0.00    -0.082 HD
BRANCH  16  19
ATOM     18  C   UNL     1       7.742   4.127   3.325  0.00  0.00    -0.017 C 
ATOM     19  C   UNL     1       8.091   4.265   1.841  0.00  0.00    -0.082 C 
ENDBRANCH  16  19
BRANCH  16  20
ATOM     20  C   UNL     1       9.143   2.085   1.814  0.00  0.00    -0.082 C 
ATOM     21  C   UNL     1      10.523   2.573   1.370  0.00  0.00    -0.017 C 
ENDBRANCH  16  20
ENDBRANCH  15  16
ENDBRANCH  14  15
ENDBRANCH  13  14
ENDBRANCH   1  13
BRANCH   1  22
ATOM     22  C   UNL     1       3.247   2.833  -1.669  0.00  0.00    +0.150 C 
BRANCH  22  23
ATOM     23  C   UNL     1       2.154   1.802  -1.786  0.00  0.00    +0.035 A 
ATOM     24  C   UNL     1       0.880   2.194  -2.036  0.00  0.00    +0.020 A 
ATOM     25  C   UNL     1      -0.159   1.167  -2.144  0.00  0.00    -0.001 A 
ATOM     26  C   UNL     1      -1.491   1.510  -2.401  0.00  0.00    +0.010 A 
ATOM     27  C   UNL     1      -2.436   0.528  -2.497  0.00  0.00    +0.004 A 
ATOM     28  C   UNL     1      -2.087  -0.806  -2.342  0.00  0.00    -0.046 A 
ATOM     29  C   UNL     1      -0.781  -1.167  -2.088  0.00  0.00    -0.024 A 
ATOM     30  C   UNL     1       0.200  -0.185  -1.992  0.00  0.00    +0.052 A 
ATOM     31  N   UNL     1       1.513  -0.517  -1.734  0.00  0.00    -0.322 N 
ATOM     32  H   UNL     1       1.758  -1.450  -1.627  0.00  0.00    +0.169 HD
ATOM     33  C   UNL     1       2.460   0.432  -1.636  0.00  0.00    +0.254 A 
ATOM     34  O   UNL     1       3.611   0.102  -1.412  0.00  0.00    -0.268 OA
ATOM     35  C   UNL     1      -0.416  -2.619  -1.920  0.00  0.00    +0.046 C 
ATOM     36  C   UNL     1      -3.147  -1.872  -2.451  0.00  0.00    +0.044 C 
ENDBRANCH  22  23
ENDBRANCH   1  22
TORSDOF 9
