REMARK  Name = ZINC06381672
REMARK  5 active torsions:
REMARK  status: ('A' for Active; 'I' for Inactive)
REMARK    1  A    between atoms: C_1  and  O_2
REMARK    2  A    between atoms: O_2  and  C_3
REMARK    3  A    between atoms: C_6  and  N_9
REMARK    4  A    between atoms: C_13  and  N_17
REMARK    5  A    between atoms: N_17  and  C_18
REMARK                            x       y       z     vdW  Elec       q    Type
REMARK                         _______ _______ _______ _____ _____    ______ ____
ROOT
ATOM      1  N   UNL     1       1.272  -0.427  -0.012  0.00  0.00    -0.209 N 
ATOM      2  C   UNL     1       2.183   0.553   0.029  0.00  0.00    +0.228 C 
ATOM      3  O   UNL     1       3.385   0.394   0.060  0.00  0.00    -0.275 OA
ATOM      4  C   UNL     1       1.476   1.891   0.029  0.00  0.00    +0.128 C 
ATOM      5  C   UNL     1      -0.018   1.509  -0.020  0.00  0.00    +0.167 C 
ATOM      6  C   UNL     1       0.003  -0.004  -0.042  0.00  0.00    +0.247 C 
ATOM      7  O   UNL     1      -0.976  -0.719  -0.082  0.00  0.00    -0.273 OA
ENDROOT
BRANCH   1  11
ATOM      8  C   UNL     1       2.306  -4.469  -0.044  0.00  0.00    +0.120 A 
ATOM      9  C   UNL     1       2.615  -3.666  -1.131  0.00  0.00    +0.047 A 
ATOM     10  C   UNL     1       2.273  -2.328  -1.122  0.00  0.00    +0.027 A 
ATOM     11  C   UNL     1       1.619  -1.787  -0.023  0.00  0.00    +0.044 A 
ATOM     12  C   UNL     1       1.315  -2.590   1.067  0.00  0.00    +0.027 A 
ATOM     13  C   UNL     1       1.652  -3.929   1.054  0.00  0.00    +0.047 A 
BRANCH   8  15
ATOM     14  C   UNL     1       2.293  -6.554   1.100  0.00  0.00    +0.277 C 
ATOM     15  O   UNL     1       2.643  -5.786  -0.054  0.00  0.00    -0.495 OA
ENDBRANCH   8  15
ENDBRANCH   1  11
BRANCH   5  16
ATOM     16  N   UNL     1      -0.714   1.998   1.173  0.00  0.00    -0.319 N 
ATOM     17  H   UNL     1      -0.211   2.212   1.974  0.00  0.00    +0.148 HD
BRANCH  16  18
ATOM     18  C   UNL     1      -2.077   2.152   1.157  0.00  0.00    +0.104 A 
ATOM     19  C   UNL     1      -2.733   2.602   2.269  0.00  0.00    +0.111 A 
ATOM     20  C   UNL     1      -4.128   2.756   2.221  0.00  0.00    +0.254 A 
ATOM     21  O   UNL     1      -4.734   3.161   3.199  0.00  0.00    -0.268 OA
ATOM     22  N   UNL     1      -4.793   2.448   1.091  0.00  0.00    -0.303 N 
ATOM     23  H   UNL     1      -5.757   2.550   1.058  0.00  0.00    +0.171 HD
ATOM     24  C   UNL     1      -4.132   2.001   0.008  0.00  0.00    +0.159 A 
ATOM     25  S   UNL     1      -5.005   1.617  -1.414  0.00  0.00    -0.013 S 
ATOM     26  N   UNL     1      -2.795   1.850   0.026  0.00  0.00    -0.324 N 
ATOM     27  H   UNL     1      -2.336   1.527  -0.765  0.00  0.00    +0.169 HD
ENDBRANCH  16  18
ENDBRANCH   5  16
TORSDOF 4
