REMARK  Name = ZINC15730648
REMARK  4 active torsions:
REMARK  status: ('A' for Active; 'I' for Inactive)
REMARK    1  A    between atoms: C_1  and  C_2
REMARK    2  A    between atoms: C_9  and  S_15
REMARK    3  A    between atoms: S_15  and  N_18
REMARK    4  A    between atoms: N_18  and  C_19
REMARK                            x       y       z     vdW  Elec       q    Type
REMARK                         _______ _______ _______ _____ _____    ______ ____
ROOT
ATOM      1  C   UNL     1       5.864  -2.550  -5.546  0.00  0.00    +0.018 C 
ATOM      2  C   UNL     1       5.550  -1.157  -4.996  0.00  0.00    +0.082 C 
ATOM      3  C   UNL     1       4.426  -0.560  -5.794  0.00  0.00    +0.087 C 
ATOM      4  S   UNL     1       4.200   1.191  -5.527  0.00  0.00    -0.123 S 
ATOM      5  C   UNL     1       3.477   1.419  -3.953  0.00  0.00    +0.029 A 
ATOM      6  C   UNL     1       2.588   2.495  -3.824  0.00  0.00    +0.018 A 
ATOM      7  C   UNL     1       1.957   2.773  -2.635  0.00  0.00    +0.030 A 
ATOM      8  C   UNL     1       2.202   1.972  -1.534  0.00  0.00    +0.107 A 
ATOM      9  C   UNL     1       3.074   0.916  -1.643  0.00  0.00    +0.053 A 
ATOM     10  C   UNL     1       3.725   0.615  -2.851  0.00  0.00    +0.049 A 
ATOM     11  N   UNL     1       4.561  -0.470  -2.793  0.00  0.00    -0.284 N 
ATOM     12  C   UNL     1       5.218  -1.274  -3.551  0.00  0.00    +0.221 C 
ATOM     13  O   UNL     1       5.628  -2.278  -3.007  0.00  0.00    -0.275 OA
ATOM     14  H   UNL     1       4.706  -0.713  -1.865  0.00  0.00    +0.155 HD
ENDROOT
BRANCH   8  15
ATOM     15  S   UNL     1       1.405   2.308   0.001  0.00  0.00    +0.059 S 
ATOM     16  O   UNL     1       1.057   3.686  -0.015  0.00  0.00    -0.153 OA
ATOM     17  O   UNL     1       2.222   1.741   1.016  0.00  0.00    -0.153 OA
BRANCH  15  18
ATOM     18  N   UNL     1      -0.018   1.461   0.010  0.00  0.00    -0.187 NA
ATOM     19  H   UNL     1      -0.864   1.934   0.017  0.00  0.00    +0.148 HD
BRANCH  18  20
ATOM     20  C   UNL     1       0.002  -0.004   0.002  0.00  0.00    +0.077 C 
ATOM     21  C   UNL     1      -0.202  -0.527  -1.435  0.00  0.00    +0.020 C 
ATOM     22  C   UNL     1      -1.073  -1.796  -1.257  0.00  0.00    +0.002 C 
ATOM     23  C   UNL     1      -2.041  -1.389  -0.118  0.00  0.00    +0.002 C 
ATOM     24  C   UNL     1      -1.167  -0.552   0.840  0.00  0.00    +0.020 C 
ENDBRANCH  18  20
ENDBRANCH  15  18
ENDBRANCH   8  15
TORSDOF 3
