REMARK  Name = ZINC12382618
REMARK  11 active torsions:
REMARK  status: ('A' for Active; 'I' for Inactive)
REMARK    1  A    between atoms: C_1  and  C_2
REMARK    2  A    between atoms: C_2  and  C_3
REMARK    3  A    between atoms: C_2  and  N_4
REMARK    4  A    between atoms: C_5  and  C_7
REMARK    5  A    between atoms: C_12  and  N_13
REMARK    6  A    between atoms: C_14  and  C_16
REMARK    7  A    between atoms: C_16  and  N_17
REMARK    8  A    between atoms: N_17  and  C_18
REMARK    9  A    between atoms: N_17  and  S_27
REMARK   10  A    between atoms: C_21  and  N_24
REMARK   11  A    between atoms: S_27  and  C_30
REMARK                            x       y       z     vdW  Elec       q    Type
REMARK                         _______ _______ _______ _____ _____    ______ ____
ROOT
ATOM      1  N   UNL     1      -6.048   5.597   0.681  0.00  0.00    -0.194 N 
ENDROOT
BRANCH   1   2
ATOM      2  C   UNL     1      -6.882   5.773  -0.425  0.00  0.00    +0.052 A 
ATOM      3  C   UNL     1      -7.814   6.803  -0.438  0.00  0.00    +0.027 A 
ATOM      4  C   UNL     1      -8.633   6.977  -1.536  0.00  0.00    +0.034 A 
ATOM      5  C   UNL     1      -8.534   6.122  -2.618  0.00  0.00    +0.126 A 
ATOM      6  C   UNL     1      -7.611   5.092  -2.606  0.00  0.00    +0.034 A 
ATOM      7  C   UNL     1      -6.784   4.915  -1.514  0.00  0.00    +0.027 A 
BRANCH   5   8
ATOM      8  N   UNL     1      -9.417   6.308  -3.791  0.00  0.00    +0.056 N 
ATOM      9  O   UNL     1      -9.330   5.556  -4.744  0.00  0.00    -0.126 OA
ATOM     10  O   UNL     1     -10.230   7.215  -3.802  0.00  0.00    -0.126 OA
ENDBRANCH   5   8
ENDBRANCH   1   2
BRANCH   1  11
ATOM     11  S   UNL     1      -6.534   6.118   2.176  0.00  0.00    +0.075 S 
ATOM     12  O   UNL     1      -7.953   6.187   2.139  0.00  0.00    -0.150 OA
ATOM     13  O   UNL     1      -5.835   5.329   3.128  0.00  0.00    -0.150 OA
BRANCH  11  14
ATOM     14  C   UNL     1      -5.954   7.770   2.366  0.00  0.00    +0.109 A 
ATOM     15  C   UNL     1      -4.658   8.003   2.790  0.00  0.00    +0.029 A 
ATOM     16  C   UNL     1      -4.201   9.300   2.934  0.00  0.00    +0.002 A 
ATOM     17  C   UNL     1      -5.042  10.363   2.666  0.00  0.00    +0.000 A 
ATOM     18  C   UNL     1      -6.339  10.130   2.247  0.00  0.00    +0.002 A 
ATOM     19  C   UNL     1      -6.795   8.834   2.098  0.00  0.00    +0.029 A 
ENDBRANCH  11  14
ENDBRANCH   1  11
BRANCH   1  20
ATOM     20  C   UNL     1      -4.742   4.951   0.519  0.00  0.00    +0.227 C 
BRANCH  20  22
ATOM     21  N   UNL     1      -3.836   2.651   0.465  0.00  0.00    -0.283 N 
ATOM     22  C   UNL     1      -4.910   3.455   0.589  0.00  0.00    +0.236 C 
ATOM     23  O   UNL     1      -6.011   2.975   0.757  0.00  0.00    -0.274 OA
ATOM     24  H   UNL     1      -2.948   3.035   0.393  0.00  0.00    +0.155 HD
BRANCH  21  30
ATOM     25  C   UNL     1      -3.158   0.472  -0.352  0.00  0.00    +0.058 A 
ATOM     26  C   UNL     1      -3.338  -0.913  -0.375  0.00  0.00    +0.015 A 
ATOM     27  C   UNL     1      -4.333  -1.489   0.385  0.00  0.00    +0.001 A 
ATOM     28  C   UNL     1      -5.163  -0.700   1.165  0.00  0.00    +0.002 A 
ATOM     29  C   UNL     1      -5.001   0.670   1.194  0.00  0.00    +0.024 A 
ATOM     30  C   UNL     1      -4.001   1.268   0.438  0.00  0.00    +0.046 A 
BRANCH  25  32
ATOM     31  N   UNL     1      -1.219   0.322  -1.835  0.00  0.00    -0.309 N 
ATOM     32  C   UNL     1      -2.092   1.095  -1.160  0.00  0.00    +0.246 C 
ATOM     33  O   UNL     1      -2.002   2.307  -1.217  0.00  0.00    -0.270 OA
ATOM     34  H   UNL     1      -1.292  -0.644  -1.790  0.00  0.00    +0.149 HD
BRANCH  31  36
ATOM     35  C   UNL     1       1.039   1.258  -1.752  0.00  0.00    +0.027 C 
ATOM     36  C   UNL     1      -0.165   0.941  -2.642  0.00  0.00    +0.067 C 
ATOM     37  C   UNL     1       0.261  -0.023  -3.751  0.00  0.00    +0.027 C 
ENDBRANCH  31  36
ENDBRANCH  25  32
ENDBRANCH  21  30
ENDBRANCH  20  22
ENDBRANCH   1  20
TORSDOF 9
