REMARK  Name = ZINC43043309
REMARK  10 active torsions:
REMARK  status: ('A' for Active; 'I' for Inactive)
REMARK    1  A    between atoms: C_1  and  C_2
REMARK    2  A    between atoms: C_2  and  O_3
REMARK    3  A    between atoms: O_3  and  C_4
REMARK    4  A    between atoms: C_9  and  O_10
REMARK    5  A    between atoms: O_10  and  C_11
REMARK    6  A    between atoms: C_11  and  C_12
REMARK    7  A    between atoms: N_14  and  N_15
REMARK    8  A    between atoms: N_18  and  C_19
REMARK    9  A    between atoms: C_24  and  C_29
REMARK   10  A    between atoms: C_26  and  C_28
REMARK                            x       y       z     vdW  Elec       q    Type
REMARK                         _______ _______ _______ _____ _____    ______ ____
ROOT
ATOM      1  C   UNL     1       3.088  -1.019  -5.443  0.00  0.00    +0.267 C 
ATOM      2  O   UNL     1       2.919   0.150  -5.165  0.00  0.00    -0.271 OA
ATOM      3  N   UNL     1       3.733  -1.355  -6.578  0.00  0.00    -0.230 N 
ATOM      4  H   UNL     1       3.868  -2.289  -6.801  0.00  0.00    +0.173 HD
ENDROOT
BRANCH   3   5
ATOM      5  N   UNL     1       4.207  -0.354  -7.437  0.00  0.00    -0.218 N 
ATOM      6  C   UNL     1       4.852  -0.690  -8.572  0.00  0.00    +0.316 C 
ATOM      7  O   UNL     1       5.264   0.178  -9.317  0.00  0.00    -0.251 OA
ATOM      8  N   UNL     1       5.040  -1.988  -8.881  0.00  0.00    -0.295 N 
ATOM      9  H   UNL     1       4.072   0.580  -7.214  0.00  0.00    +0.174 HD
ATOM     10  H   UNL     1       4.712  -2.681  -8.287  0.00  0.00    +0.151 HD
BRANCH   8  11
ATOM     11  C   UNL     1       5.741  -2.353 -10.114  0.00  0.00    +0.078 C 
ATOM     12  C   UNL     1       7.250  -2.346  -9.865  0.00  0.00    +0.022 C 
ATOM     13  C   UNL     1       7.982  -2.727 -11.154  0.00  0.00    +0.002 C 
ATOM     14  C   UNL     1       7.545  -4.126 -11.594  0.00  0.00    +0.003 C 
ATOM     15  C   UNL     1       6.035  -4.133 -11.843  0.00  0.00    -0.009 C 
ATOM     16  C   UNL     1       5.304  -3.752 -10.555  0.00  0.00    +0.009 C 
ATOM     17  C   UNL     1       3.794  -3.760 -10.804  0.00  0.00    +0.009 C 
ATOM     18  C   UNL     1       5.598  -5.532 -12.283  0.00  0.00    +0.008 C 
ENDBRANCH   8  11
ENDBRANCH   3   5
BRANCH   1  19
ATOM     19  C   UNL     1       2.578  -2.095  -4.520  0.00  0.00    +0.326 C 
BRANCH  19  20
ATOM     20  O   UNL     1       1.936  -1.492  -3.394  0.00  0.00    -0.479 OA
BRANCH  20  26
ATOM     21  C   UNL     1       0.777  -1.811  -1.336  0.00  0.00    +0.162 A 
ATOM     22  C   UNL     1       0.243  -2.669  -0.388  0.00  0.00    +0.049 A 
ATOM     23  C   UNL     1       0.352  -4.037  -0.555  0.00  0.00    +0.004 A 
ATOM     24  C   UNL     1       0.992  -4.552  -1.667  0.00  0.00    +0.004 A 
ATOM     25  C   UNL     1       1.526  -3.702  -2.616  0.00  0.00    +0.049 A 
ATOM     26  C   UNL     1       1.416  -2.330  -2.458  0.00  0.00    +0.163 A 
BRANCH  21  27
ATOM     27  O   UNL     1       0.671  -0.465  -1.174  0.00  0.00    -0.489 OA
BRANCH  27  29
ATOM     28  C   UNL     1      -0.019   1.526   0.010  0.00  0.00    +0.048 C 
ATOM     29  C   UNL     1       0.002  -0.004   0.002  0.00  0.00    +0.226 C 
ENDBRANCH  27  29
ENDBRANCH  21  27
ENDBRANCH  20  26
ENDBRANCH  19  20
ENDBRANCH   1  19
TORSDOF 7
