REMARK  Name = ZINC39981108
REMARK  5 active torsions:
REMARK  status: ('A' for Active; 'I' for Inactive)
REMARK    1  A    between atoms: C_1  and  C_2
REMARK    2  A    between atoms: C_7  and  N_8
REMARK    3  A    between atoms: C_9  and  C_11
REMARK    4  A    between atoms: C_11  and  S_12
REMARK    5  A    between atoms: S_12  and  C_13
REMARK                            x       y       z     vdW  Elec       q    Type
REMARK                         _______ _______ _______ _____ _____    ______ ____
ROOT
ATOM      1  C   UNL     1      -0.384  -0.118   7.687  0.00  0.00    +0.208 C 
ATOM      2  N   UNL     1      -0.394   1.183   7.524  0.00  0.00    -0.227 NA
ATOM      3  C   UNL     1      -0.418   2.018   8.723  0.00  0.00    +0.252 C 
ATOM      4  C   UNL     1      -1.121   1.201   9.799  0.00  0.00    +0.117 C 
ATOM      5  C   UNL     1      -2.058   2.031  10.334  0.00  0.00    +0.026 A 
ATOM      6  C   UNL     1      -2.942   1.886  11.431  0.00  0.00    +0.032 A 
ATOM      7  C   UNL     1      -3.783   2.923  11.699  0.00  0.00    +0.042 A 
ATOM      8  C   UNL     1      -3.826   4.112  10.961  0.00  0.00    +0.022 A 
ATOM      9  C   UNL     1      -3.021   4.361   9.896  0.00  0.00    +0.027 A 
ATOM     10  C   UNL     1      -2.070   3.296   9.535  0.00  0.00    +0.046 A 
ATOM     11  N   UNL     1      -1.177   3.254   8.595  0.00  0.00    -0.358 N 
ATOM     12 CL   UNL     1      -4.872   2.759  13.041  0.00  0.00    -0.084 Cl
ATOM     13  N   UNL     1      -0.862  -0.100   9.960  0.00  0.00    -0.147 NA
ATOM     14  N   UNL     1      -0.470  -0.727   8.895  0.00  0.00    -0.122 NA
ATOM     15  H   UNL     1      -1.038   3.934   7.917  0.00  0.00    +0.162 HD
ENDROOT
BRANCH   1  16
ATOM     16  S   UNL     1      -0.259  -1.133   6.252  0.00  0.00    -0.075 S 
BRANCH  16  17
ATOM     17  C   UNL     1      -0.168   0.052   4.882  0.00  0.00    +0.173 C 
BRANCH  17  19
ATOM     18  N   UNL     1       0.025  -0.015   2.417  0.00  0.00    -0.285 N 
ATOM     19  C   UNL     1      -0.056  -0.694   3.578  0.00  0.00    +0.227 C 
ATOM     20  O   UNL     1      -0.040  -1.907   3.573  0.00  0.00    -0.275 OA
ATOM     21  H   UNL     1       0.078   0.954   2.425  0.00  0.00    +0.155 HD
BRANCH  18  28
ATOM     22  C   UNL     1      -1.264   1.184   0.181  0.00  0.00    +0.045 C 
ATOM     23  C   UNL     1      -0.584  -0.158   0.084  0.00  0.00    -0.029 A 
ATOM     24  C   UNL     1      -0.568  -0.840  -1.117  0.00  0.00    +0.005 A 
ATOM     25  C   UNL     1       0.055  -2.071  -1.206  0.00  0.00    +0.000 A 
ATOM     26  C   UNL     1       0.666  -2.622  -0.095  0.00  0.00    +0.002 A 
ATOM     27  C   UNL     1       0.655  -1.945   1.108  0.00  0.00    +0.023 A 
ATOM     28  C   UNL     1       0.034  -0.706   1.201  0.00  0.00    +0.036 A 
ENDBRANCH  18  28
ENDBRANCH  17  19
ENDBRANCH  16  17
ENDBRANCH   1  16
TORSDOF 4
