REMARK  Name = ZINC14645904
REMARK  15 active torsions:
REMARK  status: ('A' for Active; 'I' for Inactive)
REMARK    1  A    between atoms: C_1  and  C_2
REMARK    2  A    between atoms: C_2  and  C_3
REMARK    3  A    between atoms: C_3  and  O_4
REMARK    4  A    between atoms: O_4  and  C_5
REMARK    5  A    between atoms: C_5  and  C_7
REMARK    6  A    between atoms: C_7  and  C_8
REMARK    7  A    between atoms: N_15  and  C_16
REMARK    8  A    between atoms: C_16  and  N_18
REMARK    9  A    between atoms: C_19  and  C_21
REMARK   10  A    between atoms: C_24  and  O_28
REMARK   11  A    between atoms: O_28  and  C_29
REMARK   12  A    between atoms: C_29  and  C_30
REMARK   13  A    between atoms: C_30  and  C_31
REMARK   14  A    between atoms: C_31  and  C_32
REMARK   15  A    between atoms: C_31  and  C_33
REMARK                            x       y       z     vdW  Elec       q    Type
REMARK                         _______ _______ _______ _____ _____    ______ ____
ROOT
ATOM      1  C   UNL     1       1.263  -1.197   1.220  0.00  0.00    +0.140 C 
ATOM      2  S   UNL     1      -0.176  -1.905   1.817  0.00  0.00    -0.018 S 
ENDROOT
BRANCH   1   9
ATOM      3  C   UNL     1       2.421   0.344  -0.306  0.00  0.00    +0.171 C 
ATOM      4  C   UNL     1       2.263   0.453  -1.798  0.00  0.00    +0.234 C 
ATOM      5  O   UNL     1       3.243   0.706  -2.466  0.00  0.00    -0.274 OA
ATOM      6  N   UNL     1       1.094   0.288  -2.419  0.00  0.00    -0.312 N 
ATOM      7  C   UNL     1      -0.145  -0.101  -1.760  0.00  0.00    +0.123 C 
ATOM      8  C   UNL     1      -0.089   0.222  -0.266  0.00  0.00    +0.126 C 
ATOM      9  N   UNL     1       1.202  -0.253   0.260  0.00  0.00    -0.299 N 
ATOM     10  H   UNL     1       1.067   0.439  -3.377  0.00  0.00    +0.149 HD
BRANCH   3  11
ATOM     11  C   UNL     1       2.633   1.737   0.290  0.00  0.00    +0.152 C 
BRANCH  11  12
ATOM     12  C   UNL     1       2.952   1.612   1.758  0.00  0.00    +0.309 C 
ATOM     13  O   UNL     1       3.145   0.523   2.244  0.00  0.00    -0.251 OA
BRANCH  12  14
ATOM     14  O   UNL     1       3.021   2.711   2.525  0.00  0.00    -0.465 OA
BRANCH  14  15
ATOM     15  C   UNL     1       3.333   2.516   3.930  0.00  0.00    +0.232 C 
BRANCH  15  17
ATOM     16  C   UNL     1       3.696   3.666   6.118  0.00  0.00    +0.007 C 
ATOM     17  C   UNL     1       3.368   3.872   4.638  0.00  0.00    +0.038 C 
ENDBRANCH  15  17
ENDBRANCH  14  15
ENDBRANCH  12  14
ENDBRANCH  11  12
ENDBRANCH   3  11
ENDBRANCH   1   9
BRANCH   1  18
ATOM     18  N   UNL     1       2.458  -1.583   1.710  0.00  0.00    -0.264 N 
ATOM     19  C   UNL     1       2.516  -2.456   2.735  0.00  0.00    +0.250 C 
ATOM     20  O   UNL     1       1.490  -2.896   3.218  0.00  0.00    -0.270 OA
ATOM     21  H   UNL     1       3.276  -1.233   1.324  0.00  0.00    +0.157 HD
BRANCH  19  22
ATOM     22  C   UNL     1       3.824  -2.879   3.271  0.00  0.00    +0.038 A 
ATOM     23  C   UNL     1       5.004  -2.379   2.713  0.00  0.00    +0.017 A 
ATOM     24  C   UNL     1       6.223  -2.772   3.220  0.00  0.00    +0.047 A 
ATOM     25  C   UNL     1       6.281  -3.672   4.278  0.00  0.00    +0.134 A 
ATOM     26  C   UNL     1       5.109  -4.176   4.831  0.00  0.00    +0.060 A 
ATOM     27  C   UNL     1       3.885  -3.784   4.334  0.00  0.00    +0.032 A 
ATOM     28 BR   UNL     1       5.195  -5.401   6.270  0.00  0.00    -0.046 Br
BRANCH  25  29
ATOM     29  O   UNL     1       7.484  -4.060   4.771  0.00  0.00    -0.491 OA
BRANCH  29  30
ATOM     30  C   UNL     1       8.648  -3.503   4.155  0.00  0.00    +0.229 C 
BRANCH  30  31
ATOM     31  C   UNL     1       9.900  -4.054   4.840  0.00  0.00    +0.044 C 
BRANCH  31  32
ATOM     32  C   UNL     1      11.145  -3.458   4.181  0.00  0.00    -0.014 C 
ATOM     33  C   UNL     1      12.392  -3.910   4.945  0.00  0.00    +0.007 C 
ATOM     34  C   UNL     1      11.234  -3.937   2.731  0.00  0.00    +0.007 C 
ENDBRANCH  31  32
ENDBRANCH  30  31
ENDBRANCH  29  30
ENDBRANCH  25  29
ENDBRANCH  19  22
ENDBRANCH   1  18
TORSDOF 12
