REMARK  Name = ZINC39694907
REMARK  8 active torsions:
REMARK  status: ('A' for Active; 'I' for Inactive)
REMARK    1  A    between atoms: C_1  and  C_2
REMARK    2  A    between atoms: C_4  and  C_37
REMARK    3  A    between atoms: C_6  and  C_8
REMARK    4  A    between atoms: C_8  and  N_9
REMARK    5  A    between atoms: C_10  and  C_12
REMARK    6  A    between atoms: C_23  and  C_25
REMARK    7  A    between atoms: C_32  and  C_36
REMARK    8  A    between atoms: N_34  and  C_35
REMARK                            x       y       z     vdW  Elec       q    Type
REMARK                         _______ _______ _______ _____ _____    ______ ____
ROOT
ATOM      1  C   UNL     1       3.128  -3.970   4.467  0.00  0.00    +0.100 C 
ATOM      2  C   UNL     1       3.879  -2.628   4.618  0.00  0.00    +0.121 C 
ATOM      3  N   UNL     1       3.760  -2.292   6.056  0.00  0.00    -0.296 N 
ATOM      4  C   UNL     1       3.920  -3.591   6.753  0.00  0.00    +0.115 C 
ATOM      5  C   UNL     1       3.160  -4.601   5.869  0.00  0.00    -0.004 C 
ATOM      6  C   UNL     1       1.741  -4.795   6.394  0.00  0.00    -0.010 C 
ATOM      7  C   UNL     1       1.797  -5.475   7.765  0.00  0.00    -0.082 C 
ATOM      8  N   UNL     1       2.477  -6.770   7.643  0.00  0.00    +0.379 N 
ATOM      9  C   UNL     1       3.869  -6.568   7.227  0.00  0.00    -0.082 C 
ATOM     10  C   UNL     1       3.901  -5.934   5.833  0.00  0.00    -0.010 C 
ATOM     11  C   UNL     1       3.554  -1.080   6.607  0.00  0.00    +0.250 C 
ATOM     12  O   UNL     1       3.345  -0.116   5.895  0.00  0.00    -0.270 OA
ATOM     13  H   UNL     1       2.458  -7.243   8.534  0.00  0.00    -0.086 HD
ATOM     14  H   UNL     1       2.000  -7.335   6.955  0.00  0.00    -0.086 HD
ENDROOT
BRANCH  11  15
ATOM     15  C   UNL     1       3.581  -0.921   8.074  0.00  0.00    +0.074 A 
ATOM     16  C   UNL     1       4.462  -1.683   8.854  0.00  0.00    +0.127 A 
ATOM     17  N   UNL     1       4.502  -1.558  10.160  0.00  0.00    -0.235 NA
ATOM     18  C   UNL     1       3.713  -0.705  10.808  0.00  0.00    +0.160 A 
ATOM     19  C   UNL     1       2.799   0.098  10.096  0.00  0.00    +0.060 A 
ATOM     20  C   UNL     1       2.733  -0.006   8.703  0.00  0.00    +0.067 A 
ATOM     21 CL   UNL     1       1.628   0.968   7.784  0.00  0.00    -0.082 Cl
ATOM     22  C   UNL     1       2.099   0.907  11.088  0.00  0.00    +0.071 A 
ATOM     23  N   UNL     1       2.574   0.591  12.259  0.00  0.00    -0.174 NA
ATOM     24  N   UNL     1       3.561  -0.390  12.129  0.00  0.00    -0.249 N 
ATOM     25  C   UNL     1       4.314  -0.987  13.234  0.00  0.00    +0.174 C 
ATOM     26  C   UNL     1       1.023   1.925  10.809  0.00  0.00    +0.068 C 
ENDBRANCH  11  15
BRANCH   1  28
ATOM     27  N   UNL     1       1.068  -4.644   3.275  0.00  0.00    -0.311 N 
ATOM     28  C   UNL     1       1.706  -3.729   4.032  0.00  0.00    +0.218 C 
ATOM     29  O   UNL     1       1.134  -2.712   4.364  0.00  0.00    -0.275 OA
ATOM     30  H   UNL     1       1.525  -5.457   3.010  0.00  0.00    +0.149 HD
BRANCH  27  31
ATOM     31  C   UNL     1      -0.315  -4.409   2.853  0.00  0.00    +0.139 C 
BRANCH  31  37
ATOM     32  C   UNL     1      -0.862  -6.618  -1.604  0.00  0.00    +0.044 C 
ATOM     33  C   UNL     1      -1.053  -6.630  -0.110  0.00  0.00    -0.050 A 
ATOM     34  C   UNL     1      -1.666  -7.709   0.500  0.00  0.00    +0.006 A 
ATOM     35  C   UNL     1      -1.841  -7.720   1.871  0.00  0.00    -0.050 A 
ATOM     36  C   UNL     1      -1.404  -6.652   2.633  0.00  0.00    +0.008 A 
ATOM     37  C   UNL     1      -0.791  -5.573   2.023  0.00  0.00    -0.030 A 
ATOM     38  C   UNL     1      -0.612  -5.564   0.652  0.00  0.00    +0.008 A 
ATOM     39  C   UNL     1      -2.510  -8.896   2.536  0.00  0.00    +0.044 C 
ENDBRANCH  31  37
ENDBRANCH  27  31
ENDBRANCH   1  28
TORSDOF 4
