REMARK  Name = ZINC37083504
REMARK  5 active torsions:
REMARK  status: ('A' for Active; 'I' for Inactive)
REMARK    1  A    between atoms: C_1  and  C_2
REMARK    2  A    between atoms: C_2  and  C_3
REMARK    3  A    between atoms: C_10  and  C_12
REMARK    4  A    between atoms: C_12  and  C_13
REMARK    5  A    between atoms: C_13  and  N_15
REMARK                            x       y       z     vdW  Elec       q    Type
REMARK                         _______ _______ _______ _____ _____    ______ ____
ROOT
ATOM      1  C   UNL     1      -1.445  -0.485   0.011  0.00  0.00    +0.076 C 
ATOM      2  C   UNL     1      -1.553  -2.013  -0.015  0.00  0.00    +0.022 C 
ATOM      3  C   UNL     1      -3.026  -2.418   0.088  0.00  0.00    +0.003 C 
ATOM      4  C   UNL     1      -3.602  -1.916   1.414  0.00  0.00    +0.019 C 
ATOM      5  C   UNL     1      -3.517  -0.387   1.457  0.00  0.00    +0.108 C 
ATOM      6  N   UNL     1      -2.126   0.019   1.211  0.00  0.00    -0.298 N 
ATOM      7  C   UNL     1      -1.487   0.836   2.072  0.00  0.00    +0.222 C 
ATOM      8  O   UNL     1      -0.374   1.241   1.811  0.00  0.00    -0.275 OA
ENDROOT
BRANCH   1  10
ATOM      9  C   UNL     1       0.746  -0.640  -1.180  0.00  0.00    +0.006 C 
ATOM     10  C   UNL     1       0.029  -0.076   0.048  0.00  0.00    +0.019 C 
ENDBRANCH   1  10
BRANCH   7  11
ATOM     11  C   UNL     1      -2.155   1.246   3.360  0.00  0.00    +0.154 C 
BRANCH  11  12
ATOM     12  C   UNL     1      -1.185   2.037   4.199  0.00  0.00    +0.055 C 
ATOM     13  S   UNL     1       0.244   2.439   3.604  0.00  0.00    -0.040 S 
BRANCH  12  14
ATOM     14  N   UNL     1      -1.522   2.407   5.450  0.00  0.00    -0.355 N 
ATOM     15  H   UNL     1      -2.389   2.163   5.811  0.00  0.00    +0.143 HD
ATOM     16  H   UNL     1      -0.898   2.916   5.990  0.00  0.00    +0.143 HD
ENDBRANCH  12  14
ENDBRANCH  11  12
ENDBRANCH   7  11
TORSDOF 4
