REMARK  Name = ZINC40680965
REMARK  8 active torsions:
REMARK  status: ('A' for Active; 'I' for Inactive)
REMARK    1  A    between atoms: C_1  and  C_2
REMARK    2  A    between atoms: C_9  and  N_25
REMARK    3  A    between atoms: C_10  and  N_14
REMARK    4  A    between atoms: N_14  and  C_15
REMARK    5  A    between atoms: C_17  and  C_23
REMARK    6  A    between atoms: C_17  and  C_24
REMARK    7  A    between atoms: C_19  and  C_21
REMARK    8  A    between atoms: C_19  and  C_22
REMARK                            x       y       z     vdW  Elec       q    Type
REMARK                         _______ _______ _______ _____ _____    ______ ____
ROOT
ATOM      1  C   UNL     1      -0.022   1.650   0.637  0.00  0.00    +0.089 C 
ATOM      2  C   UNL     1      -0.013   0.148   0.525  0.00  0.00    +0.136 A 
ATOM      3  C   UNL     1      -1.097  -0.647   0.490  0.00  0.00    +0.091 A 
ATOM      4  C   UNL     1      -0.656  -1.986   0.379  0.00  0.00    +0.167 A 
ATOM      5  N   UNL     1       0.653  -1.976   0.351  0.00  0.00    -0.063 NA
ATOM      6  O   UNL     1       1.079  -0.628   0.437  0.00  0.00    -0.358 OA
ATOM      7  N   UNL     1      -1.469  -3.114   0.313  0.00  0.00    -0.280 N 
ATOM      8  C   UNL     1      -2.853  -2.977   0.355  0.00  0.00    +0.150 A 
ATOM      9  C   UNL     1      -3.679  -4.101   0.295  0.00  0.00    +0.105 A 
ATOM     10  C   UNL     1      -5.061  -3.907   0.342  0.00  0.00    +0.145 A 
ATOM     11  N   UNL     1      -5.535  -2.668   0.440  0.00  0.00    -0.219 NA
ATOM     12  C   UNL     1      -4.720  -1.633   0.493  0.00  0.00    +0.225 A 
ATOM     13  N   UNL     1      -3.410  -1.773   0.458  0.00  0.00    -0.219 NA
ATOM     14  H   UNL     1      -1.071  -3.995   0.238  0.00  0.00    +0.155 HD
ENDROOT
BRANCH   9  15
ATOM     15  N   UNL     1      -3.134  -5.391   0.192  0.00  0.00    -0.353 N 
ATOM     16  H   UNL     1      -2.172  -5.510   0.160  0.00  0.00    +0.143 HD
ATOM     17  H   UNL     1      -3.720  -6.163   0.151  0.00  0.00    +0.143 HD
ENDBRANCH   9  15
BRANCH  10  18
ATOM     18  N   UNL     1      -5.927  -4.992   0.285  0.00  0.00    -0.325 N 
ATOM     19  H   UNL     1      -5.574  -5.892   0.213  0.00  0.00    +0.148 HD
BRANCH  18  20
ATOM     20  C   UNL     1      -7.379  -4.775   0.335  0.00  0.00    +0.069 C 
ATOM     21  C   UNL     1      -7.829  -4.722   1.796  0.00  0.00    +0.009 C 
ATOM     22  C   UNL     1      -9.341  -4.509   1.864  0.00  0.00    -0.072 C 
ATOM     23  N   UNL     1     -10.070  -5.503   1.091  0.00  0.00    +0.386 N 
ATOM     24  C   UNL     1      -9.601  -5.790  -0.255  0.00  0.00    -0.072 C 
ATOM     25  C   UNL     1      -8.087  -5.948  -0.343  0.00  0.00    +0.009 C 
ATOM     26  C   UNL     1     -10.228  -7.136  -0.689  0.00  0.00    -0.010 C 
ATOM     27  C   UNL     1     -10.075  -4.734  -1.257  0.00  0.00    -0.010 C 
ATOM     28  C   UNL     1      -9.760  -4.668   3.344  0.00  0.00    -0.010 C 
ATOM     29  C   UNL     1      -9.694  -3.082   1.444  0.00  0.00    -0.010 C 
ATOM     30  H   UNL     1     -10.080  -6.378   1.621  0.00  0.00    -0.084 HD
ATOM     31  H   UNL     1     -11.050  -5.213   1.036  0.00  0.00    -0.084 HD
ENDBRANCH  18  20
ENDBRANCH  10  18
TORSDOF 3
