REMARK  Name = ZINC18281269
REMARK  10 active torsions:
REMARK  status: ('A' for Active; 'I' for Inactive)
REMARK    1  A    between atoms: C_1  and  C_2
REMARK    2  A    between atoms: C_2  and  C_3
REMARK    3  A    between atoms: C_2  and  C_4
REMARK    4  A    between atoms: C_7  and  C_10
REMARK    5  A    between atoms: C_10  and  C_12
REMARK    6  A    between atoms: C_10  and  N_15
REMARK    7  A    between atoms: C_12  and  C_13
REMARK    8  A    between atoms: C_12  and  C_14
REMARK    9  A    between atoms: C_16  and  C_18
REMARK   10  A    between atoms: C_18  and  N_19
REMARK                            x       y       z     vdW  Elec       q    Type
REMARK                         _______ _______ _______ _____ _____    ______ ____
ROOT
ATOM      1  N   UNL     1      -1.570  -4.266  -3.538  0.00  0.00    -0.307 N 
ATOM      2  C   UNL     1      -1.217  -3.413  -2.557  0.00  0.00    +0.231 C 
ATOM      3  O   UNL     1      -0.420  -3.758  -1.710  0.00  0.00    -0.274 OA
ATOM      4  H   UNL     1      -2.207  -3.991  -4.215  0.00  0.00    +0.149 HD
ENDROOT
BRANCH   1   5
ATOM      5  C   UNL     1      -0.990  -5.611  -3.582  0.00  0.00    +0.106 C 
BRANCH   5   9
ATOM      6  C   UNL     1      -1.089  -7.073  -7.595  0.00  0.00    -0.045 A 
ATOM      7  C   UNL     1       0.015  -7.315  -6.798  0.00  0.00    +0.004 A 
ATOM      8  C   UNL     1       0.047  -6.842  -5.499  0.00  0.00    +0.006 A 
ATOM      9  C   UNL     1      -1.025  -6.127  -4.998  0.00  0.00    -0.027 A 
ATOM     10  C   UNL     1      -2.131  -5.890  -5.793  0.00  0.00    +0.006 A 
ATOM     11  C   UNL     1      -2.160  -6.359  -7.093  0.00  0.00    +0.004 A 
BRANCH   6  13
ATOM     12  C   UNL     1      -2.310  -8.537  -9.180  0.00  0.00    +0.012 C 
ATOM     13  C   UNL     1      -1.123  -7.588  -9.011  0.00  0.00    +0.013 C 
ATOM     14  C   UNL     1      -1.269  -6.411  -9.978  0.00  0.00    +0.012 C 
ENDBRANCH   6  13
ENDBRANCH   5   9
BRANCH   5  15
ATOM     15  C   UNL     1      -1.799  -6.545  -2.679  0.00  0.00    +0.008 C 
ATOM     16  C   UNL     1      -1.194  -7.950  -2.726  0.00  0.00    +0.009 C 
ATOM     17  C   UNL     1      -1.764  -6.022  -1.242  0.00  0.00    +0.009 C 
ENDBRANCH   5  15
ENDBRANCH   1   5
BRANCH   2  18
ATOM     18  C   UNL     1      -1.813  -2.029  -2.511  0.00  0.00    +0.213 C 
BRANCH  18  19
ATOM     19  N   UNL     1      -1.273  -1.303  -1.359  0.00  0.00    -0.215 N 
ATOM     20  C   UNL     1      -0.155  -0.544  -1.395  0.00  0.00    +0.251 C 
ATOM     21  O   UNL     1       0.566  -0.342  -2.348  0.00  0.00    -0.272 OA
ATOM     22  C   UNL     1       0.002  -0.004   0.002  0.00  0.00    +0.138 C 
ATOM     23  C   UNL     1      -0.019   1.530   0.011  0.00  0.00    +0.045 C 
ATOM     24  C   UNL     1       1.487   1.876  -0.002  0.00  0.00    +0.038 C 
ATOM     25  C   UNL     1       2.177   0.676   0.613  0.00  0.00    -0.042 A 
ATOM     26  C   UNL     1       1.317  -0.410   0.610  0.00  0.00    -0.012 A 
ATOM     27  C   UNL     1       1.744  -1.624   1.124  0.00  0.00    +0.006 A 
ATOM     28  C   UNL     1       3.018  -1.753   1.640  0.00  0.00    +0.000 A 
ATOM     29  C   UNL     1       3.874  -0.668   1.644  0.00  0.00    +0.000 A 
ATOM     30  C   UNL     1       3.453   0.543   1.131  0.00  0.00    +0.004 A 
ATOM     31  N   UNL     1      -1.133  -0.558   0.742  0.00  0.00    -0.281 N 
ATOM     32  C   UNL     1      -1.826  -1.307  -0.139  0.00  0.00    +0.310 C 
ATOM     33  O   UNL     1      -2.838  -1.919   0.142  0.00  0.00    -0.252 OA
ATOM     34  H   UNL     1      -1.344  -0.414   1.678  0.00  0.00    +0.152 HD
ENDBRANCH  18  19
ENDBRANCH   2  18
TORSDOF 6
