REMARK  Name = ZINC31813992
REMARK  9 active torsions:
REMARK  status: ('A' for Active; 'I' for Inactive)
REMARK    1  A    between atoms: C_1  and  C_2
REMARK    2  A    between atoms: C_2  and  N_3
REMARK    3  A    between atoms: C_7  and  C_9
REMARK    4  A    between atoms: C_9  and  N_10
REMARK    5  A    between atoms: C_11  and  C_13
REMARK    6  A    between atoms: C_15  and  C_18
REMARK    7  A    between atoms: C_18  and  O_19
REMARK    8  A    between atoms: O_19  and  C_20
REMARK    9  A    between atoms: C_27  and  O_30
REMARK                            x       y       z     vdW  Elec       q    Type
REMARK                         _______ _______ _______ _____ _____    ______ ____
ROOT
ATOM      1  C   UNL     1      -1.497  -1.231  -4.943  0.00  0.00    +0.313 A 
ATOM      2  N   UNL     1      -1.906  -1.349  -6.183  0.00  0.00    -0.184 NA
ATOM      3  C   UNL     1      -1.166  -0.581  -6.984  0.00  0.00    +0.209 A 
ATOM      4  N   UNL     1      -0.271   0.042  -6.271  0.00  0.00    -0.057 NA
ATOM      5  O   UNL     1      -0.470  -0.364  -4.924  0.00  0.00    -0.328 OA
ENDROOT
BRANCH   1   7
ATOM      6  N   UNL     1      -1.557  -1.711  -2.540  0.00  0.00    -0.309 N 
ATOM      7  C   UNL     1      -2.070  -1.927  -3.767  0.00  0.00    +0.302 C 
ATOM      8  O   UNL     1      -3.004  -2.692  -3.909  0.00  0.00    -0.265 OA
ATOM      9  H   UNL     1      -0.812  -1.101  -2.426  0.00  0.00    +0.149 HD
BRANCH   6  10
ATOM     10  C   UNL     1      -2.124  -2.399  -1.377  0.00  0.00    +0.089 C 
BRANCH  10  15
ATOM     11  N   UNL     1      -1.376  -0.512   0.012  0.00  0.00    +0.382 N 
ATOM     12  C   UNL     1      -2.028  -0.158   1.291  0.00  0.00    -0.078 C 
ATOM     13  C   UNL     1      -2.935  -1.369   1.623  0.00  0.00    -0.020 C 
ATOM     14  C   UNL     1      -2.064  -2.556   1.133  0.00  0.00    -0.016 C 
ATOM     15  C   UNL     1      -1.364  -1.981  -0.117  0.00  0.00    -0.051 C 
ATOM     16  H   UNL     1      -1.894  -0.109  -0.754  0.00  0.00    -0.081 HD
BRANCH  11  18
ATOM     17  C   UNL     1      -0.019   1.526   0.010  0.00  0.00    -0.017 C 
ATOM     18  C   UNL     1       0.002  -0.004   0.002  0.00  0.00    -0.082 C 
ENDBRANCH  11  18
ENDBRANCH  10  15
ENDBRANCH   6  10
ENDBRANCH   1   7
BRANCH   3  19
ATOM     19  C   UNL     1      -1.337  -0.454  -8.476  0.00  0.00    +0.308 C 
BRANCH  19  20
ATOM     20  O   UNL     1      -2.251   0.607  -8.762  0.00  0.00    -0.484 OA
BRANCH  20  21
ATOM     21  C   UNL     1      -2.517   0.856 -10.071  0.00  0.00    +0.123 A 
ATOM     22  C   UNL     1      -1.915   0.087 -11.059  0.00  0.00    +0.046 A 
ATOM     23  C   UNL     1      -2.179   0.339 -12.393  0.00  0.00    +0.009 A 
ATOM     24  C   UNL     1      -3.044   1.353 -12.747  0.00  0.00    -0.021 A 
ATOM     25  C   UNL     1      -3.661   2.125 -11.763  0.00  0.00    +0.074 A 
ATOM     26  C   UNL     1      -3.394   1.870 -10.418  0.00  0.00    +0.073 A 
ATOM     27  N   UNL     1      -4.540   3.113 -12.116  0.00  0.00    -0.217 NA
ATOM     28  C   UNL     1      -5.066   3.167 -13.295  0.00  0.00    +0.188 C 
ATOM     29  C   UNL     1      -4.770   2.127 -14.341  0.00  0.00    +0.100 C 
ATOM     30  C   UNL     1      -3.325   1.643 -14.200  0.00  0.00    +0.046 C 
BRANCH  28  31
ATOM     31  O   UNL     1      -5.902   4.182 -13.596  0.00  0.00    -0.495 OA
ATOM     32  H   UNL     1      -6.040   4.806 -12.870  0.00  0.00    +0.293 HD
ENDBRANCH  28  31
ENDBRANCH  20  21
ENDBRANCH  19  20
ENDBRANCH   3  19
TORSDOF 8
