REMARK  Name = ZINC37486257
REMARK  8 active torsions:
REMARK  status: ('A' for Active; 'I' for Inactive)
REMARK    1  A    between atoms: C_1  and  C_2
REMARK    2  A    between atoms: C_2  and  C_3
REMARK    3  A    between atoms: C_2  and  C_4
REMARK    4  A    between atoms: C_4  and  N_5
REMARK    5  A    between atoms: C_6  and  N_22
REMARK    6  A    between atoms: C_7  and  N_14
REMARK    7  A    between atoms: N_14  and  C_15
REMARK    8  A    between atoms: C_18  and  O_21
REMARK                            x       y       z     vdW  Elec       q    Type
REMARK                         _______ _______ _______ _____ _____    ______ ____
ROOT
ATOM      1  N   UNL     1       2.198  -0.225  -1.476  0.00  0.00    -0.280 N 
ATOM      2  C   UNL     1       2.568   1.005  -1.970  0.00  0.00    +0.127 A 
ATOM      3  C   UNL     1       3.833   1.471  -1.730  0.00  0.00    +0.131 A 
ATOM      4  C   UNL     1       4.722   0.678  -0.983  0.00  0.00    +0.277 A 
ATOM      5  O   UNL     1       5.853   1.073  -0.756  0.00  0.00    -0.266 OA
ATOM      6  N   UNL     1       4.316  -0.520  -0.519  0.00  0.00    -0.273 N 
ATOM      7  H   UNL     1       4.928  -1.068  -0.003  0.00  0.00    +0.173 HD
ATOM      8  C   UNL     1       3.068  -0.961  -0.760  0.00  0.00    +0.331 A 
ATOM      9  O   UNL     1       2.721  -2.044  -0.328  0.00  0.00    -0.246 OA
ENDROOT
BRANCH   2  10
ATOM     10  N   UNL     1       1.677   1.759  -2.698  0.00  0.00    -0.343 N 
ATOM     11  H   UNL     1       0.782   1.423  -2.866  0.00  0.00    +0.144 HD
ATOM     12  H   UNL     1       1.943   2.625  -3.044  0.00  0.00    +0.144 HD
ENDBRANCH   2  10
BRANCH   3  13
ATOM     13  N   UNL     1       4.239   2.732  -2.226  0.00  0.00    -0.334 N 
ATOM     14  H   UNL     1       3.597   3.308  -2.670  0.00  0.00    +0.147 HD
BRANCH  13  15
ATOM     15  C   UNL     1       5.629   3.167  -2.071  0.00  0.00    +0.071 C 
ATOM     16  C   UNL     1       5.827   3.750  -0.670  0.00  0.00    +0.025 C 
ATOM     17  C   UNL     1       4.894   4.947  -0.480  0.00  0.00    +0.033 C 
ATOM     18  C   UNL     1       5.214   6.016  -1.527  0.00  0.00    +0.115 C 
ATOM     19  C   UNL     1       5.016   5.432  -2.928  0.00  0.00    +0.033 C 
ATOM     20  C   UNL     1       5.949   4.235  -3.118  0.00  0.00    +0.025 C 
BRANCH  18  21
ATOM     21  O   UNL     1       4.342   7.134  -1.349  0.00  0.00    -0.392 OA
ATOM     22  H   UNL     1       4.489   7.851  -1.981  0.00  0.00    +0.210 HD
ENDBRANCH  18  21
ENDBRANCH  13  15
ENDBRANCH   3  13
BRANCH   1  23
ATOM     23  C   UNL     1       0.847  -0.734  -1.727  0.00  0.00    +0.131 C 
BRANCH  23  25
ATOM     24  C   UNL     1      -0.215   1.246  -0.633  0.00  0.00    +0.009 C 
ATOM     25  C   UNL     1      -0.086  -0.279  -0.603  0.00  0.00    +0.003 C 
ATOM     26  C   UNL     1      -1.465  -0.911  -0.798  0.00  0.00    +0.009 C 
ENDBRANCH  23  25
ENDBRANCH   1  23
TORSDOF 6
