REMARK  Name = ZINC49338467
REMARK  8 active torsions:
REMARK  status: ('A' for Active; 'I' for Inactive)
REMARK    1  A    between atoms: C_1  and  C_2
REMARK    2  A    between atoms: C_2  and  C_3
REMARK    3  A    between atoms: C_2  and  C_4
REMARK    4  A    between atoms: C_6  and  C_9
REMARK    5  A    between atoms: C_9  and  O_10
REMARK    6  A    between atoms: O_10  and  C_11
REMARK    7  A    between atoms: C_12  and  C_19
REMARK    8  A    between atoms: C_19  and  O_20
REMARK                            x       y       z     vdW  Elec       q    Type
REMARK                         _______ _______ _______ _____ _____    ______ ____
ROOT
ATOM      1  C   UNL     1      -4.829  -4.692  -1.644  0.00  0.00    +0.145 A 
ATOM      2  C   UNL     1      -6.096  -4.969  -1.152  0.00  0.00    +0.022 A 
ATOM      3  C   UNL     1      -6.901  -5.888  -1.798  0.00  0.00    +0.029 A 
ATOM      4  C   UNL     1      -6.444  -6.531  -2.935  0.00  0.00    +0.043 A 
ATOM      5  C   UNL     1      -5.181  -6.256  -3.428  0.00  0.00    +0.043 A 
ATOM      6  C   UNL     1      -4.375  -5.333  -2.788  0.00  0.00    +0.084 A 
ATOM      7 CL   UNL     1      -2.792  -4.983  -3.410  0.00  0.00    -0.080 Cl
ATOM      8 CL   UNL     1      -7.458  -7.685  -3.744  0.00  0.00    -0.083 Cl
ENDROOT
BRANCH   1   9
ATOM      9  O   UNL     1      -4.035  -3.788  -1.010  0.00  0.00    -0.481 OA
BRANCH   9  10
ATOM     10  C   UNL     1      -4.145  -2.425  -1.424  0.00  0.00    +0.327 C 
BRANCH  10  13
ATOM     11  C   UNL     1      -1.412  -0.526   0.013  0.00  0.00    +0.174 A 
ATOM     12  N   UNL     1      -1.960  -1.305  -0.926  0.00  0.00    -0.193 NA
ATOM     13  C   UNL     1      -3.197  -1.577  -0.615  0.00  0.00    +0.265 A 
ATOM     14  O   UNL     1      -3.481  -0.973   0.546  0.00  0.00    -0.334 OA
ATOM     15  N   UNL     1      -2.296  -0.296   0.940  0.00  0.00    -0.061 NA
BRANCH  11  17
ATOM     16  C   UNL     1      -0.019   1.526   0.010  0.00  0.00    +0.015 C 
ATOM     17  C   UNL     1       0.002  -0.004   0.002  0.00  0.00    +0.054 C 
ATOM     18  C   UNL     1       0.742  -0.511   1.242  0.00  0.00    +0.015 C 
ENDBRANCH  11  17
ENDBRANCH  10  13
ENDBRANCH   9  10
ENDBRANCH   1   9
BRANCH   2  19
ATOM     19  C   UNL     1      -6.594  -4.270   0.086  0.00  0.00    +0.194 C 
BRANCH  19  20
ATOM     20  O   UNL     1      -7.915  -4.721   0.389  0.00  0.00    -0.390 OA
ATOM     21  H   UNL     1      -8.300  -4.312   1.177  0.00  0.00    +0.210 HD
ENDBRANCH  19  20
ENDBRANCH   2  19
TORSDOF 6
