REMARK  Name = ZINC41144682
REMARK  2 active torsions:
REMARK  status: ('A' for Active; 'I' for Inactive)
REMARK    1  A    between atoms: C_6  and  C_19
REMARK    2  A    between atoms: C_7  and  C_8
REMARK                            x       y       z     vdW  Elec       q    Type
REMARK                         _______ _______ _______ _____ _____    ______ ____
ROOT
ATOM      1  C   UNL     1      -1.262  -0.773   0.009  0.00  0.00    +0.005 A 
ATOM      2  C   UNL     1      -2.008  -0.869   1.177  0.00  0.00    +0.021 A 
ATOM      3  C   UNL     1      -3.199  -1.597   1.172  0.00  0.00    +0.020 A 
ATOM      4  C   UNL     1      -4.205  -1.899   2.187  0.00  0.00    +0.142 A 
ATOM      5  N   UNL     1      -5.125  -2.632   1.629  0.00  0.00    -0.181 NA
ATOM      6  N   UNL     1      -4.812  -2.855   0.284  0.00  0.00    -0.277 N 
ATOM      7  H   UNL     1      -5.345  -3.372  -0.339  0.00  0.00    +0.189 HD
ATOM      8  C   UNL     1      -3.631  -2.226  -0.013  0.00  0.00    +0.067 A 
ATOM      9  C   UNL     1      -2.867  -2.117  -1.173  0.00  0.00    +0.048 A 
ATOM     10  C   UNL     1      -1.706  -1.400  -1.165  0.00  0.00    +0.051 A 
ATOM     11 CL   UNL     1      -0.768  -1.266  -2.619  0.00  0.00    -0.083 Cl
ENDROOT
BRANCH   1  18
ATOM     12  C   UNL     1      -0.018   1.461   0.010  0.00  0.00    +0.019 A 
ATOM     13  C   UNL     1       1.167   2.124   0.002  0.00  0.00    +0.093 A 
ATOM     14  C   UNL     1       2.377   1.388  -0.013  0.00  0.00    +0.337 A 
ATOM     15  O   UNL     1       3.439   1.983  -0.020  0.00  0.00    -0.245 OA
ATOM     16  O   UNL     1       2.373   0.048  -0.020  0.00  0.00    -0.415 OA
ATOM     17  C   UNL     1       1.224  -0.657  -0.013  0.00  0.00    +0.227 A 
ATOM     18  C   UNL     1       0.002  -0.004   0.002  0.00  0.00    +0.033 A 
BRANCH  17  19
ATOM     19  C   UNL     1       1.267  -2.125  -0.022  0.00  0.00    +0.422 C 
ATOM     20  O   UNL     1       0.226  -2.768  -0.015  0.00  0.00    -0.237 OA
ATOM     21  O   UNL     1       2.345  -2.705  -0.036  0.00  0.00    -0.237 OA
ENDBRANCH  17  19
ENDBRANCH   1  18
TORSDOF 2
