REMARK  Name = ZINC01824487
REMARK  4 active torsions:
REMARK  status: ('A' for Active; 'I' for Inactive)
REMARK    1  A    between atoms: C_1  and  O_2
REMARK    2  A    between atoms: O_2  and  C_3
REMARK    3  A    between atoms: C_6  and  C_9
REMARK    4  A    between atoms: C_11  and  C_19
REMARK                            x       y       z     vdW  Elec       q    Type
REMARK                         _______ _______ _______ _____ _____    ______ ____
ROOT
ATOM      1  C   UNL     1       2.571  -2.535   4.285  0.00  0.00    +0.055 C 
ATOM      2  C   UNL     1       2.624  -4.036   4.308  0.00  0.00    +0.088 C 
ATOM      3  C   UNL     1       3.924  -4.535   4.948  0.00  0.00    +0.148 C 
ATOM      4  N   UNL     1       4.197  -3.710   6.124  0.00  0.00    -0.222 N 
ATOM      5  C   UNL     1       3.800  -2.404   6.217  0.00  0.00    +0.249 A 
ATOM      6  N   UNL     1       4.209  -1.950   7.377  0.00  0.00    -0.198 NA
ATOM      7  C   UNL     1       4.846  -2.918   8.037  0.00  0.00    +0.247 A 
ATOM      8  N   UNL     1       4.859  -4.010   7.309  0.00  0.00    -0.156 NA
ATOM      9  N   UNL     1       3.105  -1.795   5.220  0.00  0.00    -0.215 NA
ENDROOT
BRANCH   3  10
ATOM     10  C   UNL     1       5.057  -4.409   3.962  0.00  0.00    -0.004 A 
ATOM     11  C   UNL     1       5.399  -3.169   3.457  0.00  0.00    +0.007 A 
ATOM     12  C   UNL     1       6.439  -3.053   2.553  0.00  0.00    +0.000 A 
ATOM     13  C   UNL     1       7.137  -4.178   2.154  0.00  0.00    +0.001 A 
ATOM     14  C   UNL     1       6.796  -5.418   2.659  0.00  0.00    +0.020 A 
ATOM     15  C   UNL     1       5.760  -5.534   3.568  0.00  0.00    +0.046 A 
ATOM     16 CL   UNL     1       5.335  -7.091   4.208  0.00  0.00    -0.083 Cl
ENDBRANCH   3  10
BRANCH   1  20
ATOM     17  C   UNL     1       0.625  -0.618   1.040  0.00  0.00    +0.120 A 
ATOM     18  C   UNL     1       1.202   0.144   2.050  0.00  0.00    +0.046 A 
ATOM     19  C   UNL     1       1.834  -0.473   3.106  0.00  0.00    +0.013 A 
ATOM     20  C   UNL     1       1.896  -1.871   3.161  0.00  0.00    -0.003 A 
ATOM     21  C   UNL     1       1.314  -2.633   2.141  0.00  0.00    +0.013 A 
ATOM     22  C   UNL     1       0.679  -2.006   1.093  0.00  0.00    +0.046 A 
BRANCH  17  24
ATOM     23  C   UNL     1      -0.017   1.425   0.010  0.00  0.00    +0.277 C 
ATOM     24  O   UNL     1       0.002  -0.004   0.002  0.00  0.00    -0.495 OA
ENDBRANCH  17  24
ENDBRANCH   1  20
TORSDOF 3
