REMARK  Name = ZINC65839639
REMARK  11 active torsions:
REMARK  status: ('A' for Active; 'I' for Inactive)
REMARK    1  A    between atoms: C_1  and  C_2
REMARK    2  A    between atoms: C_7  and  C_8
REMARK    3  A    between atoms: C_8  and  C_9
REMARK    4  A    between atoms: C_8  and  N_25
REMARK    5  A    between atoms: C_9  and  C_10
REMARK    6  A    between atoms: N_12  and  C_13
REMARK    7  A    between atoms: C_15  and  C_23
REMARK    8  A    between atoms: C_18  and  O_19
REMARK    9  A    between atoms: O_19  and  C_20
REMARK   10  A    between atoms: C_20  and  C_21
REMARK   11  A    between atoms: C_20  and  C_22
REMARK                            x       y       z     vdW  Elec       q    Type
REMARK                         _______ _______ _______ _____ _____    ______ ____
ROOT
ATOM      1  C   UNL     1      -1.647   1.001   2.957  0.00  0.00    +0.123 C 
ENDROOT
BRANCH   1   2
ATOM      2  C   UNL     1      -1.588   2.062   4.025  0.00  0.00    +0.219 C 
ATOM      3  O   UNL     1      -0.536   2.314   4.573  0.00  0.00    -0.275 OA
ATOM      4  N   UNL     1      -2.705   2.732   4.372  0.00  0.00    -0.282 N 
ATOM      5  H   UNL     1      -3.560   2.479   3.990  0.00  0.00    +0.155 HD
BRANCH   4   6
ATOM      6  C   UNL     1      -2.631   3.793   5.283  0.00  0.00    +0.077 A 
ATOM      7  C   UNL     1      -1.438   4.470   5.463  0.00  0.00    +0.045 A 
ATOM      8  C   UNL     1      -1.369   5.528   6.372  0.00  0.00    +0.054 A 
ATOM      9  C   UNL     1      -2.506   5.898   7.097  0.00  0.00    +0.022 A 
ATOM     10  C   UNL     1      -3.691   5.220   6.914  0.00  0.00    +0.049 A 
ATOM     11  C   UNL     1      -3.763   4.172   6.006  0.00  0.00    +0.142 A 
BRANCH   8  12
ATOM     12  C   UNL     1      -0.137   6.232   6.562  0.00  0.00    +0.099 C 
ATOM     13  N   UNL     1       0.841   6.790   6.713  0.00  0.00    -0.191 NA
ENDBRANCH   8  12
BRANCH  11  14
ATOM     14  O   UNL     1      -4.936   3.511   5.826  0.00  0.00    -0.488 OA
BRANCH  14  15
ATOM     15  C   UNL     1      -6.080   4.020   6.514  0.00  0.00    +0.167 C 
ATOM     16  C   UNL     1      -7.350   3.606   5.767  0.00  0.00    +0.051 C 
ATOM     17  C   UNL     1      -6.115   3.452   7.934  0.00  0.00    +0.051 C 
ENDBRANCH  14  15
ENDBRANCH  11  14
ENDBRANCH   4   6
ENDBRANCH   1   2
BRANCH   1  18
ATOM     18  C   UNL     1      -0.254   0.401   2.757  0.00  0.00    +0.114 C 
BRANCH  18  25
ATOM     19  C   UNL     1       2.217  -0.529   1.583  0.00  0.00    +0.044 C 
ATOM     20  C   UNL     1       0.896  -1.016   1.044  0.00  0.00    -0.045 A 
ATOM     21  C   UNL     1       0.867  -1.913  -0.008  0.00  0.00    +0.004 A 
ATOM     22  C   UNL     1      -0.344  -2.360  -0.501  0.00  0.00    +0.000 A 
ATOM     23  C   UNL     1      -1.526  -1.911   0.057  0.00  0.00    +0.000 A 
ATOM     24  C   UNL     1      -1.497  -1.015   1.110  0.00  0.00    +0.006 A 
ATOM     25  C   UNL     1      -0.285  -0.571   1.606  0.00  0.00    -0.024 A 
ENDBRANCH  18  25
BRANCH  18  26
ATOM     26  N   UNL     1       0.155  -0.300   3.977  0.00  0.00    -0.292 N 
ATOM     27  C   UNL     1      -0.546  -1.366   4.409  0.00  0.00    +0.298 C 
ATOM     28  O   UNL     1      -1.460  -1.805   3.738  0.00  0.00    -0.253 OA
ATOM     29  N   UNL     1      -0.236  -1.946   5.586  0.00  0.00    -0.313 N 
ATOM     30  H   UNL     1       0.931   0.004   4.474  0.00  0.00    +0.151 HD
ATOM     31  H   UNL     1       0.493  -1.595   6.121  0.00  0.00    +0.146 HD
ATOM     32  H   UNL     1      -0.741  -2.713   5.897  0.00  0.00    +0.146 HD
ENDBRANCH  18  26
ENDBRANCH   1  18
TORSDOF 8
