REMARK  Name = ZINC28572899
REMARK  8 active torsions:
REMARK  status: ('A' for Active; 'I' for Inactive)
REMARK    1  A    between atoms: C_1  and  C_2
REMARK    2  A    between atoms: C_2  and  C_3
REMARK    3  A    between atoms: C_9  and  C_25
REMARK    4  A    between atoms: C_10  and  C_12
REMARK    5  A    between atoms: C_12  and  O_14
REMARK    6  A    between atoms: O_14  and  C_15
REMARK    7  A    between atoms: C_15  and  C_16
REMARK    8  A    between atoms: N_18  and  C_19
REMARK                            x       y       z     vdW  Elec       q    Type
REMARK                         _______ _______ _______ _____ _____    ______ ____
ROOT
ATOM      1  C   UNL     1      -0.164   1.192   2.389  0.00  0.00    +0.376 C 
ATOM      2  O   UNL     1       0.838   0.504   2.424  0.00  0.00    -0.241 OA
ENDROOT
BRANCH   1  10
ATOM      3  C   UNL     1      -2.408   2.738   7.780  0.00  0.00    -0.047 A 
ATOM      4  C   UNL     1      -3.349   3.384   6.989  0.00  0.00    +0.007 A 
ATOM      5  C   UNL     1      -3.270   3.328   5.614  0.00  0.00    +0.047 A 
ATOM      6  C   UNL     1      -2.239   2.620   5.007  0.00  0.00    +0.136 A 
ATOM      7  C   UNL     1      -1.288   1.968   5.814  0.00  0.00    +0.024 A 
ATOM      8  C   UNL     1      -1.386   2.036   7.206  0.00  0.00    +0.015 A 
ATOM      9  C   UNL     1      -0.358   1.323   4.888  0.00  0.00    +0.010 A 
ATOM     10  C   UNL     1      -0.798   1.629   3.639  0.00  0.00    +0.216 A 
ATOM     11  O   UNL     1      -1.908   2.392   3.722  0.00  0.00    -0.448 OA
ATOM     12  C   UNL     1       0.845   0.489   5.246  0.00  0.00    +0.048 C 
BRANCH   3  14
ATOM     13  C   UNL     1      -1.734   4.027   9.789  0.00  0.00    +0.009 C 
ATOM     14  C   UNL     1      -2.514   2.812   9.281  0.00  0.00    +0.032 C 
ENDBRANCH   3  14
ENDBRANCH   1  10
BRANCH   1  15
ATOM     15  O   UNL     1      -0.692   1.554   1.203  0.00  0.00    -0.450 OA
BRANCH  15  16
ATOM     16  C   UNL     1      -0.013   1.086   0.008  0.00  0.00    +0.328 C 
BRANCH  16  17
ATOM     17  C   UNL     1      -0.742   1.585  -1.213  0.00  0.00    +0.251 C 
ATOM     18  O   UNL     1      -1.736   2.268  -1.088  0.00  0.00    -0.272 OA
ATOM     19  N   UNL     1      -0.288   1.272  -2.443  0.00  0.00    -0.310 N 
ATOM     20  H   UNL     1       0.614   0.653  -2.556  0.00  0.00    +0.149 HD
BRANCH  19  21
ATOM     21  C   UNL     1      -0.997   1.758  -3.630  0.00  0.00    +0.073 C 
ATOM     22  C   UNL     1      -2.141   0.800  -3.968  0.00  0.00    +0.022 C 
ATOM     23  C   UNL     1      -2.881   1.307  -5.207  0.00  0.00    +0.002 C 
ATOM     24  C   UNL     1      -1.910   1.378  -6.388  0.00  0.00    +0.000 C 
ATOM     25  C   UNL     1      -0.766   2.336  -6.050  0.00  0.00    +0.002 C 
ATOM     26  C   UNL     1      -0.026   1.829  -4.810  0.00  0.00    +0.022 C 
ENDBRANCH  19  21
ENDBRANCH  16  17
ENDBRANCH  15  16
ENDBRANCH   1  15
TORSDOF 6
