REMARK  Name = ZINC13476600
REMARK  11 active torsions:
REMARK  status: ('A' for Active; 'I' for Inactive)
REMARK    1  A    between atoms: C_1  and  C_2
REMARK    2  A    between atoms: C_2  and  C_34
REMARK    3  A    between atoms: N_4  and  C_5
REMARK    4  A    between atoms: C_9  and  O_11
REMARK    5  A    between atoms: O_11  and  C_12
REMARK    6  A    between atoms: C_16  and  C_23
REMARK    7  A    between atoms: C_17  and  C_19
REMARK    8  A    between atoms: C_19  and  O_21
REMARK    9  A    between atoms: O_21  and  C_22
REMARK   10  A    between atoms: C_23  and  O_25
REMARK   11  A    between atoms: O_25  and  C_26
REMARK                            x       y       z     vdW  Elec       q    Type
REMARK                         _______ _______ _______ _____ _____    ______ ____
ROOT
ATOM      1  C   UNL     1      -0.056   1.025  -0.158  0.00  0.00    +0.038 C 
ATOM      2  C   UNL     1      -0.507  -0.397   0.181  0.00  0.00    +0.069 C 
ATOM      3  C   UNL     1       0.316  -1.385  -0.607  0.00  0.00    +0.074 C 
ATOM      4  N   UNL     1      -0.100  -1.797  -1.786  0.00  0.00    -0.249 NA
ATOM      5  C   UNL     1       1.529  -1.865  -0.080  0.00  0.00    +0.028 C 
ATOM      6  C   UNL     1       2.368  -2.671  -0.853  0.00  0.00    +0.060 C 
ATOM      7  S   UNL     1       3.836  -3.546  -0.367  0.00  0.00    -0.073 S 
ATOM      8  C   UNL     1       4.401  -4.362  -1.822  0.00  0.00    +0.118 C 
ATOM      9  C   UNL     1       3.618  -4.136  -2.908  0.00  0.00    +0.118 C 
ATOM     10  S   UNL     1       2.238  -3.093  -2.574  0.00  0.00    -0.073 S 
ATOM     11  C   UNL     1       1.902  -1.503   1.307  0.00  0.00    +0.006 A 
ATOM     12  C   UNL     1       3.171  -1.778   1.804  0.00  0.00    +0.010 A 
ATOM     13  C   UNL     1       3.491  -1.416   3.099  0.00  0.00    +0.001 A 
ATOM     14  C   UNL     1       2.557  -0.782   3.899  0.00  0.00    +0.002 A 
ATOM     15  C   UNL     1       1.289  -0.508   3.414  0.00  0.00    +0.023 A 
ATOM     16  C   UNL     1       0.954  -0.870   2.123  0.00  0.00    +0.036 A 
ATOM     17  N   UNL     1      -0.329  -0.635   1.617  0.00  0.00    -0.333 N 
ATOM     18  C   UNL     1      -1.983  -0.562  -0.183  0.00  0.00    +0.038 C 
ATOM     19  H   UNL     1      -1.095  -0.628   2.212  0.00  0.00    +0.147 HD
ENDROOT
BRANCH   4  20
ATOM     20  C   UNL     1      -1.144  -1.166  -2.401  0.00  0.00    +0.068 A 
ATOM     21  C   UNL     1      -0.974   0.116  -2.933  0.00  0.00    +0.028 A 
ATOM     22  C   UNL     1      -2.031   0.749  -3.554  0.00  0.00    +0.006 A 
ATOM     23  C   UNL     1      -3.259   0.121  -3.651  0.00  0.00    +0.046 A 
ATOM     24  C   UNL     1      -3.438  -1.152  -3.124  0.00  0.00    +0.122 A 
ATOM     25  C   UNL     1      -2.384  -1.800  -2.505  0.00  0.00    +0.073 A 
BRANCH  24  26
ATOM     26  O   UNL     1      -4.648  -1.763  -3.223  0.00  0.00    -0.495 OA
ATOM     27  C   UNL     1      -5.689  -1.038  -3.880  0.00  0.00    +0.277 C 
ENDBRANCH  24  26
ENDBRANCH   4  20
BRANCH   9  28
ATOM     28  C   UNL     1       3.892  -4.713  -4.235  0.00  0.00    +0.347 C 
ATOM     29  O   UNL     1       3.356  -5.751  -4.569  0.00  0.00    -0.244 OA
BRANCH  28  30
ATOM     30  O   UNL     1       4.737  -4.088  -5.080  0.00  0.00    -0.464 OA
ATOM     31  C   UNL     1       4.956  -4.704  -6.351  0.00  0.00    +0.280 C 
ENDBRANCH  28  30
ENDBRANCH   9  28
BRANCH   8  32
ATOM     32  C   UNL     1       5.607  -5.207  -1.858  0.00  0.00    +0.347 C 
ATOM     33  O   UNL     1       5.997  -5.664  -2.914  0.00  0.00    -0.244 OA
BRANCH  32  34
ATOM     34  O   UNL     1       6.277  -5.473  -0.719  0.00  0.00    -0.464 OA
ATOM     35  C   UNL     1       7.438  -6.300  -0.828  0.00  0.00    +0.280 C 
ENDBRANCH  32  34
ENDBRANCH   8  32
TORSDOF 6
