REMARK  Name = ZINC08764500
REMARK  10 active torsions:
REMARK  status: ('A' for Active; 'I' for Inactive)
REMARK    1  A    between atoms: C_1  and  C_2
REMARK    2  A    between atoms: C_3  and  C_15
REMARK    3  A    between atoms: C_9  and  O_14
REMARK    4  A    between atoms: C_11  and  O_13
REMARK    5  A    between atoms: C_15  and  C_16
REMARK    6  A    between atoms: N_18  and  C_19
REMARK    7  A    between atoms: C_19  and  C_20
REMARK    8  A    between atoms: C_20  and  C_21
REMARK    9  A    between atoms: C_29  and  O_31
REMARK   10  A    between atoms: O_31  and  C_32
REMARK                            x       y       z     vdW  Elec       q    Type
REMARK                         _______ _______ _______ _____ _____    ______ ____
ROOT
ATOM      1  C   UNL     1       5.246   4.506   1.504  0.00  0.00    +0.218 C 
ATOM      2  O   UNL     1       4.572   4.050   2.404  0.00  0.00    -0.275 OA
ATOM      3  N   UNL     1       6.364   5.203   1.787  0.00  0.00    -0.315 N 
ATOM      4  H   UNL     1       6.903   5.568   1.067  0.00  0.00    +0.149 HD
ENDROOT
BRANCH   1   5
ATOM      5  C   UNL     1       4.833   4.292   0.071  0.00  0.00    +0.138 C 
BRANCH   5   8
ATOM      6  C   UNL     1       4.938   1.416  -0.039  0.00  0.00    +0.045 C 
ATOM      7  C   UNL     1       3.612   2.132  -0.022  0.00  0.00    -0.026 A 
ATOM      8  C   UNL     1       3.559   3.488   0.030  0.00  0.00    +0.049 A 
ATOM      9  C   UNL     1       2.311   4.143   0.044  0.00  0.00    +0.341 A 
ATOM     10  O   UNL     1       2.272   5.359   0.091  0.00  0.00    -0.245 OA
ATOM     11  O   UNL     1       1.163   3.445   0.009  0.00  0.00    -0.422 OA
ATOM     12  C   UNL     1       1.172   2.094  -0.043  0.00  0.00    +0.146 A 
ATOM     13  C   UNL     1       2.397   1.401  -0.059  0.00  0.00    +0.062 A 
ATOM     14  C   UNL     1       2.405  -0.004  -0.113  0.00  0.00    +0.131 A 
ATOM     15  C   UNL     1       1.209  -0.693  -0.149  0.00  0.00    +0.091 A 
ATOM     16  C   UNL     1       0.002  -0.001  -0.133  0.00  0.00    +0.124 A 
ATOM     17  C   UNL     1      -0.017   1.384  -0.080  0.00  0.00    +0.092 A 
BRANCH  16  18
ATOM     18  O   UNL     1      -1.168  -0.689  -0.168  0.00  0.00    -0.507 OA
ATOM     19  H   UNL     1      -1.500  -0.854  -1.061  0.00  0.00    +0.292 HD
ENDBRANCH  16  18
BRANCH  14  20
ATOM     20  O   UNL     1       3.582  -0.679  -0.130  0.00  0.00    -0.506 OA
ATOM     21  H   UNL     1       3.930  -0.841  -1.018  0.00  0.00    +0.292 HD
ENDBRANCH  14  20
ENDBRANCH   5   8
ENDBRANCH   1   5
BRANCH   3  22
ATOM     22  C   UNL     1       6.766   5.411   3.180  0.00  0.00    +0.109 C 
BRANCH  22  23
ATOM     23  C   UNL     1       8.059   6.227   3.222  0.00  0.00    +0.056 C 
BRANCH  23  24
ATOM     24  C   UNL     1       8.472   6.440   4.656  0.00  0.00    -0.021 A 
ATOM     25  C   UNL     1       8.192   7.510   5.416  0.00  0.00    +0.087 A 
ATOM     26  N   UNL     1       8.733   7.350   6.665  0.00  0.00    -0.360 N 
ATOM     27  H   UNL     1       8.662   7.991   7.389  0.00  0.00    +0.165 HD
ATOM     28  C   UNL     1       9.390   6.142   6.738  0.00  0.00    +0.050 A 
ATOM     29  C   UNL     1       9.251   5.517   5.485  0.00  0.00    +0.003 A 
ATOM     30  C   UNL     1       9.830   4.266   5.261  0.00  0.00    +0.014 A 
ATOM     31  C   UNL     1      10.520   3.647   6.264  0.00  0.00    +0.046 A 
ATOM     32  C   UNL     1      10.656   4.257   7.509  0.00  0.00    +0.122 A 
ATOM     33  C   UNL     1      10.096   5.498   7.748  0.00  0.00    +0.071 A 
BRANCH  32  34
ATOM     34  O   UNL     1      11.347   3.627   8.496  0.00  0.00    -0.495 OA
ATOM     35  C   UNL     1      11.901   2.347   8.185  0.00  0.00    +0.277 C 
ENDBRANCH  32  34
ENDBRANCH  23  24
ENDBRANCH  22  23
ENDBRANCH   3  22
TORSDOF 8
