REMARK  Name = ZINC43415311
REMARK  7 active torsions:
REMARK  status: ('A' for Active; 'I' for Inactive)
REMARK    1  A    between atoms: C_1  and  C_2
REMARK    2  A    between atoms: C_2  and  C_4
REMARK    3  A    between atoms: C_2  and  O_11
REMARK    4  A    between atoms: N_9  and  C_10
REMARK    5  A    between atoms: O_11  and  C_12
REMARK    6  A    between atoms: C_13  and  N_21
REMARK    7  A    between atoms: C_15  and  C_19
REMARK                            x       y       z     vdW  Elec       q    Type
REMARK                         _______ _______ _______ _____ _____    ______ ____
ROOT
ATOM      1  O   UNL     1      -1.332  -0.499   0.130  0.00  0.00    -0.477 OA
ENDROOT
BRANCH   1   2
ATOM      2  C   UNL     1      -1.828  -0.619   1.389  0.00  0.00    +0.155 A 
ATOM      3  C   UNL     1      -2.602   0.407   1.933  0.00  0.00    +0.069 A 
ATOM      4  C   UNL     1      -3.107   0.286   3.215  0.00  0.00    +0.045 A 
ATOM      5  C   UNL     1      -2.841  -0.866   3.961  0.00  0.00    +0.055 A 
ATOM      6  C   UNL     1      -2.066  -1.888   3.410  0.00  0.00    +0.037 A 
ATOM      7  C   UNL     1      -1.569  -1.764   2.129  0.00  0.00    +0.058 A 
ATOM      8  I   UNL     1      -0.414  -3.304   1.302  0.00  0.00    -0.040 I 
BRANCH   3   9
ATOM      9  N   UNL     1      -2.865   1.559   1.183  0.00  0.00    -0.355 N 
ATOM     10  H   UNL     1      -2.510   1.644   0.284  0.00  0.00    +0.142 HD
ATOM     11  H   UNL     1      -3.403   2.272   1.561  0.00  0.00    +0.142 HD
ENDBRANCH   3   9
BRANCH   5  12
ATOM     12  C   UNL     1      -3.362  -0.996   5.289  0.00  0.00    +0.099 C 
ATOM     13  N   UNL     1      -3.775  -1.099   6.342  0.00  0.00    -0.191 NA
ENDBRANCH   5  12
ENDBRANCH   1   2
BRANCH   1  15
ATOM     14  C   UNL     1      -0.001   1.504  -0.104  0.00  0.00    +0.062 C 
ATOM     15  C   UNL     1       0.009  -0.022   0.003  0.00  0.00    +0.256 C 
BRANCH  15  16
ATOM     16  C   UNL     1       0.636  -0.609  -1.236  0.00  0.00    +0.261 C 
ATOM     17  O   UNL     1      -0.029  -1.288  -1.988  0.00  0.00    -0.271 OA
ATOM     18  N   UNL     1       1.936  -0.378  -1.506  0.00  0.00    -0.237 N 
ATOM     19  C   UNL     1       2.497  -0.903  -2.614  0.00  0.00    +0.306 C 
ATOM     20  O   UNL     1       1.830  -1.583  -3.369  0.00  0.00    -0.252 OA
ATOM     21  N   UNL     1       3.797  -0.672  -2.885  0.00  0.00    -0.302 N 
ATOM     22  C   UNL     1       4.406  -1.242  -4.089  0.00  0.00    +0.129 C 
ATOM     23  H   UNL     1       2.468   0.165  -0.904  0.00  0.00    +0.159 HD
ATOM     24  H   UNL     1       4.329  -0.129  -2.283  0.00  0.00    +0.150 HD
ENDBRANCH  15  16
ENDBRANCH   1  15
TORSDOF 5
