REMARK  Name = ZINC43540868
REMARK  6 active torsions:
REMARK  status: ('A' for Active; 'I' for Inactive)
REMARK    1  A    between atoms: C_1  and  C_2
REMARK    2  A    between atoms: C_2  and  C_3
REMARK    3  A    between atoms: C_3  and  C_5
REMARK    4  A    between atoms: C_3  and  O_9
REMARK    5  A    between atoms: N_6  and  O_7
REMARK    6  A    between atoms: O_9  and  C_10
REMARK                            x       y       z     vdW  Elec       q    Type
REMARK                         _______ _______ _______ _____ _____    ______ ____
ROOT
ATOM      1  O   UNL     1       2.090  -0.101  -1.210  0.00  0.00    -0.479 OA
ENDROOT
BRANCH   1   2
ATOM      2  C   UNL     1       2.421   1.054  -1.846  0.00  0.00    +0.147 A 
ATOM      3  C   UNL     1       1.447   1.833  -2.404  0.00  0.00    +0.049 A 
ATOM      4  C   UNL     1       1.766   3.019  -3.059  0.00  0.00    +0.024 A 
ATOM      5  C   UNL     1       3.059   3.436  -3.163  0.00  0.00    +0.050 A 
ATOM      6  C   UNL     1       4.088   2.662  -2.602  0.00  0.00    +0.022 A 
ATOM      7  C   UNL     1       3.769   1.456  -1.928  0.00  0.00    +0.114 A 
ATOM      8  N   UNL     1       4.744   0.719  -1.388  0.00  0.00    -0.251 NA
ATOM      9  C   UNL     1       5.999   1.088  -1.462  0.00  0.00    +0.111 A 
ATOM     10  C   UNL     1       6.380   2.264  -2.105  0.00  0.00    +0.020 A 
ATOM     11  C   UNL     1       5.435   3.059  -2.689  0.00  0.00    +0.013 A 
ATOM     12 CL   UNL     1       3.433   4.918  -3.986  0.00  0.00    -0.083 Cl
ENDBRANCH   1   2
BRANCH   1  13
ATOM     13  C   UNL     1       0.721  -0.506  -1.270  0.00  0.00    +0.239 C 
BRANCH  13  14
ATOM     14  C   UNL     1       0.646  -2.001  -1.445  0.00  0.00    +0.173 C 
ATOM     15  N   UNL     1      -0.394  -2.536  -1.992  0.00  0.00    -0.073 NA
ATOM     16  N   UNL     1       1.687  -2.796  -1.020  0.00  0.00    -0.341 N 
ATOM     17  H   UNL     1       2.468  -2.395  -0.609  0.00  0.00    +0.144 HD
ATOM     18  H   UNL     1       1.639  -3.759  -1.133  0.00  0.00    +0.144 HD
BRANCH  15  19
ATOM     19  O   UNL     1      -0.465  -3.940  -2.156  0.00  0.00    -0.408 OA
ATOM     20  H   UNL     1      -1.280  -4.247  -2.575  0.00  0.00    +0.328 HD
ENDBRANCH  15  19
ENDBRANCH  13  14
BRANCH  13  22
ATOM     21  C   UNL     1      -0.018   1.418   0.143  0.00  0.00    +0.008 C 
ATOM     22  C   UNL     1       0.015  -0.108   0.028  0.00  0.00    +0.049 C 
ENDBRANCH  13  22
ENDBRANCH   1  13
TORSDOF 5
