REMARK  Name = ZINC39469497
REMARK  5 active torsions:
REMARK  status: ('A' for Active; 'I' for Inactive)
REMARK    1  A    between atoms: C_1  and  C_2
REMARK    2  A    between atoms: C_2  and  O_3
REMARK    3  A    between atoms: O_3  and  P_4
REMARK    4  A    between atoms: C_12  and  C_23
REMARK    5  A    between atoms: C_28  and  O_29
REMARK                            x       y       z     vdW  Elec       q    Type
REMARK                         _______ _______ _______ _____ _____    ______ ____
ROOT
ATOM      1  P   UNL     1       0.906  -2.042   1.476  0.00  0.00    +0.421 P 
ATOM      2  O   UNL     1      -0.340  -2.793   1.205  0.00  0.00    -0.239 OA
ATOM      3  N   UNL     1       2.149  -2.644   0.572  0.00  0.00    -0.156 NA
ATOM      4  N   UNL     1       2.755  -3.805   1.008  0.00  0.00    -0.228 NA
ATOM      5  C   UNL     1       3.867  -4.090   0.085  0.00  0.00    +0.111 C 
ATOM      6  C   UNL     1       4.574  -5.383   0.462  0.00  0.00    +0.035 C 
ATOM      7  C   UNL     1       3.629  -6.551   0.375  0.00  0.00    -0.012 C 
ATOM      8  C   UNL     1       3.902  -7.670   1.068  0.00  0.00    -0.005 C 
ATOM      9  C   UNL     1       5.133  -7.730   1.887  0.00  0.00    +0.017 C 
ATOM     10  C   UNL     1       5.715  -6.605   2.285  0.00  0.00    -0.008 C 
ATOM     11  C   UNL     1       5.102  -5.282   1.896  0.00  0.00    +0.022 C 
ATOM     12  C   UNL     1       3.929  -4.973   2.827  0.00  0.00    +0.031 C 
ATOM     13  C   UNL     1       3.220  -3.685   2.393  0.00  0.00    +0.100 C 
ATOM     14  C   UNL     1       2.051  -3.465   3.362  0.00  0.00    +0.191 C 
ATOM     15  O   UNL     1       1.364  -2.248   3.023  0.00  0.00    -0.294 OA
ATOM     16  I   UNL     1       5.952  -9.583   2.420  0.00  0.00    -0.044 I 
ATOM     17  H   UNL     1       2.443  -2.198  -0.237  0.00  0.00    +0.153 HD
ENDROOT
BRANCH   8  18
ATOM     18  C   UNL     1       2.982  -8.831   1.011  0.00  0.00    +0.024 A 
ATOM     19  C   UNL     1       2.952  -9.646  -0.119  0.00  0.00    +0.012 A 
ATOM     20  C   UNL     1       2.094 -10.726  -0.168  0.00  0.00    +0.001 A 
ATOM     21  C   UNL     1       1.262 -11.003   0.903  0.00  0.00    +0.004 A 
ATOM     22  C   UNL     1       1.283 -10.201   2.029  0.00  0.00    +0.046 A 
ATOM     23  C   UNL     1       2.144  -9.117   2.093  0.00  0.00    +0.125 A 
BRANCH  23  24
ATOM     24  O   UNL     1       2.170  -8.332   3.201  0.00  0.00    -0.506 OA
ATOM     25  H   UNL     1       1.550  -7.591   3.172  0.00  0.00    +0.292 HD
ENDBRANCH  23  24
ENDBRANCH   8  18
BRANCH   1  26
ATOM     26  O   UNL     1       0.693  -0.477   1.160  0.00  0.00    -0.296 OA
BRANCH  26  28
ATOM     27  C   UNL     1      -0.019   1.526   0.010  0.00  0.00    +0.035 C 
ATOM     28  C   UNL     1       0.002  -0.004   0.002  0.00  0.00    +0.168 C 
ENDBRANCH  26  28
ENDBRANCH   1  26
TORSDOF 4
