REMARK  Name = ZINC64120332
REMARK  4 active torsions:
REMARK  status: ('A' for Active; 'I' for Inactive)
REMARK    1  A    between atoms: C_1  and  C_2
REMARK    2  A    between atoms: C_5  and  C_8
REMARK    3  A    between atoms: C_8  and  N_14
REMARK    4  A    between atoms: C_15  and  C_17
REMARK                            x       y       z     vdW  Elec       q    Type
REMARK                         _______ _______ _______ _____ _____    ______ ____
ROOT
ATOM      1  N   UNL     1       2.120  -2.902  -2.430  0.00  0.00    -0.299 N 
ATOM      2  C   UNL     1       1.226  -2.504  -3.357  0.00  0.00    +0.250 C 
ATOM      3  O   UNL     1       1.052  -1.318  -3.564  0.00  0.00    -0.270 OA
ATOM      4  H   UNL     1       2.316  -3.845  -2.319  0.00  0.00    +0.150 HD
ENDROOT
BRANCH   2   5
ATOM      5  C   UNL     1       0.462  -3.504  -4.119  0.00  0.00    +0.102 A 
ATOM      6  C   UNL     1      -0.541  -3.117  -4.998  0.00  0.00    +0.031 A 
ATOM      7  C   UNL     1      -1.246  -4.112  -5.708  0.00  0.00    +0.037 A 
ATOM      8  C   UNL     1      -0.941  -5.452  -5.538  0.00  0.00    +0.030 A 
ATOM      9  N   UNL     1       0.029  -5.829  -4.681  0.00  0.00    -0.325 N 
ATOM     10  C   UNL     1       0.742  -4.935  -3.976  0.00  0.00    +0.261 A 
ATOM     11  O   UNL     1       1.615  -5.313  -3.216  0.00  0.00    -0.267 OA
ATOM     12  C   UNL     1      -1.669  -6.527  -6.304  0.00  0.00    +0.054 C 
ATOM     13  C   UNL     1      -3.041  -6.046  -6.767  0.00  0.00    +0.014 C 
ATOM     14  C   UNL     1      -2.878  -4.750  -7.573  0.00  0.00    +0.080 C 
ATOM     15  C   UNL     1      -2.318  -3.704  -6.633  0.00  0.00    +0.165 C 
ATOM     16  O   UNL     1      -2.739  -2.567  -6.640  0.00  0.00    -0.292 OA
ATOM     17  H   UNL     1       0.220  -6.774  -4.572  0.00  0.00    +0.169 HD
ENDBRANCH   2   5
BRANCH   1  18
ATOM     18  C   UNL     1       2.796  -1.909  -1.591  0.00  0.00    +0.093 C 
ATOM     19  C   UNL     1       3.448  -0.848  -2.480  0.00  0.00    +0.033 C 
ATOM     20  C   UNL     1       4.469  -1.515  -3.405  0.00  0.00    +0.002 C 
ATOM     21  C   UNL     1       5.544  -2.206  -2.564  0.00  0.00    +0.000 C 
ATOM     22  C   UNL     1       4.893  -3.267  -1.675  0.00  0.00    +0.002 C 
ATOM     23  C   UNL     1       3.872  -2.601  -0.750  0.00  0.00    +0.033 C 
BRANCH  18  27
ATOM     24  C   UNL     1      -0.041   1.461   0.131  0.00  0.00    +0.077 C 
ATOM     25  C   UNL     1      -0.010  -0.068   0.081  0.00  0.00    +0.288 C 
ATOM     26  N   UNL     1       0.707  -0.529  -1.119  0.00  0.00    -0.292 N 
ATOM     27  C   UNL     1       1.791  -1.253  -0.680  0.00  0.00    +0.161 C 
ATOM     28  N   UNL     1       1.839  -1.301   0.601  0.00  0.00    -0.070 NA
ATOM     29  O   UNL     1       0.755  -0.591   1.178  0.00  0.00    -0.370 OA
ATOM     30  H   UNL     1       0.463  -0.355  -2.041  0.00  0.00    +0.151 HD
ENDBRANCH  18  27
ENDBRANCH   1  18
TORSDOF 3
