REMARK  Name = ZINC09186757
REMARK  5 active torsions:
REMARK  status: ('A' for Active; 'I' for Inactive)
REMARK    1  A    between atoms: C_1  and  N_55
REMARK    2  A    between atoms: C_9  and  O_30
REMARK    3  A    between atoms: C_11  and  C_14
REMARK    4  A    between atoms: N_16  and  C_23
REMARK    5  A    between atoms: C_23  and  C_24
REMARK                            x       y       z     vdW  Elec       q    Type
REMARK                         _______ _______ _______ _____ _____    ______ ____
ROOT
ATOM      1  C   UNL     1       0.206   8.314  -8.214  0.00  0.00    -0.096 C 
ATOM      2  C   UNL     1       1.051   6.784  -6.538  0.00  0.00    -0.074 C 
ATOM      3  C   UNL     1       1.734   6.731  -5.169  0.00  0.00    +0.018 C 
ATOM      4  C   UNL     1       0.771   7.301  -4.133  0.00  0.00    -0.027 A 
ATOM      5  C   UNL     1      -0.280   8.056  -4.531  0.00  0.00    -0.021 A 
ATOM      6  S   UNL     1      -1.116   8.498  -3.033  0.00  0.00    -0.080 S 
ATOM      7  C   UNL     1      -0.094   7.704  -1.914  0.00  0.00    +0.080 A 
ATOM      8  C   UNL     1       0.890   7.093  -2.702  0.00  0.00    +0.067 A 
ATOM      9  C   UNL     1       1.934   6.305  -1.998  0.00  0.00    +0.220 C 
ATOM     10  N   UNL     1       1.761   6.065  -0.727  0.00  0.00    -0.223 NA
ATOM     11  C   UNL     1       0.571   6.426   0.033  0.00  0.00    +0.226 C 
ATOM     12  N   UNL     1      -0.107   7.602  -0.543  0.00  0.00    -0.313 N 
ATOM     13  C   UNL     1      -0.630   8.422  -5.939  0.00  0.00    -0.036 C 
ATOM     14  H   UNL     1      -0.539   8.268   0.014  0.00  0.00    +0.149 HD
ATOM     15  N   UNL     1       0.557   8.154  -6.786  0.00  0.00    +0.381 N 
ATOM     16  H   UNL     1       1.297   8.825  -6.547  0.00  0.00    -0.082 HD
ENDROOT
BRANCH  11  17
ATOM     17  C   UNL     1      -0.384   5.261   0.035  0.00  0.00    +0.020 A 
ATOM     18  C   UNL     1      -1.724   5.326   0.048  0.00  0.00    +0.094 A 
ATOM     19  N   UNL     1      -2.254   4.064   0.045  0.00  0.00    -0.342 N 
ATOM     20  C   UNL     1      -1.240   3.132   0.031  0.00  0.00    +0.050 A 
ATOM     21  C   UNL     1      -0.025   3.840   0.023  0.00  0.00    +0.007 A 
ATOM     22  C   UNL     1       1.186   3.146   0.008  0.00  0.00    +0.010 A 
ATOM     23  C   UNL     1       1.184   1.779   0.000  0.00  0.00    +0.001 A 
ATOM     24  C   UNL     1      -0.013   1.076   0.008  0.00  0.00    +0.002 A 
ATOM     25  C   UNL     1      -1.219   1.742   0.017  0.00  0.00    +0.026 A 
BRANCH  19  26
ATOM     26  C   UNL     1      -3.685   3.752   0.057  0.00  0.00    +0.157 C 
BRANCH  26  27
ATOM     27  C   UNL     1      -4.136   3.515   1.475  0.00  0.00    -0.028 A 
ATOM     28  C   UNL     1      -4.095   2.241   2.010  0.00  0.00    +0.005 A 
ATOM     29  C   UNL     1      -4.504   2.025   3.313  0.00  0.00    +0.000 A 
ATOM     30  C   UNL     1      -4.964   3.081   4.077  0.00  0.00    +0.000 A 
ATOM     31  C   UNL     1      -5.010   4.354   3.541  0.00  0.00    +0.000 A 
ATOM     32  C   UNL     1      -4.596   4.571   2.240  0.00  0.00    +0.005 A 
ENDBRANCH  26  27
ENDBRANCH  19  26
ENDBRANCH  11  17
BRANCH   9  33
ATOM     33  O   UNL     1       3.028   5.851  -2.652  0.00  0.00    -0.492 OA
ATOM     34  H   UNL     1       3.640   5.351  -2.095  0.00  0.00    +0.294 HD
ENDBRANCH   9  33
TORSDOF 4
