REMARK  Name = ZINC43592243
REMARK  4 active torsions:
REMARK  status: ('A' for Active; 'I' for Inactive)
REMARK    1  A    between atoms: C_3  and  S_9
REMARK    2  A    between atoms: C_6  and  N_7
REMARK    3  A    between atoms: S_9  and  N_12
REMARK    4  A    between atoms: N_12  and  C_13
REMARK                            x       y       z     vdW  Elec       q    Type
REMARK                         _______ _______ _______ _____ _____    ______ ____
ROOT
ATOM      1  S   UNL     1       3.889   2.323  -0.023  0.00  0.00    +0.061 S 
ATOM      2  O   UNL     1       4.688   1.769  -1.059  0.00  0.00    -0.153 OA
ATOM      3  O   UNL     1       3.538   3.700   0.015  0.00  0.00    -0.153 OA
ENDROOT
BRANCH   1   6
ATOM      4  C   UNL     1      -0.017   1.385   0.010  0.00  0.00    +0.025 A 
ATOM      5  C   UNL     1       1.170   2.091   0.002  0.00  0.00    +0.033 A 
ATOM      6  C   UNL     1       2.377   1.418  -0.013  0.00  0.00    +0.140 A 
ATOM      7  C   UNL     1       2.401   0.033  -0.021  0.00  0.00    +0.151 A 
ATOM      8  C   UNL     1       1.216  -0.679  -0.014  0.00  0.00    +0.063 A 
ATOM      9  C   UNL     1       0.002  -0.004   0.002  0.00  0.00    +0.027 A 
ATOM     10  F   UNL     1       3.582  -0.622  -0.036  0.00  0.00    -0.203 F 
BRANCH   9  11
ATOM     11  N   UNL     1      -1.197  -0.720   0.010  0.00  0.00    -0.358 N 
ATOM     12  H   UNL     1      -2.044  -0.247   0.021  0.00  0.00    +0.142 HD
ATOM     13  H   UNL     1      -1.183  -1.690   0.005  0.00  0.00    +0.142 HD
ENDBRANCH   9  11
ENDBRANCH   1   6
BRANCH   1  14
ATOM     14  N   UNL     1       4.666   1.994   1.402  0.00  0.00    -0.188 NA
ATOM     15  H   UNL     1       4.810   2.700   2.051  0.00  0.00    +0.148 HD
BRANCH  14  16
ATOM     16  C   UNL     1       5.137   0.635   1.682  0.00  0.00    +0.063 C 
ATOM     17  C   UNL     1       4.090  -0.110   2.513  0.00  0.00    -0.058 C 
ATOM     18  N   UNL     1       4.666  -0.522   3.795  0.00  0.00    +0.381 N 
ATOM     19  C   UNL     1       5.090   0.647   4.569  0.00  0.00    -0.078 C 
ATOM     20  C   UNL     1       6.171   1.417   3.807  0.00  0.00    -0.014 C 
ATOM     21  C   UNL     1       6.448   0.699   2.476  0.00  0.00    +0.002 C 
ATOM     22  C   UNL     1       6.896  -0.736   2.786  0.00  0.00    -0.014 C 
ATOM     23  C   UNL     1       5.791  -1.437   3.584  0.00  0.00    -0.078 C 
ATOM     24  H   UNL     1       3.956  -1.006   4.323  0.00  0.00    -0.082 HD
ENDBRANCH  14  16
ENDBRANCH   1  14
TORSDOF 4
