REMARK  Name = ZINC25154233
REMARK  9 active torsions:
REMARK  status: ('A' for Active; 'I' for Inactive)
REMARK    1  A    between atoms: C_1  and  C_2
REMARK    2  A    between atoms: C_2  and  C_4
REMARK    3  A    between atoms: C_2  and  N_25
REMARK    4  A    between atoms: N_9  and  C_12
REMARK    5  A    between atoms: C_12  and  C_14
REMARK    6  A    between atoms: C_12  and  C_21
REMARK    7  A    between atoms: C_21  and  O_23
REMARK    8  A    between atoms: O_23  and  C_24
REMARK    9  A    between atoms: C_26  and  C_28
REMARK                            x       y       z     vdW  Elec       q    Type
REMARK                         _______ _______ _______ _____ _____    ______ ____
ROOT
ATOM      1  C   UNL     1      -5.801  -4.534  -1.535  0.00  0.00    +0.236 C 
ATOM      2  O   UNL     1      -6.072  -5.605  -1.037  0.00  0.00    -0.274 OA
ATOM      3  N   UNL     1      -4.667  -3.894  -1.185  0.00  0.00    -0.298 N 
ATOM      4  C   UNL     1      -4.264  -2.649  -1.856  0.00  0.00    +0.123 C 
ATOM      5  C   UNL     1      -2.812  -2.795  -2.322  0.00  0.00    +0.104 C 
ATOM      6  N   UNL     1      -1.972  -3.186  -1.181  0.00  0.00    -0.283 NA
ATOM      7  C   UNL     1      -2.366  -4.500  -0.655  0.00  0.00    +0.104 C 
ATOM      8  C   UNL     1      -3.800  -4.424  -0.121  0.00  0.00    +0.123 C 
ENDROOT
BRANCH   1  10
ATOM      9  C   UNL     1      -7.560  -2.819  -1.874  0.00  0.00    +0.038 C 
ATOM     10  C   UNL     1      -6.732  -3.916  -2.547  0.00  0.00    +0.156 C 
BRANCH  10  11
ATOM     11  N   UNL     1      -7.627  -4.946  -3.079  0.00  0.00    -0.298 N 
ATOM     12  C   UNL     1      -8.179  -4.794  -4.299  0.00  0.00    +0.280 C 
ATOM     13  O   UNL     1      -7.934  -3.801  -4.959  0.00  0.00    -0.267 OA
ATOM     14  H   UNL     1      -7.849  -5.844  -2.483  0.00  0.00    +0.150 HD
BRANCH  12  15
ATOM     15  C   UNL     1      -9.075  -5.826  -4.833  0.00  0.00    +0.189 A 
ATOM     16  C   UNL     1      -9.698  -5.798  -6.047  0.00  0.00    +0.054 A 
ATOM     17  C   UNL     1     -10.451  -6.978  -6.142  0.00  0.00    +0.042 A 
ATOM     18  C   UNL     1     -10.257  -7.667  -4.996  0.00  0.00    +0.196 A 
ATOM     19  O   UNL     1      -9.424  -6.971  -4.211  0.00  0.00    -0.458 OA
ENDBRANCH  12  15
ENDBRANCH  10  11
ENDBRANCH   1  10
BRANCH   6  20
ATOM     20  C   UNL     1      -0.549  -3.169  -1.545  0.00  0.00    +0.197 C 
BRANCH  20  21
ATOM     21  C   UNL     1       0.279  -3.575  -0.353  0.00  0.00    -0.019 A 
ATOM     22  C   UNL     1      -0.055  -3.117   0.908  0.00  0.00    +0.007 A 
ATOM     23  C   UNL     1       0.700  -3.493   2.002  0.00  0.00    +0.020 A 
ATOM     24  C   UNL     1       1.798  -4.318   1.834  0.00  0.00    +0.041 A 
ATOM     25  C   UNL     1       2.136  -4.771   0.571  0.00  0.00    +0.020 A 
ATOM     26  C   UNL     1       1.376  -4.399  -0.522  0.00  0.00    +0.007 A 
ATOM     27 CL   UNL     1       2.752  -4.785   3.208  0.00  0.00    -0.084 Cl
ENDBRANCH  20  21
BRANCH  20  28
ATOM     28  C   UNL     1      -0.158  -1.780  -1.980  0.00  0.00    +0.329 C 
ATOM     29  O   UNL     1      -0.980  -0.895  -1.986  0.00  0.00    -0.249 OA
BRANCH  28  30
ATOM     30  O   UNL     1       1.104  -1.526  -2.360  0.00  0.00    -0.467 OA
ATOM     31  C   UNL     1       1.409  -0.166  -2.766  0.00  0.00    +0.280 C 
ENDBRANCH  28  30
ENDBRANCH  20  28
ENDBRANCH   6  20
TORSDOF 7
