REMARK  Name = ZINC06498947
REMARK  8 active torsions:
REMARK  status: ('A' for Active; 'I' for Inactive)
REMARK    1  A    between atoms: C_1  and  O_2
REMARK    2  A    between atoms: O_2  and  C_3
REMARK    3  A    between atoms: C_3  and  C_5
REMARK    4  A    between atoms: C_5  and  C_6
REMARK    5  A    between atoms: C_13  and  N_35
REMARK    6  A    between atoms: C_14  and  C_33
REMARK    7  A    between atoms: N_22  and  C_25
REMARK    8  A    between atoms: C_25  and  C_26
REMARK                            x       y       z     vdW  Elec       q    Type
REMARK                         _______ _______ _______ _____ _____    ______ ____
ROOT
ATOM      1  C   UNL     1      -2.683  -2.582   0.014  0.00  0.00    +0.082 A 
ATOM      2  C   UNL     1      -3.452  -2.825   1.144  0.00  0.00    +0.062 A 
ATOM      3  C   UNL     1      -4.699  -3.211   0.732  0.00  0.00    +0.223 A 
ATOM      4  N   UNL     1      -4.702  -3.207  -0.610  0.00  0.00    -0.246 N 
ATOM      5  H   UNL     1      -5.452  -3.437  -1.180  0.00  0.00    +0.192 HD
ATOM      6  N   UNL     1      -3.429  -2.805  -1.042  0.00  0.00    -0.175 NA
ATOM      7  O   UNL     1      -5.691  -3.523   1.603  0.00  0.00    -0.423 OA
ATOM      8  C   UNL     1      -5.361  -3.707   2.897  0.00  0.00    +0.201 C 
ATOM      9  C   UNL     1      -4.165  -3.354   3.425  0.00  0.00    +0.110 C 
ATOM     10  C   UNL     1      -3.085  -2.714   2.597  0.00  0.00    +0.145 C 
ATOM     11  C   UNL     1      -2.865  -1.290   2.995  0.00  0.00    -0.001 A 
ATOM     12  C   UNL     1      -3.706  -0.198   2.989  0.00  0.00    +0.007 A 
ATOM     13  C   UNL     1      -3.176   1.009   3.432  0.00  0.00    +0.000 A 
ATOM     14  C   UNL     1      -1.867   1.105   3.858  0.00  0.00    +0.002 A 
ATOM     15  C   UNL     1      -1.016   0.011   3.869  0.00  0.00    +0.024 A 
ATOM     16  C   UNL     1      -1.535  -1.206   3.426  0.00  0.00    +0.041 A 
ATOM     17  N   UNL     1      -0.920  -2.442   3.333  0.00  0.00    -0.265 N 
ATOM     18  C   UNL     1      -1.756  -3.389   2.856  0.00  0.00    +0.241 C 
ATOM     19  O   UNL     1      -1.492  -4.558   2.671  0.00  0.00    -0.274 OA
ENDROOT
BRANCH   8  20
ATOM     20  N   UNL     1      -6.290  -4.283   3.727  0.00  0.00    -0.328 N 
ATOM     21  H   UNL     1      -7.156  -4.545   3.377  0.00  0.00    +0.145 HD
ATOM     22  H   UNL     1      -6.082  -4.427   4.663  0.00  0.00    +0.145 HD
ENDBRANCH   8  20
BRANCH   9  23
ATOM     23  C   UNL     1      -3.921  -3.597   4.815  0.00  0.00    +0.102 C 
ATOM     24  N   UNL     1      -3.728  -3.790   5.917  0.00  0.00    -0.191 NA
ENDBRANCH   9  23
BRANCH   1  25
ATOM     25  C   UNL     1      -1.244  -2.135   0.003  0.00  0.00    +0.178 C 
BRANCH  25  26
ATOM     26  C   UNL     1      -1.185  -0.630   0.010  0.00  0.00    +0.313 C 
ATOM     27  O   UNL     1      -2.208   0.015   0.023  0.00  0.00    -0.250 OA
BRANCH  26  29
ATOM     28  C   UNL     1      -0.017   1.425   0.010  0.00  0.00    +0.280 C 
ATOM     29  O   UNL     1       0.002  -0.004   0.002  0.00  0.00    -0.468 OA
ENDBRANCH  26  29
ENDBRANCH  25  26
ENDBRANCH   1  25
BRANCH  17  30
ATOM     30  C   UNL     1       0.474  -2.694   3.707  0.00  0.00    +0.148 C 
BRANCH  30  31
ATOM     31  C   UNL     1       0.541  -3.084   5.160  0.00  0.00    -0.030 A 
ATOM     32  C   UNL     1       0.693  -2.112   6.131  0.00  0.00    +0.006 A 
ATOM     33  C   UNL     1       0.755  -2.470   7.465  0.00  0.00    +0.020 A 
ATOM     34  C   UNL     1       0.665  -3.801   7.828  0.00  0.00    +0.041 A 
ATOM     35  C   UNL     1       0.514  -4.774   6.856  0.00  0.00    +0.020 A 
ATOM     36  C   UNL     1       0.446  -4.415   5.524  0.00  0.00    +0.006 A 
ATOM     37 CL   UNL     1       0.744  -4.252   9.503  0.00  0.00    -0.084 Cl
ENDBRANCH  30  31
ENDBRANCH  17  30
TORSDOF 7
