REMARK  Name = ZINC62827582
REMARK  5 active torsions:
REMARK  status: ('A' for Active; 'I' for Inactive)
REMARK    1  A    between atoms: C_1  and  N_2
REMARK    2  A    between atoms: C_5  and  N_8
REMARK    3  A    between atoms: N_8  and  C_9
REMARK    4  A    between atoms: N_12  and  C_13
REMARK    5  A    between atoms: C_14  and  C_18
REMARK                            x       y       z     vdW  Elec       q    Type
REMARK                         _______ _______ _______ _____ _____    ______ ____
ROOT
ATOM      1  N   UNL     1       1.228  -4.036  -0.035  0.00  0.00    -0.286 N 
ATOM      2  C   UNL     1      -0.091  -4.673  -0.017  0.00  0.00    +0.134 C 
ATOM      3  C   UNL     1       2.342  -4.795  -0.058  0.00  0.00    +0.307 C 
ATOM      4  O   UNL     1       3.437  -4.266  -0.072  0.00  0.00    -0.252 OA
ATOM      5  N   UNL     1       2.242  -6.139  -0.063  0.00  0.00    -0.263 N 
ATOM      6  H   UNL     1       1.369  -6.560  -0.051  0.00  0.00    +0.157 HD
ENDROOT
BRANCH   1  11
ATOM      7  C   UNL     1      -0.018   1.465   0.010  0.00  0.00    -0.096 C 
ATOM      8  N   UNL     1       0.002  -0.004   0.002  0.00  0.00    +0.378 N 
ATOM      9  C   UNL     1       0.681  -0.476  -1.210  0.00  0.00    -0.077 C 
ATOM     10  C   UNL     1       0.634  -2.005  -1.264  0.00  0.00    +0.004 C 
ATOM     11  C   UNL     1       1.336  -2.575  -0.029  0.00  0.00    +0.074 C 
ATOM     12  C   UNL     1       0.666  -2.018   1.230  0.00  0.00    +0.004 C 
ATOM     13  C   UNL     1       0.712  -0.489   1.192  0.00  0.00    -0.077 C 
ATOM     14  H   UNL     1      -0.945  -0.352   0.012  0.00  0.00    -0.082 HD
ENDBRANCH   1  11
BRANCH   5  15
ATOM     15  C   UNL     1       3.387  -6.918  -0.086  0.00  0.00    +0.087 A 
ATOM     16  C   UNL     1       3.477  -8.305  -0.101  0.00  0.00    +0.092 A 
ATOM     17  C   UNL     1       4.811  -8.864  -0.124  0.00  0.00    +0.024 A 
ATOM     18  C   UNL     1       5.819  -7.975  -0.129  0.00  0.00    +0.048 A 
ATOM     19  S   UNL     1       4.984  -6.404  -0.110  0.00  0.00    -0.081 S 
BRANCH  16  20
ATOM     20  C   UNL     1       2.323  -9.128  -0.093  0.00  0.00    +0.389 C 
ATOM     21  O   UNL     1       2.440 -10.348  -0.107  0.00  0.00    -0.241 OA
ATOM     22  O   UNL     1       1.208  -8.620  -0.073  0.00  0.00    -0.241 OA
ENDBRANCH  16  20
ENDBRANCH   5  15
TORSDOF 3
