REMARK  Name = ZINC65145892
REMARK  10 active torsions:
REMARK  status: ('A' for Active; 'I' for Inactive)
REMARK    1  A    between atoms: C_1  and  C_2
REMARK    2  A    between atoms: C_2  and  C_3
REMARK    3  A    between atoms: C_2  and  C_4
REMARK    4  A    between atoms: C_8  and  O_10
REMARK    5  A    between atoms: O_10  and  C_11
REMARK    6  A    between atoms: C_11  and  C_12
REMARK    7  A    between atoms: C_11  and  C_13
REMARK    8  A    between atoms: N_15  and  N_16
REMARK    9  A    between atoms: N_19  and  C_20
REMARK   10  A    between atoms: C_20  and  C_21
REMARK                            x       y       z     vdW  Elec       q    Type
REMARK                         _______ _______ _______ _____ _____    ______ ____
ROOT
ATOM      1  C   UNL     1      -4.951  -4.517  -2.507  0.00  0.00    +0.270 C 
ATOM      2  O   UNL     1      -3.949  -4.983  -3.006  0.00  0.00    -0.270 OA
ATOM      3  N   UNL     1      -6.095  -5.230  -2.501  0.00  0.00    -0.230 N 
ATOM      4  H   UNL     1      -6.897  -4.858  -2.102  0.00  0.00    +0.173 HD
ENDROOT
BRANCH   3   5
ATOM      5  N   UNL     1      -6.125  -6.510  -3.070  0.00  0.00    -0.218 N 
ATOM      6  C   UNL     1      -7.269  -7.224  -3.063  0.00  0.00    +0.316 C 
ATOM      7  O   UNL     1      -7.295  -8.334  -3.557  0.00  0.00    -0.251 OA
ATOM      8  N   UNL     1      -8.383  -6.706  -2.509  0.00  0.00    -0.296 N 
ATOM      9  H   UNL     1      -5.323  -6.883  -3.469  0.00  0.00    +0.174 HD
ATOM     10  H   UNL     1      -8.362  -5.820  -2.115  0.00  0.00    +0.150 HD
BRANCH   8  11
ATOM     11  C   UNL     1      -9.626  -7.481  -2.502  0.00  0.00    +0.137 C 
BRANCH  11  12
ATOM     12  C   UNL     1     -10.729  -6.671  -1.819  0.00  0.00    +0.135 C 
ATOM     13  C   UNL     1     -12.011  -7.523  -1.704  0.00  0.00    +0.035 C 
ATOM     14  C   UNL     1     -13.125  -6.485  -2.006  0.00  0.00    +0.031 C 
ATOM     15  C   UNL     1     -12.413  -5.582  -3.043  0.00  0.00    +0.160 C 
ATOM     16  O   UNL     1     -11.045  -5.519  -2.609  0.00  0.00    -0.375 OA
ENDBRANCH  11  12
ENDBRANCH   8  11
ENDBRANCH   3   5
BRANCH   1  17
ATOM     17  C   UNL     1      -4.919  -3.140  -1.895  0.00  0.00    +0.257 C 
ATOM     18  C   UNL     1      -5.922  -2.237  -2.616  0.00  0.00    +0.062 C 
BRANCH  17  19
ATOM     19  O   UNL     1      -3.605  -2.592  -2.025  0.00  0.00    -0.480 OA
BRANCH  19  24
ATOM     20  C   UNL     1      -3.796  -0.193   0.703  0.00  0.00    -0.041 A 
ATOM     21  C   UNL     1      -2.504   0.299   0.703  0.00  0.00    +0.004 A 
ATOM     22  C   UNL     1      -1.580  -0.176  -0.209  0.00  0.00    +0.004 A 
ATOM     23  C   UNL     1      -1.947  -1.145  -1.124  0.00  0.00    +0.046 A 
ATOM     24  C   UNL     1      -3.243  -1.640  -1.127  0.00  0.00    +0.122 A 
ATOM     25  C   UNL     1      -4.166  -1.165  -0.206  0.00  0.00    +0.049 A 
BRANCH  20  27
ATOM     26  C   UNL     1      -4.298   0.060   3.118  0.00  0.00    +0.012 C 
ATOM     27  C   UNL     1      -4.801   0.328   1.698  0.00  0.00    +0.013 C 
ATOM     28  C   UNL     1      -4.983   1.834   1.498  0.00  0.00    +0.012 C 
ENDBRANCH  20  27
ENDBRANCH  19  24
ENDBRANCH  17  19
ENDBRANCH   1  17
TORSDOF 7
