REMARK  Name = ZINC08624405
REMARK  9 active torsions:
REMARK  status: ('A' for Active; 'I' for Inactive)
REMARK    1  A    between atoms: C_1  and  C_2
REMARK    2  A    between atoms: C_2  and  C_3
REMARK    3  A    between atoms: C_2  and  N_4
REMARK    4  A    between atoms: N_7  and  C_8
REMARK    5  A    between atoms: C_8  and  C_9
REMARK    6  A    between atoms: C_11  and  O_28
REMARK    7  A    between atoms: C_13  and  O_27
REMARK    8  A    between atoms: C_15  and  C_18
REMARK    9  A    between atoms: C_18  and  C_19
REMARK                            x       y       z     vdW  Elec       q    Type
REMARK                         _______ _______ _______ _____ _____    ______ ____
ROOT
ATOM      1  C   UNL     1       2.009   5.931   5.003  0.00  0.00    +0.167 C 
ATOM      2  C   UNL     1       2.056   4.865   6.120  0.00  0.00    +0.176 C 
ATOM      3  C   UNL     1       0.970   3.845   5.711  0.00  0.00    +0.175 C 
ATOM      4  C   UNL     1       0.395   4.415   4.395  0.00  0.00    +0.159 C 
ATOM      5  O   UNL     1       1.449   5.245   3.861  0.00  0.00    -0.366 OA
ENDROOT
BRANCH   3   6
ATOM      6  O   UNL     1      -0.048   3.769   6.711  0.00  0.00    -0.387 OA
ATOM      7  H   UNL     1       0.258   3.418   7.558  0.00  0.00    +0.210 HD
ENDBRANCH   3   6
BRANCH   2   8
ATOM      8  O   UNL     1       1.741   5.451   7.385  0.00  0.00    -0.387 OA
ATOM      9  H   UNL     1       1.756   4.826   8.122  0.00  0.00    +0.210 HD
ENDBRANCH   2   8
BRANCH   1  10
ATOM     10  C   UNL     1       3.419   6.432   4.685  0.00  0.00    +0.140 C 
BRANCH  10  14
ATOM     11  N   UNL     1       4.410   9.020   2.268  0.00  0.00    -0.297 N 
ATOM     12  C   UNL     1       4.475   8.063   3.215  0.00  0.00    +0.300 C 
ATOM     13  O   UNL     1       5.553   7.733   3.671  0.00  0.00    -0.253 OA
ATOM     14  N   UNL     1       3.347   7.472   3.656  0.00  0.00    -0.297 N 
ATOM     15  H   UNL     1       3.550   9.283   1.904  0.00  0.00    +0.150 HD
ATOM     16  H   UNL     1       2.488   7.736   3.291  0.00  0.00    +0.150 HD
BRANCH  11  18
ATOM     17  C   UNL     1       6.256   8.812   0.678  0.00  0.00    +0.027 C 
ATOM     18  C   UNL     1       5.636   9.662   1.789  0.00  0.00    +0.068 C 
ATOM     19  C   UNL     1       5.304  11.052   1.242  0.00  0.00    +0.027 C 
ENDBRANCH  11  18
ENDBRANCH  10  14
ENDBRANCH   1  10
BRANCH   4  20
ATOM     20  C   UNL     1       0.066   3.281   3.422  0.00  0.00    +0.130 C 
BRANCH  20  21
ATOM     21  C   UNL     1      -0.535   3.857   2.165  0.00  0.00    +0.218 C 
ATOM     22  O   UNL     1      -0.684   5.055   2.058  0.00  0.00    -0.276 OA
ATOM     23  N   UNL     1      -0.905   3.039   1.160  0.00  0.00    -0.297 N 
ATOM     24  C   UNL     1      -0.732   1.581   1.268  0.00  0.00    +0.136 C 
ATOM     25  C   UNL     1      -0.013   1.086   0.008  0.00  0.00    +0.179 C 
ATOM     26  O   UNL     1      -0.706   1.560  -1.149  0.00  0.00    -0.377 OA
ATOM     27  C   UNL     1      -0.736   2.985  -1.270  0.00  0.00    +0.179 C 
ATOM     28  C   UNL     1      -1.493   3.577  -0.076  0.00  0.00    +0.136 C 
ENDBRANCH  20  21
ENDBRANCH   4  20
TORSDOF 7
