REMARK  Name = ZINC01795602
REMARK  4 active torsions:
REMARK  status: ('A' for Active; 'I' for Inactive)
REMARK    1  A    between atoms: C_8  and  N_9
REMARK    2  A    between atoms: N_9  and  N_10
REMARK    3  A    between atoms: C_11  and  C_13
REMARK    4  A    between atoms: C_15  and  C_19
REMARK                            x       y       z     vdW  Elec       q    Type
REMARK                         _______ _______ _______ _____ _____    ______ ____
ROOT
ATOM      1  N   UNL     1       0.477  -5.566  -0.033  0.00  0.00    -0.232 N 
ATOM      2  C   UNL     1       1.007  -6.805  -0.044  0.00  0.00    +0.280 C 
ATOM      3  O   UNL     1       2.214  -6.949  -0.056  0.00  0.00    -0.267 OA
ATOM      4  H   UNL     1      -0.486  -5.450  -0.023  0.00  0.00    +0.173 HD
ENDROOT
BRANCH   2   5
ATOM      5  C   UNL     1       0.121  -7.987  -0.043  0.00  0.00    +0.149 A 
ATOM      6  C   UNL     1       0.530  -9.338  -0.048  0.00  0.00    +0.063 A 
ATOM      7  C   UNL     1      -0.628 -10.069  -0.043  0.00  0.00    +0.073 A 
ATOM      8  N   UNL     1      -1.659  -9.174  -0.035  0.00  0.00    -0.276 N 
ATOM      9  H   UNL     1      -2.600  -9.408  -0.030  0.00  0.00    +0.189 HD
ATOM     10  N   UNL     1      -1.198  -7.975  -0.030  0.00  0.00    -0.169 NA
BRANCH   7  11
ATOM     11  C   UNL     1      -0.741 -11.539  -0.046  0.00  0.00    +0.038 A 
ATOM     12  C   UNL     1      -1.868 -12.319  -0.047  0.00  0.00    +0.019 A 
ATOM     13  C   UNL     1      -1.724 -13.689  -0.050  0.00  0.00    +0.023 A 
ATOM     14  C   UNL     1      -0.474 -14.223  -0.052  0.00  0.00    +0.056 A 
ATOM     15  S   UNL     1       0.556 -12.766  -0.057  0.00  0.00    -0.080 S 
ATOM     16 BR   UNL     1       0.040 -16.043  -0.056  0.00  0.00    -0.043 Br
ENDBRANCH   7  11
ENDBRANCH   2   5
BRANCH   1  17
ATOM     17  N   UNL     1       1.317  -4.444  -0.035  0.00  0.00    -0.271 N 
ATOM     18  H   UNL     1       2.280  -4.560  -0.044  0.00  0.00    +0.169 HD
BRANCH  17  26
ATOM     19  C   UNL     1      -0.017   1.375   0.010  0.00  0.00    +0.001 A 
ATOM     20  C   UNL     1       1.172   2.092   0.002  0.00  0.00    +0.002 A 
ATOM     21  C   UNL     1       2.386   1.446  -0.013  0.00  0.00    +0.028 A 
ATOM     22  C   UNL     1       2.431   0.046  -0.021  0.00  0.00    +0.072 A 
ATOM     23  C   UNL     1       1.218  -0.675  -0.013  0.00  0.00    +0.010 A 
ATOM     24  C   UNL     1       0.002  -0.004   0.002  0.00  0.00    +0.011 A 
ATOM     25  C   UNL     1       1.615  -2.097  -0.025  0.00  0.00    +0.017 C 
ATOM     26  C   UNL     1       0.786  -3.204  -0.023  0.00  0.00    +0.097 C 
ATOM     27  C   UNL     1       3.033  -2.079  -0.038  0.00  0.00    +0.121 C 
ATOM     28  N   UNL     1       3.452  -0.843  -0.035  0.00  0.00    -0.254 NA
ENDBRANCH  17  26
ENDBRANCH   1  17
TORSDOF 4
