REMARK  Name = ZINC07980820
REMARK  5 active torsions:
REMARK  status: ('A' for Active; 'I' for Inactive)
REMARK    1  A    between atoms: C_1  and  C_2
REMARK    2  A    between atoms: C_5  and  O_9
REMARK    3  A    between atoms: O_9  and  C_10
REMARK    4  A    between atoms: C_13  and  C_19
REMARK    5  A    between atoms: C_15  and  N_16
REMARK                            x       y       z     vdW  Elec       q    Type
REMARK                         _______ _______ _______ _____ _____    ______ ____
ROOT
ATOM      1  C   UNL     1      -3.560   2.573   0.137  0.00  0.00    +0.159 A 
ATOM      2  C   UNL     1      -3.530   3.963   0.143  0.00  0.00    +0.049 A 
ATOM      3  C   UNL     1      -4.702   4.677   0.257  0.00  0.00    +0.017 A 
ATOM      4  C   UNL     1      -5.921   4.004   0.368  0.00  0.00    +0.039 A 
ATOM      5  C   UNL     1      -5.946   2.607   0.362  0.00  0.00    +0.049 A 
ATOM      6  C   UNL     1      -4.771   1.899   0.241  0.00  0.00    +0.169 A 
ENDROOT
BRANCH   4   7
ATOM      7  C   UNL     1      -7.179   4.766   0.492  0.00  0.00    +0.242 C 
ATOM      8  O   UNL     1      -8.239   4.178   0.588  0.00  0.00    -0.270 OA
ATOM      9  N   UNL     1      -7.152   6.113   0.498  0.00  0.00    -0.325 N 
ATOM     10  H   UNL     1      -6.307   6.582   0.421  0.00  0.00    +0.145 HD
ATOM     11  H   UNL     1      -7.979   6.614   0.579  0.00  0.00    +0.145 HD
ENDBRANCH   4   7
BRANCH   6  12
ATOM     12  N   UNL     1      -4.797   0.419   0.229  0.00  0.00    +0.060 N 
ATOM     13  O   UNL     1      -5.858  -0.172   0.321  0.00  0.00    -0.126 OA
ATOM     14  O   UNL     1      -3.758  -0.208   0.127  0.00  0.00    -0.126 OA
ENDBRANCH   6  12
BRANCH   1  15
ATOM     15  O   UNL     1      -2.403   1.872   0.023  0.00  0.00    -0.453 OA
BRANCH  15  20
ATOM     16  C   UNL     1       2.452   4.727   0.088  0.00  0.00    +0.044 C 
ATOM     17  C   UNL     1       1.151   3.966   0.071  0.00  0.00    -0.049 A 
ATOM     18  C   UNL     1       0.596   3.575  -1.134  0.00  0.00    +0.007 A 
ATOM     19  C   UNL     1      -0.596   2.878  -1.153  0.00  0.00    +0.047 A 
ATOM     20  C   UNL     1      -1.234   2.564   0.039  0.00  0.00    +0.142 A 
ATOM     21  C   UNL     1      -0.678   2.962   1.247  0.00  0.00    +0.060 A 
ATOM     22  C   UNL     1       0.515   3.661   1.260  0.00  0.00    +0.022 A 
ATOM     23 BR   UNL     1      -1.548   2.544   2.873  0.00  0.00    -0.046 Br
ENDBRANCH  15  20
ENDBRANCH   1  15
TORSDOF 4
