REMARK  Name = ZINC66120024
REMARK  5 active torsions:
REMARK  status: ('A' for Active; 'I' for Inactive)
REMARK    1  A    between atoms: C_1  and  C_2
REMARK    2  A    between atoms: C_2  and  C_4
REMARK    3  A    between atoms: C_2  and  N_10
REMARK    4  A    between atoms: C_16  and  N_19
REMARK    5  A    between atoms: C_20  and  C_22
REMARK                            x       y       z     vdW  Elec       q    Type
REMARK                         _______ _______ _______ _____ _____    ______ ____
ROOT
ATOM      1  N   UNL     1      -1.260  -0.330   2.430  0.00  0.00    -0.294 N 
ATOM      2  C   UNL     1       0.051  -0.633   2.355  0.00  0.00    +0.302 C 
ATOM      3  O   UNL     1       0.625  -0.592   1.284  0.00  0.00    -0.253 OA
ATOM      4  N   UNL     1       0.727  -0.983   3.468  0.00  0.00    -0.286 N 
ATOM      5  C   UNL     1       2.179  -1.203   3.424  0.00  0.00    +0.111 C 
ATOM      6  C   UNL     1       2.842  -0.333   4.497  0.00  0.00    +0.041 C 
ATOM      7  C   UNL     1       2.202  -0.628   5.855  0.00  0.00    +0.076 C 
ATOM      8  C   UNL     1       0.712  -0.281   5.805  0.00  0.00    +0.041 C 
ATOM      9  C   UNL     1       0.026  -1.145   4.749  0.00  0.00    +0.111 C 
ATOM     10  H   UNL     1      -1.735  -0.434   3.270  0.00  0.00    +0.151 HD
ENDROOT
BRANCH   7  11
ATOM     11  N   UNL     1       2.857   0.178   6.888  0.00  0.00    -0.312 N 
ATOM     12  C   UNL     1       2.848  -0.234   8.171  0.00  0.00    +0.216 C 
ATOM     13  O   UNL     1       2.299  -1.273   8.470  0.00  0.00    -0.276 OA
ATOM     14  H   UNL     1       3.296   1.010   6.649  0.00  0.00    +0.149 HD
BRANCH  12  15
ATOM     15  C   UNL     1       3.522   0.595   9.234  0.00  0.00    +0.075 C 
ATOM     16  C   UNL     1       5.039   0.365   9.326  0.00  0.00    +0.013 C 
ATOM     17  C   UNL     1       4.879   0.439  10.853  0.00  0.00    +0.001 C 
ATOM     18  C   UNL     1       3.423  -0.012  10.643  0.00  0.00    +0.013 C 
ENDBRANCH  12  15
ENDBRANCH   7  11
BRANCH   1  20
ATOM     19  C   UNL     1      -2.441  -1.035   0.408  0.00  0.00    +0.030 C 
ATOM     20  C   UNL     1      -1.968   0.156   1.244  0.00  0.00    +0.100 C 
BRANCH  20  21
ATOM     21  C   UNL     1      -3.177   0.988   1.677  0.00  0.00    +0.138 C 
ATOM     22  C   UNL     1      -3.889   1.588   0.438  0.00  0.00    +0.035 C 
ATOM     23  C   UNL     1      -5.325   1.790   0.992  0.00  0.00    +0.031 C 
ATOM     24  C   UNL     1      -5.476   0.593   1.955  0.00  0.00    +0.160 C 
ATOM     25  O   UNL     1      -4.159   0.150   2.307  0.00  0.00    -0.375 OA
ENDBRANCH  20  21
ENDBRANCH   1  20
TORSDOF 4
