REMARK  Name = ZINC63269063
REMARK  9 active torsions:
REMARK  status: ('A' for Active; 'I' for Inactive)
REMARK    1  A    between atoms: C_1  and  C_2
REMARK    2  A    between atoms: C_2  and  C_3
REMARK    3  A    between atoms: C_2  and  C_4
REMARK    4  A    between atoms: C_5  and  C_19
REMARK    5  A    between atoms: C_12  and  C_15
REMARK    6  A    between atoms: N_21  and  N_22
REMARK    7  A    between atoms: N_25  and  C_26
REMARK    8  A    between atoms: C_26  and  C_27
REMARK    9  A    between atoms: C_26  and  C_28
REMARK                            x       y       z     vdW  Elec       q    Type
REMARK                         _______ _______ _______ _____ _____    ______ ____
ROOT
ATOM      1  C   UNL     1      -1.443  -0.493   0.268  0.00  0.00    +0.061 A 
ATOM      2  C   UNL     1      -2.339  -0.076   1.232  0.00  0.00    +0.079 A 
ATOM      3  C   UNL     1      -3.542  -0.787   1.019  0.00  0.00    +0.148 A 
ATOM      4  N   UNL     1      -3.372  -1.574  -0.006  0.00  0.00    -0.172 NA
ATOM      5  N   UNL     1      -2.072  -1.406  -0.496  0.00  0.00    -0.218 N 
ATOM      6  C   UNL     1      -1.518  -2.075  -1.592  0.00  0.00    +0.154 A 
ATOM      7  C   UNL     1      -2.027  -3.310  -1.974  0.00  0.00    +0.049 A 
ATOM      8  C   UNL     1      -1.470  -3.961  -3.061  0.00  0.00    +0.017 A 
ATOM      9  C   UNL     1      -0.419  -3.351  -3.731  0.00  0.00    +0.073 A 
ATOM     10  C   UNL     1       0.036  -2.122  -3.296  0.00  0.00    +0.125 A 
ATOM     11  N   UNL     1      -0.518  -1.523  -2.260  0.00  0.00    -0.236 NA
ENDROOT
BRANCH   9  12
ATOM     12  C   UNL     1       0.219  -4.023  -4.919  0.00  0.00    +0.419 C 
ATOM     13  F   UNL     1      -0.443  -3.630  -6.088  0.00  0.00    -0.166 F 
ATOM     14  F   UNL     1       1.565  -3.651  -4.998  0.00  0.00    -0.166 F 
ATOM     15  F   UNL     1       0.126  -5.411  -4.775  0.00  0.00    -0.166 F 
ENDBRANCH   9  12
BRANCH   2  16
ATOM     16  C   UNL     1      -2.087   0.922   2.288  0.00  0.00    +0.263 C 
ATOM     17  O   UNL     1      -0.978   1.406   2.414  0.00  0.00    -0.269 OA
ATOM     18  N   UNL     1      -3.084   1.297   3.112  0.00  0.00    -0.229 N 
ATOM     19  H   UNL     1      -3.968   0.910   3.011  0.00  0.00    +0.173 HD
BRANCH  18  20
ATOM     20  N   UNL     1      -2.845   2.245   4.115  0.00  0.00    -0.218 N 
ATOM     21  C   UNL     1      -3.843   2.621   4.940  0.00  0.00    +0.316 C 
ATOM     22  O   UNL     1      -3.635   3.444   5.810  0.00  0.00    -0.251 OA
ATOM     23  N   UNL     1      -5.071   2.084   4.800  0.00  0.00    -0.296 N 
ATOM     24  H   UNL     1      -1.961   2.632   4.216  0.00  0.00    +0.174 HD
ATOM     25  H   UNL     1      -5.237   1.427   4.105  0.00  0.00    +0.151 HD
BRANCH  23  26
ATOM     26  C   UNL     1      -6.155   2.492   5.696  0.00  0.00    +0.068 C 
ATOM     27  C   UNL     1      -6.811   3.765   5.157  0.00  0.00    +0.027 C 
ATOM     28  C   UNL     1      -7.198   1.375   5.776  0.00  0.00    +0.027 C 
ENDBRANCH  23  26
ENDBRANCH  18  20
ENDBRANCH   2  16
BRANCH   1  30
ATOM     29  C   UNL     1      -0.026   1.505  -0.119  0.00  0.00    +0.014 C 
ATOM     30  C   UNL     1      -0.026  -0.009   0.098  0.00  0.00    +0.032 C 
ATOM     31  C   UNL     1       0.781  -0.345   1.353  0.00  0.00    +0.014 C 
ENDBRANCH   1  30
TORSDOF 5
