REMARK  Name = ZINC04123614
REMARK  6 active torsions:
REMARK  status: ('A' for Active; 'I' for Inactive)
REMARK    1  A    between atoms: C_1  and  C_2
REMARK    2  A    between atoms: C_2  and  C_3
REMARK    3  A    between atoms: C_2  and  C_4
REMARK    4  A    between atoms: C_15  and  O_23
REMARK    5  A    between atoms: C_17  and  N_20
REMARK    6  A    between atoms: O_23  and  C_24
REMARK                            x       y       z     vdW  Elec       q    Type
REMARK                         _______ _______ _______ _____ _____    ______ ____
ROOT
ATOM      1  C   UNL     1      -4.173   1.450   0.411  0.00  0.00    +0.077 C 
ATOM      2  C   UNL     1      -3.984   2.156  -0.914  0.00  0.00    +0.024 C 
ATOM      3  C   UNL     1      -4.859   3.380  -1.209  0.00  0.00    +0.033 C 
ATOM      4  C   UNL     1      -3.942   4.196  -2.125  0.00  0.00    -0.030 C 
ATOM      5  C   UNL     1      -2.671   3.901  -1.873  0.00  0.00    -0.023 C 
ATOM      6  C   UNL     1      -2.627   2.913  -0.767  0.00  0.00    +0.048 C 
ATOM      7  C   UNL     1      -1.573   1.880  -0.663  0.00  0.00    -0.014 A 
ATOM      8  C   UNL     1      -0.306   2.084  -1.169  0.00  0.00    +0.051 A 
ATOM      9  C   UNL     1       0.668   1.106  -1.039  0.00  0.00    +0.123 A 
ATOM     10  C   UNL     1       0.361  -0.082  -0.392  0.00  0.00    +0.080 A 
ATOM     11  C   UNL     1      -0.903  -0.290   0.111  0.00  0.00    +0.151 A 
ATOM     12  C   UNL     1      -1.898   0.679  -0.026  0.00  0.00    +0.062 A 
ATOM     13  N   UNL     1      -3.164   0.381   0.480  0.00  0.00    -0.338 N 
ATOM     14  H   UNL     1      -3.103   0.001   1.413  0.00  0.00    +0.146 HD
ENDROOT
BRANCH   1  16
ATOM     15  C   UNL     1      -5.177   3.369   1.657  0.00  0.00    +0.009 C 
ATOM     16  C   UNL     1      -3.968   2.436   1.563  0.00  0.00    +0.003 C 
ATOM     17  C   UNL     1      -3.815   1.665   2.875  0.00  0.00    +0.009 C 
ENDBRANCH   1  16
BRANCH  11  18
ATOM     18  N   UNL     1      -1.214  -1.562   0.802  0.00  0.00    +0.058 N 
ATOM     19  O   UNL     1      -0.354  -2.416   0.922  0.00  0.00    -0.126 OA
ATOM     20  O   UNL     1      -2.330  -1.755   1.250  0.00  0.00    -0.126 OA
ENDBRANCH  11  18
BRANCH   9  21
ATOM     21  O   UNL     1       1.914   1.310  -1.543  0.00  0.00    -0.495 OA
ATOM     22  C   UNL     1       2.864   0.257  -1.370  0.00  0.00    +0.277 C 
ENDBRANCH   9  21
TORSDOF 3
