REMARK  Name = ZINC09782161
REMARK  9 active torsions:
REMARK  status: ('A' for Active; 'I' for Inactive)
REMARK    1  A    between atoms: C_1  and  C_2
REMARK    2  A    between atoms: C_5  and  C_17
REMARK    3  A    between atoms: C_7  and  S_8
REMARK    4  A    between atoms: S_8  and  N_11
REMARK    5  A    between atoms: N_19  and  N_20
REMARK    6  A    between atoms: C_23  and  C_27
REMARK    7  A    between atoms: C_23  and  C_28
REMARK    8  A    between atoms: C_28  and  C_29
REMARK    9  A    between atoms: C_29  and  C_30
REMARK                            x       y       z     vdW  Elec       q    Type
REMARK                         _______ _______ _______ _____ _____    ______ ____
ROOT
ATOM      1  C   UNL     1      -0.848   0.540   5.635  0.00  0.00    +0.261 C 
ATOM      2  O   UNL     1      -1.469   1.585   5.629  0.00  0.00    -0.269 OA
ATOM      3  N   UNL     1      -0.252   0.104   4.507  0.00  0.00    -0.220 N 
ATOM      4  H   UNL     1       0.243  -0.730   4.511  0.00  0.00    +0.174 HD
ENDROOT
BRANCH   3   5
ATOM      5  N   UNL     1      -0.349   0.856   3.328  0.00  0.00    -0.137 N 
ATOM      6  C   UNL     1       0.653   1.599   2.819  0.00  0.00    +0.263 C 
ATOM      7  O   UNL     1       1.767   1.738   3.278  0.00  0.00    -0.271 OA
ATOM      8  C   UNL     1       0.099   2.225   1.555  0.00  0.00    +0.112 C 
ATOM      9  N   UNL     1      -1.282   1.714   1.493  0.00  0.00    -0.284 N 
ATOM     10  C   UNL     1      -1.449   0.925   2.569  0.00  0.00    +0.326 C 
ATOM     11  O   UNL     1      -2.484   0.340   2.824  0.00  0.00    -0.251 OA
ATOM     12  C   UNL     1       0.897   1.768   0.333  0.00  0.00    +0.041 C 
ATOM     13  H   UNL     1      -1.942   1.910   0.809  0.00  0.00    +0.151 HD
BRANCH   8  14
ATOM     14  C   UNL     1       0.107   3.751   1.663  0.00  0.00    +0.040 C 
BRANCH  14  15
ATOM     15  C   UNL     1      -0.617   4.351   0.456  0.00  0.00    +0.038 C 
BRANCH  15  16
ATOM     16  C   UNL     1      -0.609   5.855   0.561  0.00  0.00    -0.047 A 
ATOM     17  C   UNL     1      -1.642   6.508   1.207  0.00  0.00    +0.003 A 
ATOM     18  C   UNL     1      -1.631   7.886   1.309  0.00  0.00    +0.000 A 
ATOM     19  C   UNL     1      -0.594   8.613   0.754  0.00  0.00    +0.000 A 
ATOM     20  C   UNL     1       0.436   7.960   0.104  0.00  0.00    +0.000 A 
ATOM     21  C   UNL     1       0.429   6.581   0.007  0.00  0.00    +0.003 A 
ENDBRANCH  15  16
ENDBRANCH  14  15
ENDBRANCH   8  14
ENDBRANCH   3   5
BRANCH   1  26
ATOM     22  C   UNL     1      -0.451  -2.547  10.475  0.00  0.00    +0.046 C 
ATOM     23  C   UNL     1      -0.555  -1.738   9.207  0.00  0.00    -0.024 A 
ATOM     24  C   UNL     1       0.057  -2.189   8.051  0.00  0.00    +0.006 A 
ATOM     25  C   UNL     1      -0.038  -1.456   6.886  0.00  0.00    +0.013 A 
ATOM     26  C   UNL     1      -0.745  -0.253   6.878  0.00  0.00    +0.040 A 
ATOM     27  C   UNL     1      -1.361   0.196   8.048  0.00  0.00    +0.042 A 
ATOM     28  C   UNL     1      -1.262  -0.549   9.205  0.00  0.00    +0.109 A 
BRANCH  28  29
ATOM     29  S   UNL     1      -2.038   0.015  10.683  0.00  0.00    +0.061 S 
ATOM     30  O   UNL     1      -1.088  -0.145  11.727  0.00  0.00    -0.153 OA
ATOM     31  O   UNL     1      -2.630   1.270  10.377  0.00  0.00    -0.153 OA
BRANCH  29  32
ATOM     32  N   UNL     1      -3.282  -1.028  11.011  0.00  0.00    -0.177 NA
ATOM     33  C   UNL     1      -4.595  -0.851  10.375  0.00  0.00    +0.109 C 
ATOM     34  C   UNL     1      -4.989  -2.171   9.694  0.00  0.00    +0.017 C 
ATOM     35  C   UNL     1      -4.936  -3.304  10.721  0.00  0.00    +0.003 C 
ATOM     36  C   UNL     1      -3.509  -3.446  11.254  0.00  0.00    +0.017 C 
ATOM     37  C   UNL     1      -3.096  -2.144  11.948  0.00  0.00    +0.109 C 
ENDBRANCH  29  32
ENDBRANCH  28  29
ENDBRANCH   1  26
TORSDOF 7
