REMARK  Name = ZINC21121547
REMARK  11 active torsions:
REMARK  status: ('A' for Active; 'I' for Inactive)
REMARK    1  A    between atoms: C_1  and  C_2
REMARK    2  A    between atoms: C_2  and  N_3
REMARK    3  A    between atoms: C_12  and  S_13
REMARK    4  A    between atoms: S_13  and  C_14
REMARK    5  A    between atoms: C_14  and  C_16
REMARK    6  A    between atoms: C_14  and  C_17
REMARK    7  A    between atoms: C_17  and  C_19
REMARK    8  A    between atoms: C_20  and  N_29
REMARK    9  A    between atoms: N_21  and  C_28
REMARK   10  A    between atoms: N_24  and  C_27
REMARK   11  A    between atoms: C_31  and  C_35
REMARK                            x       y       z     vdW  Elec       q    Type
REMARK                         _______ _______ _______ _____ _____    ______ ____
ROOT
ATOM      1  S   UNL     1       0.508  -4.545   0.790  0.00  0.00    -0.076 S 
ENDROOT
BRANCH   1  11
ATOM      2  N   UNL     1      -1.271  -6.472   1.467  0.00  0.00    -0.288 N 
ATOM      3  C   UNL     1      -2.493  -7.016   1.614  0.00  0.00    +0.263 A 
ATOM      4  O   UNL     1      -2.618  -8.142   2.065  0.00  0.00    -0.267 OA
ATOM      5  C   UNL     1      -3.644  -6.255   1.234  0.00  0.00    +0.076 A 
ATOM      6  C   UNL     1      -5.054  -6.645   1.306  0.00  0.00    -0.023 A 
ATOM      7  C   UNL     1      -5.961  -5.741   0.884  0.00  0.00    -0.004 A 
ATOM      8  S   UNL     1      -5.007  -4.337   0.372  0.00  0.00    -0.073 S 
ATOM      9  C   UNL     1      -3.388  -4.970   0.728  0.00  0.00    +0.117 A 
ATOM     10  N   UNL     1      -2.156  -4.489   0.612  0.00  0.00    -0.216 NA
ATOM     11  C   UNL     1      -1.113  -5.213   0.964  0.00  0.00    +0.173 A 
ATOM     12  C   UNL     1      -7.451  -5.895   0.855  0.00  0.00    +0.046 C 
ATOM     13  C   UNL     1      -7.787  -7.382   1.031  0.00  0.00    -0.009 C 
ATOM     14  C   UNL     1      -6.978  -7.932   2.209  0.00  0.00    +0.008 C 
ATOM     15  C   UNL     1      -5.498  -8.007   1.833  0.00  0.00    +0.037 C 
ATOM     16  C   UNL     1      -9.283  -7.540   1.314  0.00  0.00    +0.008 C 
BRANCH   2  18
ATOM     17  C   UNL     1       0.241  -6.972   3.322  0.00  0.00    +0.027 C 
ATOM     18  C   UNL     1      -0.089  -7.245   1.854  0.00  0.00    +0.124 C 
ENDBRANCH   2  18
ENDBRANCH   1  11
BRANCH   1  19
ATOM     19  C   UNL     1       0.106  -2.919   0.104  0.00  0.00    +0.122 C 
ATOM     20  C   UNL     1      -0.528  -3.091  -1.278  0.00  0.00    +0.028 C 
BRANCH  19  21
ATOM     21  C   UNL     1       1.365  -2.100  -0.019  0.00  0.00    +0.185 C 
ATOM     22  O   UNL     1       2.441  -2.652  -0.124  0.00  0.00    -0.291 OA
BRANCH  21  23
ATOM     23  C   UNL     1       1.293  -0.690  -0.013  0.00  0.00    +0.121 A 
ATOM     24  C   UNL     1       2.459   0.095   0.001  0.00  0.00    +0.116 A 
ATOM     25  N   UNL     1       2.338   1.456   0.007  0.00  0.00    -0.284 N 
ATOM     26  C   UNL     1       1.135   2.050   0.001  0.00  0.00    +0.333 A 
ATOM     27  O   UNL     1       1.081   3.264   0.006  0.00  0.00    -0.246 OA
ATOM     28  N   UNL     1      -0.013   1.352  -0.012  0.00  0.00    -0.263 N 
ATOM     29  C   UNL     1      -0.002   0.003  -0.019  0.00  0.00    +0.269 A 
ATOM     30  O   UNL     1      -1.043  -0.627  -0.032  0.00  0.00    -0.267 OA
ATOM     31  C   UNL     1      -1.292   2.065  -0.025  0.00  0.00    +0.157 C 
ATOM     32  C   UNL     1       3.547   2.283   0.021  0.00  0.00    +0.155 C 
BRANCH  24  33
ATOM     33  N   UNL     1       3.687  -0.490   0.008  0.00  0.00    -0.344 N 
ATOM     34  H   UNL     1       4.593   0.133   0.019  0.00  0.00    +0.144 HD
ATOM     35  H   UNL     1       3.773  -1.587   0.004  0.00  0.00    +0.144 HD
ENDBRANCH  24  33
ENDBRANCH  21  23
ENDBRANCH  19  21
ENDBRANCH   1  19
TORSDOF 6
