REMARK  Name = ZINC36527822
REMARK  16 active torsions:
REMARK  status: ('A' for Active; 'I' for Inactive)
REMARK    1  A    between atoms: C_1  and  C_2
REMARK    2  A    between atoms: C_2  and  C_3
REMARK    3  A    between atoms: C_2  and  C_4
REMARK    4  A    between atoms: C_2  and  C_5
REMARK    5  A    between atoms: C_5  and  C_6
REMARK    6  A    between atoms: C_6  and  C_7
REMARK    7  A    between atoms: C_6  and  C_8
REMARK    8  A    between atoms: C_6  and  N_9
REMARK    9  A    between atoms: C_10  and  C_12
REMARK   10  A    between atoms: C_12  and  C_14
REMARK   11  A    between atoms: C_12  and  N_23
REMARK   12  A    between atoms: C_15  and  O_22
REMARK   13  A    between atoms: C_17  and  O_21
REMARK   14  A    between atoms: C_19  and  O_20
REMARK   15  A    between atoms: N_23  and  C_24
REMARK   16  A    between atoms: C_25  and  C_27
REMARK                            x       y       z     vdW  Elec       q    Type
REMARK                         _______ _______ _______ _____ _____    ______ ____
ROOT
ATOM      1  C   UNL     1       5.541  -1.189  -3.477  0.00  0.00    +0.199 C 
ENDROOT
BRANCH   1   2
ATOM      2  C   UNL     1       5.487  -2.596  -4.012  0.00  0.00    +0.065 A 
ATOM      3  C   UNL     1       5.737  -3.669  -3.170  0.00  0.00    +0.129 A 
ATOM      4  C   UNL     1       5.688  -4.964  -3.662  0.00  0.00    +0.091 A 
ATOM      5  C   UNL     1       5.388  -5.187  -4.998  0.00  0.00    +0.124 A 
ATOM      6  C   UNL     1       5.137  -4.115  -5.840  0.00  0.00    +0.091 A 
ATOM      7  C   UNL     1       5.182  -2.820  -5.347  0.00  0.00    +0.129 A 
BRANCH   7   8
ATOM      8  O   UNL     1       4.931  -1.769  -6.171  0.00  0.00    -0.506 OA
ATOM      9  H   UNL     1       5.717  -1.420  -6.614  0.00  0.00    +0.292 HD
ENDBRANCH   7   8
BRANCH   5  10
ATOM     10  O   UNL     1       5.340  -6.457  -5.481  0.00  0.00    -0.507 OA
ATOM     11  H   UNL     1       4.467  -6.868  -5.420  0.00  0.00    +0.292 HD
ENDBRANCH   5  10
BRANCH   3  12
ATOM     12  O   UNL     1       6.031  -3.451  -1.861  0.00  0.00    -0.506 OA
ATOM     13  H   UNL     1       5.267  -3.512  -1.271  0.00  0.00    +0.292 HD
ENDBRANCH   3  12
ENDBRANCH   1   2
BRANCH   1  15
ATOM     14  N   UNL     1       3.451  -1.416  -2.173  0.00  0.00    -0.308 N 
ATOM     15  C   UNL     1       4.764  -1.112  -2.188  0.00  0.00    +0.239 C 
ATOM     16  O   UNL     1       5.320  -0.776  -1.164  0.00  0.00    -0.273 OA
ATOM     17  H   UNL     1       3.006  -1.684  -2.992  0.00  0.00    +0.149 HD
BRANCH  14  18
ATOM     18  C   UNL     1       2.695  -1.341  -0.920  0.00  0.00    +0.030 C 
ATOM     19  C   UNL     1       2.779   0.080  -0.358  0.00  0.00    +0.031 C 
ATOM     20  C   UNL     1       3.287  -2.325   0.091  0.00  0.00    +0.031 C 
BRANCH  18  21
ATOM     21  C   UNL     1       1.232  -1.699  -1.185  0.00  0.00    +0.031 C 
BRANCH  21  23
ATOM     22  C   UNL     1       0.908  -1.959  -3.649  0.00  0.00    +0.010 C 
ATOM     23  C   UNL     1       0.759  -1.004  -2.463  0.00  0.00    -0.036 C 
ATOM     24  C   UNL     1       1.607   0.247  -2.706  0.00  0.00    +0.010 C 
ATOM     25  C   UNL     1      -0.710  -0.602  -2.312  0.00  0.00    +0.010 C 
ENDBRANCH  21  23
ENDBRANCH  18  21
ENDBRANCH  14  18
ENDBRANCH   1  15
BRANCH   1  26
ATOM     26  N   UNL     1       6.935  -0.813  -3.230  0.00  0.00    -0.285 N 
ATOM     27  C   UNL     1       7.675  -1.429  -2.125  0.00  0.00    +0.133 C 
ATOM     28  C   UNL     1       7.537   0.099  -4.019  0.00  0.00    +0.247 C 
ATOM     29  O   UNL     1       6.931   0.592  -4.950  0.00  0.00    -0.270 OA
BRANCH  28  30
ATOM     30  C   UNL     1       8.934   0.500  -3.751  0.00  0.00    +0.037 A 
ATOM     31  C   UNL     1       9.879  -0.458  -3.378  0.00  0.00    +0.014 A 
ATOM     32  C   UNL     1      11.181  -0.078  -3.131  0.00  0.00    +0.021 A 
ATOM     33  C   UNL     1      11.553   1.251  -3.251  0.00  0.00    +0.041 A 
ATOM     34  C   UNL     1      10.620   2.205  -3.621  0.00  0.00    +0.021 A 
ATOM     35  C   UNL     1       9.316   1.837  -3.877  0.00  0.00    +0.014 A 
ATOM     36 CL   UNL     1      13.194   1.721  -2.937  0.00  0.00    -0.084 Cl
ENDBRANCH  28  30
ENDBRANCH   1  26
TORSDOF 10
