REMARK  Name = ZINC34380618
REMARK  10 active torsions:
REMARK  status: ('A' for Active; 'I' for Inactive)
REMARK    1  A    between atoms: C_1  and  C_2
REMARK    2  A    between atoms: C_2  and  C_4
REMARK    3  A    between atoms: C_2  and  O_38
REMARK    4  A    between atoms: C_4  and  C_35
REMARK    5  A    between atoms: C_9  and  C_12
REMARK    6  A    between atoms: C_16  and  O_19
REMARK    7  A    between atoms: C_17  and  O_18
REMARK    8  A    between atoms: O_19  and  C_20
REMARK    9  A    between atoms: N_23  and  C_26
REMARK   10  A    between atoms: C_30  and  N_32
REMARK                            x       y       z     vdW  Elec       q    Type
REMARK                         _______ _______ _______ _____ _____    ______ ____
ROOT
ATOM      1  C   UNL     1       0.817  -0.735   1.209  0.00  0.00    +0.074 C 
ATOM      2  C   UNL     1       0.678  -2.230   1.479  0.00  0.00    +0.089 C 
ATOM      3  C   UNL     1       1.041  -2.186   3.011  0.00  0.00    +0.077 C 
ATOM      4  C   UNL     1       0.207  -1.095   3.530  0.00  0.00    -0.023 C 
ATOM      5  N   UNL     1       0.133  -0.112   2.389  0.00  0.00    +0.397 N 
ATOM      6  C   UNL     1       1.350  -3.569   3.285  0.00  0.00    +0.229 C 
ATOM      7  O   UNL     1       1.152  -4.180   4.313  0.00  0.00    -0.275 OA
ATOM      8  N   UNL     1       1.917  -4.042   2.127  0.00  0.00    -0.210 N 
ATOM      9  C   UNL     1       1.740  -3.193   1.054  0.00  0.00    +0.229 C 
ATOM     10  O   UNL     1       2.322  -3.214  -0.010  0.00  0.00    -0.275 OA
ATOM     11  H   UNL     1       0.597   0.749   2.638  0.00  0.00    -0.083 HD
ATOM     12  H   UNL     1      -0.834   0.071   2.166  0.00  0.00    -0.083 HD
ENDROOT
BRANCH   4  13
ATOM     13  C   UNL     1      -1.160  -1.610   3.902  0.00  0.00    -0.015 A 
ATOM     14  C   UNL     1      -1.585  -2.841   3.438  0.00  0.00    +0.006 A 
ATOM     15  C   UNL     1      -2.838  -3.316   3.777  0.00  0.00    +0.004 A 
ATOM     16  C   UNL     1      -3.672  -2.562   4.582  0.00  0.00    +0.049 A 
ATOM     17  C   UNL     1      -3.252  -1.327   5.050  0.00  0.00    +0.161 A 
ATOM     18  C   UNL     1      -1.988  -0.852   4.714  0.00  0.00    +0.160 A 
BRANCH  18  19
ATOM     19  O   UNL     1      -1.569   0.357   5.176  0.00  0.00    -0.503 OA
ATOM     20  H   UNL     1      -1.790   1.098   4.595  0.00  0.00    +0.292 HD
ENDBRANCH  18  19
BRANCH  17  21
ATOM     21  O   UNL     1      -4.071  -0.584   5.842  0.00  0.00    -0.491 OA
ATOM     22  C   UNL     1      -5.352  -1.138   6.151  0.00  0.00    +0.277 C 
ENDBRANCH  17  21
ENDBRANCH   4  13
BRANCH   8  23
ATOM     23  C   UNL     1       2.596  -5.265   2.039  0.00  0.00    +0.046 A 
ATOM     24  C   UNL     1       3.147  -5.669   0.830  0.00  0.00    +0.024 A 
ATOM     25  C   UNL     1       3.815  -6.874   0.746  0.00  0.00    +0.004 A 
ATOM     26  C   UNL     1       3.935  -7.680   1.864  0.00  0.00    +0.033 A 
ATOM     27  C   UNL     1       3.387  -7.281   3.068  0.00  0.00    +0.128 A 
ATOM     28  C   UNL     1       2.723  -6.073   3.160  0.00  0.00    +0.056 A 
BRANCH  27  29
ATOM     29  N   UNL     1       3.518  -8.145   4.263  0.00  0.00    +0.056 N 
ATOM     30  O   UNL     1       4.103  -9.200   4.184  0.00  0.00    -0.126 OA
ATOM     31  O   UNL     1       3.038  -7.797   5.317  0.00  0.00    -0.126 OA
ENDBRANCH  27  29
ENDBRANCH   8  23
BRANCH   1  32
ATOM     32  C   UNL     1       2.268  -0.332   1.160  0.00  0.00    +0.349 C 
ATOM     33  O   UNL     1       2.708   0.462   1.975  0.00  0.00    -0.248 OA
ATOM     34  O   UNL     1       3.002  -0.798   0.306  0.00  0.00    -0.248 OA
ENDBRANCH   1  32
BRANCH   1  36
ATOM     35  C   UNL     1       0.051   1.172  -0.212  0.00  0.00    +0.037 C 
ATOM     36  C   UNL     1       0.108  -0.352  -0.092  0.00  0.00    +0.112 C 
BRANCH  36  37
ATOM     37  O   UNL     1      -1.221  -0.879  -0.083  0.00  0.00    -0.393 OA
ATOM     38  H   UNL     1      -1.793  -0.490   0.593  0.00  0.00    +0.210 HD
ENDBRANCH  36  37
ENDBRANCH   1  36
TORSDOF 8
