REMARK  Name = ZINC66858897
REMARK  7 active torsions:
REMARK  status: ('A' for Active; 'I' for Inactive)
REMARK    1  A    between atoms: C_1  and  C_2
REMARK    2  A    between atoms: N_4  and  C_5
REMARK    3  A    between atoms: C_5  and  C_7
REMARK    4  A    between atoms: C_5  and  C_12
REMARK    5  A    between atoms: C_17  and  C_20
REMARK    6  A    between atoms: C_20  and  C_21
REMARK    7  A    between atoms: N_26  and  C_29
REMARK                            x       y       z     vdW  Elec       q    Type
REMARK                         _______ _______ _______ _____ _____    ______ ____
ROOT
ATOM      1  C   UNL     1      -1.276  -3.224   1.225  0.00  0.00    +0.236 C 
ATOM      2  O   UNL     1      -0.642  -4.258   1.222  0.00  0.00    -0.274 OA
ATOM      3  N   UNL     1      -2.081  -2.930   2.265  0.00  0.00    -0.300 N 
ATOM      4  C   UNL     1      -2.965  -1.757   2.221  0.00  0.00    +0.108 C 
ATOM      5  C   UNL     1      -2.707  -0.897   3.462  0.00  0.00    +0.023 C 
ATOM      6  C   UNL     1      -2.869  -1.759   4.717  0.00  0.00    +0.001 C 
ATOM      7  C   UNL     1      -1.844  -2.895   4.694  0.00  0.00    +0.023 C 
ATOM      8  C   UNL     1      -2.096  -3.780   3.464  0.00  0.00    +0.108 C 
ENDROOT
BRANCH   1   9
ATOM      9  C   UNL     1      -1.165  -2.268   0.066  0.00  0.00    +0.162 C 
BRANCH   9  13
ATOM     10  C   UNL     1       0.287  -4.611  -2.591  0.00  0.00    +0.109 C 
ATOM     11  C   UNL     1       0.093  -3.833  -1.315  0.00  0.00    +0.211 C 
ATOM     12  O   UNL     1       0.899  -3.934  -0.415  0.00  0.00    -0.276 OA
ATOM     13  N   UNL     1      -0.976  -3.024  -1.175  0.00  0.00    -0.304 N 
ATOM     14  H   UNL     1      -1.621  -2.943  -1.895  0.00  0.00    +0.149 HD
ENDBRANCH   9  13
BRANCH   9  15
ATOM     15  C   UNL     1       0.032  -1.339   0.283  0.00  0.00    +0.018 C 
ATOM     16  C   UNL     1      -0.250  -0.382   1.460  0.00  0.00    +0.006 C 
ATOM     17  C   UNL     1       0.397   0.957   1.023  0.00  0.00    +0.000 C 
ATOM     18  C   UNL     1       0.090   1.005  -0.494  0.00  0.00    +0.000 C 
ATOM     19  C   UNL     1       0.248  -0.458  -0.959  0.00  0.00    +0.006 C 
ENDBRANCH   9  15
ENDBRANCH   1   9
BRANCH   6  20
ATOM     20  C   UNL     1      -2.646  -0.896   5.960  0.00  0.00    +0.099 C 
BRANCH  20  21
ATOM     21  C   UNL     1      -2.926  -1.713   7.195  0.00  0.00    +0.216 C 
ATOM     22  O   UNL     1      -3.270  -2.871   7.091  0.00  0.00    -0.276 OA
ATOM     23  N   UNL     1      -2.794  -1.156   8.416  0.00  0.00    -0.305 N 
ATOM     24  C   UNL     1      -2.384   0.248   8.566  0.00  0.00    +0.089 C 
ATOM     25  C   UNL     1      -3.373   0.945   9.508  0.00  0.00    -0.060 C 
ATOM     26  N   UNL     1      -3.453   0.198  10.770  0.00  0.00    +0.380 N 
ATOM     27  C   UNL     1      -4.013  -1.137  10.527  0.00  0.00    -0.060 C 
ATOM     28  C   UNL     1      -3.062  -1.935   9.635  0.00  0.00    +0.089 C 
ATOM     29  C   UNL     1      -4.315   0.925  11.712  0.00  0.00    -0.096 C 
ATOM     30  H   UNL     1      -2.529   0.107  11.165  0.00  0.00    -0.082 HD
ENDBRANCH  20  21
ENDBRANCH   6  20
TORSDOF 5
