REMARK  Name = ZINC13147730
REMARK  13 active torsions:
REMARK  status: ('A' for Active; 'I' for Inactive)
REMARK    1  A    between atoms: C_1  and  C_2
REMARK    2  A    between atoms: C_2  and  C_4
REMARK    3  A    between atoms: C_2  and  N_7
REMARK    4  A    between atoms: C_4  and  O_5
REMARK    5  A    between atoms: O_5  and  C_6
REMARK    6  A    between atoms: N_7  and  C_8
REMARK    7  A    between atoms: C_8  and  N_10
REMARK    8  A    between atoms: N_10  and  N_11
REMARK    9  A    between atoms: C_12  and  C_14
REMARK   10  A    between atoms: C_18  and  S_20
REMARK   11  A    between atoms: S_20  and  N_23
REMARK   12  A    between atoms: N_23  and  C_24
REMARK   13  A    between atoms: C_24  and  C_25
REMARK                            x       y       z     vdW  Elec       q    Type
REMARK                         _______ _______ _______ _____ _____    ______ ____
ROOT
ATOM      1  C   UNL     1      -6.440  -1.156   0.255  0.00  0.00    +0.040 A 
ATOM      2  C   UNL     1      -5.810  -1.006  -0.982  0.00  0.00    +0.014 A 
ATOM      3  C   UNL     1      -6.440  -1.436  -2.131  0.00  0.00    +0.023 A 
ATOM      4  C   UNL     1      -7.701  -2.005  -2.060  0.00  0.00    +0.067 A 
ATOM      5  C   UNL     1      -8.333  -2.151  -0.837  0.00  0.00    +0.124 A 
ATOM      6  C   UNL     1      -7.710  -1.731   0.320  0.00  0.00    +0.043 A 
ATOM      7 CL   UNL     1      -8.491  -2.538  -3.511  0.00  0.00    -0.082 Cl
ENDROOT
BRANCH   1   9
ATOM      8  N   UNL     1      -4.540  -0.149   1.425  0.00  0.00    -0.231 N 
ATOM      9  C   UNL     1      -5.766  -0.703   1.490  0.00  0.00    +0.260 C 
ATOM     10  O   UNL     1      -6.319  -0.831   2.565  0.00  0.00    -0.269 OA
ATOM     11  H   UNL     1      -4.099  -0.047   0.567  0.00  0.00    +0.173 HD
BRANCH   8  12
ATOM     12  N   UNL     1      -3.902   0.281   2.596  0.00  0.00    -0.246 N 
ATOM     13  H   UNL     1      -4.343   0.179   3.454  0.00  0.00    +0.172 HD
BRANCH  12  14
ATOM     14  C   UNL     1      -2.675   0.835   2.530  0.00  0.00    +0.147 C 
ATOM     15  S   UNL     1      -1.895   1.360   3.961  0.00  0.00    -0.017 S 
BRANCH  14  16
ATOM     16  N   UNL     1      -2.062   0.977   1.338  0.00  0.00    -0.321 N 
ATOM     17  H   UNL     1      -2.504   0.679   0.527  0.00  0.00    +0.148 HD
BRANCH  16  19
ATOM     18  C   UNL     1      -0.860   3.103   1.215  0.00  0.00    +0.030 C 
ATOM     19  C   UNL     1      -0.729   1.579   1.267  0.00  0.00    +0.095 C 
BRANCH  19  20
ATOM     20  C   UNL     1      -0.013   1.086   0.008  0.00  0.00    +0.181 C 
BRANCH  20  21
ATOM     21  O   UNL     1      -0.704   1.559  -1.150  0.00  0.00    -0.381 OA
ATOM     22  C   UNL     1      -0.114   1.152  -2.386  0.00  0.00    +0.194 C 
ENDBRANCH  20  21
ENDBRANCH  19  20
ENDBRANCH  16  19
ENDBRANCH  14  16
ENDBRANCH  12  14
ENDBRANCH   8  12
ENDBRANCH   1   9
BRANCH   5  23
ATOM     23  S   UNL     1      -9.937  -2.877  -0.757  0.00  0.00    +0.060 S 
ATOM     24  O   UNL     1      -9.879  -4.074  -1.520  0.00  0.00    -0.153 OA
ATOM     25  O   UNL     1     -10.322  -2.863   0.611  0.00  0.00    -0.153 OA
BRANCH  23  26
ATOM     26  N   UNL     1     -10.975  -1.859  -1.551  0.00  0.00    -0.183 NA
ATOM     27  H   UNL     1     -11.683  -1.412  -1.062  0.00  0.00    +0.148 HD
BRANCH  26  28
ATOM     28  C   UNL     1     -10.823  -1.635  -2.990  0.00  0.00    +0.180 C 
BRANCH  28  29
ATOM     29  C   UNL     1     -12.071  -0.989  -3.533  0.00  0.00    +0.120 A 
ATOM     30  C   UNL     1     -12.298   0.335  -3.618  0.00  0.00    +0.046 A 
ATOM     31  C   UNL     1     -13.585   0.494  -4.182  0.00  0.00    +0.041 A 
ATOM     32  C   UNL     1     -14.067  -0.741  -4.409  0.00  0.00    +0.195 A 
ATOM     33  O   UNL     1     -13.143  -1.635  -4.019  0.00  0.00    -0.466 OA
ENDBRANCH  28  29
ENDBRANCH  26  28
ENDBRANCH  23  26
ENDBRANCH   5  23
TORSDOF 11
