REMARK  Name = ZINC14160191
REMARK  11 active torsions:
REMARK  status: ('A' for Active; 'I' for Inactive)
REMARK    1  A    between atoms: C_1  and  C_2
REMARK    2  A    between atoms: C_4  and  C_34
REMARK    3  A    between atoms: C_6  and  N_8
REMARK    4  A    between atoms: N_13  and  C_14
REMARK    5  A    between atoms: C_16  and  O_24
REMARK    6  A    between atoms: C_17  and  O_22
REMARK    7  A    between atoms: C_18  and  O_20
REMARK    8  A    between atoms: O_20  and  C_21
REMARK    9  A    between atoms: O_22  and  C_23
REMARK   10  A    between atoms: O_24  and  C_25
REMARK   11  A    between atoms: C_30  and  C_33
REMARK                            x       y       z     vdW  Elec       q    Type
REMARK                         _______ _______ _______ _____ _____    ______ ____
ROOT
ATOM      1  N   UNL     1       1.982  -1.800   1.794  0.00  0.00    -0.179 NA
ATOM      2  C   UNL     1       1.357  -1.562   2.938  0.00  0.00    +0.200 C 
ATOM      3  N   UNL     1       0.940  -0.321   3.229  0.00  0.00    -0.310 N 
ATOM      4  C   UNL     1       1.373   0.282   4.325  0.00  0.00    +0.149 C 
ATOM      5  S   UNL     1       2.357  -0.603   5.487  0.00  0.00    -0.016 SA
ATOM      6  N   UNL     1       1.056   1.593   4.554  0.00  0.00    -0.295 N 
ATOM      7  N   UNL     1       1.136  -2.589   3.827  0.00  0.00    -0.301 N 
ATOM      8  C   UNL     1       0.318  -2.375   5.028  0.00  0.00    +0.108 C 
ATOM      9  C   UNL     1      -0.789  -3.434   5.066  0.00  0.00    +0.019 C 
ATOM     10  C   UNL     1      -0.160  -4.826   4.972  0.00  0.00    +0.006 C 
ATOM     11  C   UNL     1       0.592  -4.961   3.647  0.00  0.00    +0.003 C 
ATOM     12  C   UNL     1       1.709  -3.921   3.590  0.00  0.00    +0.111 C 
ATOM     13  C   UNL     1       1.192  -6.364   3.539  0.00  0.00    +0.009 C 
ATOM     14  H   UNL     1       0.416   2.045   3.982  0.00  0.00    +0.154 HD
ATOM     15  H   UNL     1       0.322   0.135   2.637  0.00  0.00    +0.170 HD
ENDROOT
BRANCH   1  21
ATOM     16  C   UNL     1       2.869   2.880   1.457  0.00  0.00    +0.066 C 
ATOM     17  C   UNL     1       2.909   1.489   0.877  0.00  0.00    +0.044 A 
ATOM     18  C   UNL     1       3.439   1.271  -0.386  0.00  0.00    +0.046 A 
ATOM     19  C   UNL     1       3.459  -0.023  -0.885  0.00  0.00    +0.044 A 
ATOM     20  N   UNL     1       2.974  -1.007  -0.148  0.00  0.00    -0.216 NA
ATOM     21  C   UNL     1       2.472  -0.767   1.061  0.00  0.00    +0.254 A 
ATOM     22  N   UNL     1       2.445   0.464   1.569  0.00  0.00    -0.216 NA
ATOM     23  C   UNL     1       4.025  -0.303  -2.253  0.00  0.00    +0.066 C 
ENDBRANCH   1  21
BRANCH   6  24
ATOM     24  C   UNL     1       1.655   2.283   5.616  0.00  0.00    +0.040 A 
ATOM     25  C   UNL     1       3.001   2.092   5.896  0.00  0.00    +0.073 A 
ATOM     26  C   UNL     1       3.594   2.774   6.946  0.00  0.00    +0.167 A 
ATOM     27  C   UNL     1       2.841   3.650   7.719  0.00  0.00    +0.204 A 
ATOM     28  C   UNL     1       1.494   3.840   7.438  0.00  0.00    +0.167 A 
ATOM     29  C   UNL     1       0.903   3.161   6.385  0.00  0.00    +0.073 A 
BRANCH  28  30
ATOM     30  O   UNL     1       0.756   4.697   8.195  0.00  0.00    -0.491 OA
ATOM     31  C   UNL     1      -0.623   4.844   7.849  0.00  0.00    +0.277 C 
ENDBRANCH  28  30
BRANCH  27  32
ATOM     32  O   UNL     1       3.424   4.320   8.752  0.00  0.00    -0.488 OA
ATOM     33  C   UNL     1       4.001   5.593   8.455  0.00  0.00    +0.277 C 
ENDBRANCH  27  32
BRANCH  26  34
ATOM     34  O   UNL     1       4.913   2.586   7.220  0.00  0.00    -0.491 OA
ATOM     35  C   UNL     1       5.625   1.671   6.385  0.00  0.00    +0.277 C 
ENDBRANCH  26  34
ENDBRANCH   6  24
TORSDOF 5
