REMARK  Name = ZINC13139168
REMARK  5 active torsions:
REMARK  status: ('A' for Active; 'I' for Inactive)
REMARK    1  A    between atoms: C_8  and  S_10
REMARK    2  A    between atoms: S_10  and  C_11
REMARK    3  A    between atoms: C_11  and  C_12
REMARK    4  A    between atoms: N_14  and  N_15
REMARK    5  A    between atoms: N_15  and  C_16
REMARK                            x       y       z     vdW  Elec       q    Type
REMARK                         _______ _______ _______ _____ _____    ______ ____
ROOT
ATOM      1  C   UNL     1      -2.429   8.059  -0.240  0.00  0.00    +0.239 C 
ATOM      2  O   UNL     1      -3.473   7.441  -0.234  0.00  0.00    -0.273 OA
ATOM      3  N   UNL     1      -1.256   7.400  -0.153  0.00  0.00    -0.236 N 
ATOM      4  H   UNL     1      -0.421   7.894  -0.158  0.00  0.00    +0.173 HD
ENDROOT
BRANCH   3   5
ATOM      5  N   UNL     1      -1.243   6.002  -0.055  0.00  0.00    -0.271 N 
ATOM      6  H   UNL     1      -2.078   5.509  -0.050  0.00  0.00    +0.169 HD
BRANCH   5   7
ATOM      7  C   UNL     1      -0.070   5.344   0.032  0.00  0.00    +0.106 C 
ATOM      8  C   UNL     1      -0.059   3.978   0.244  0.00  0.00    +0.114 C 
ATOM      9  C   UNL     1       1.190   3.198   0.170  0.00  0.00    +0.258 C 
ATOM     10  O   UNL     1       2.250   3.740  -0.082  0.00  0.00    -0.270 OA
ATOM     11  N   UNL     1       1.125   1.869   0.387  0.00  0.00    -0.236 N 
ATOM     12  C   UNL     1      -0.036   1.260   0.666  0.00  0.00    +0.313 C 
ATOM     13  O   UNL     1      -0.026   0.059   0.852  0.00  0.00    -0.252 OA
ATOM     14  N   UNL     1      -1.209   1.904   0.744  0.00  0.00    -0.236 N 
ATOM     15  C   UNL     1      -1.295   3.237   0.554  0.00  0.00    +0.258 C 
ATOM     16  O   UNL     1      -2.364   3.811   0.632  0.00  0.00    -0.270 OA
ATOM     17  H   UNL     1       1.938   1.341   0.342  0.00  0.00    +0.159 HD
ATOM     18  H   UNL     1      -2.013   1.401   0.945  0.00  0.00    +0.159 HD
ENDBRANCH   5   7
ENDBRANCH   3   5
BRANCH   1  19
ATOM     19  C   UNL     1      -2.443   9.562  -0.345  0.00  0.00    +0.173 C 
BRANCH  19  20
ATOM     20  S   UNL     1      -4.154  10.144  -0.446  0.00  0.00    -0.089 S 
BRANCH  20  28
ATOM     21  C   UNL     1      -4.719  16.544  -0.909  0.00  0.00    +0.002 A 
ATOM     22  C   UNL     1      -3.349  16.759  -0.876  0.00  0.00    +0.001 A 
ATOM     23  C   UNL     1      -2.496  15.675  -0.771  0.00  0.00    +0.017 A 
ATOM     24  C   UNL     1      -3.017  14.407  -0.702  0.00  0.00    +0.040 A 
ATOM     25  C   UNL     1      -4.406  14.150  -0.734  0.00  0.00    +0.079 A 
ATOM     26  C   UNL     1      -5.248  15.281  -0.841  0.00  0.00    +0.029 A 
ATOM     27  N   UNL     1      -4.763  12.850  -0.656  0.00  0.00    -0.233 NA
ATOM     28  C   UNL     1      -3.881  11.881  -0.557  0.00  0.00    +0.136 A 
ATOM     29  S   UNL     1      -2.333  12.774  -0.558  0.00  0.00    -0.061 S 
ENDBRANCH  20  28
ENDBRANCH  19  20
ENDBRANCH   1  19
TORSDOF 5
