REMARK  Name = ZINC36296316
REMARK  7 active torsions:
REMARK  status: ('A' for Active; 'I' for Inactive)
REMARK    1  A    between atoms: C_1  and  C_2
REMARK    2  A    between atoms: C_3  and  N_20
REMARK    3  A    between atoms: C_7  and  N_8
REMARK    4  A    between atoms: N_8  and  S_9
REMARK    5  A    between atoms: S_9  and  N_12
REMARK    6  A    between atoms: N_12  and  C_13
REMARK    7  A    between atoms: N_12  and  C_14
REMARK                            x       y       z     vdW  Elec       q    Type
REMARK                         _______ _______ _______ _____ _____    ______ ____
ROOT
ATOM      1  N   UNL     1       0.026  -0.016   2.413  0.00  0.00    -0.206 N 
ATOM      2  H   UNL     1      -0.522   0.778   2.510  0.00  0.00    +0.175 HD
ENDROOT
BRANCH   1   9
ATOM      3  C   UNL     1       0.155   1.692   0.144  0.00  0.00    +0.047 C 
ATOM      4  C   UNL     1       0.260   0.194   0.022  0.00  0.00    -0.007 A 
ATOM      5  C   UNL     1       0.430  -0.392  -1.224  0.00  0.00    +0.029 A 
ATOM      6  C   UNL     1       0.526  -1.774  -1.333  0.00  0.00    +0.023 A 
ATOM      7  C   UNL     1       0.452  -2.565  -0.202  0.00  0.00    +0.004 A 
ATOM      8  C   UNL     1       0.282  -1.985   1.040  0.00  0.00    +0.025 A 
ATOM      9  C   UNL     1       0.191  -0.603   1.157  0.00  0.00    +0.054 A 
BRANCH   5  10
ATOM     10  N   UNL     1       0.505   0.406  -2.368  0.00  0.00    -0.358 N 
ATOM     11  H   UNL     1       0.437   1.370  -2.291  0.00  0.00    +0.142 HD
ATOM     12  H   UNL     1       0.624  -0.004  -3.239  0.00  0.00    +0.142 HD
ENDBRANCH   5  10
ENDBRANCH   1   9
BRANCH   1  13
ATOM     13  S   UNL     1       0.764  -0.678   3.740  0.00  0.00    +0.112 S 
ATOM     14  O   UNL     1       0.520   0.207   4.824  0.00  0.00    -0.138 OA
ATOM     15  O   UNL     1       0.387  -2.048   3.774  0.00  0.00    -0.138 OA
BRANCH  13  16
ATOM     16  N   UNL     1       2.396  -0.644   3.459  0.00  0.00    -0.164 NA
ATOM     17  C   UNL     1       3.186   0.520   3.870  0.00  0.00    +0.133 C 
BRANCH  16  18
ATOM     18  C   UNL     1       3.050  -1.777   2.800  0.00  0.00    +0.081 C 
ATOM     19  C   UNL     1       3.710  -1.301   1.504  0.00  0.00    +0.021 C 
ATOM     20  C   UNL     1       4.393  -2.484   0.816  0.00  0.00    +0.002 C 
ATOM     21  C   UNL     1       5.458  -3.070   1.745  0.00  0.00    +0.000 C 
ATOM     22  C   UNL     1       4.798  -3.546   3.041  0.00  0.00    +0.002 C 
ATOM     23  C   UNL     1       4.115  -2.362   3.729  0.00  0.00    +0.021 C 
ENDBRANCH  16  18
ENDBRANCH  13  16
ENDBRANCH   1  13
TORSDOF 5
