REMARK  Name = ZINC47927872
REMARK  6 active torsions:
REMARK  status: ('A' for Active; 'I' for Inactive)
REMARK    1  A    between atoms: C_1  and  C_2
REMARK    2  A    between atoms: C_5  and  N_23
REMARK    3  A    between atoms: C_7  and  N_8
REMARK    4  A    between atoms: N_11  and  C_12
REMARK    5  A    between atoms: C_12  and  C_14
REMARK    6  A    between atoms: C_12  and  C_15
REMARK                            x       y       z     vdW  Elec       q    Type
REMARK                         _______ _______ _______ _____ _____    ______ ____
ROOT
ATOM      1  N   UNL     1       0.025  -0.011   2.417  0.00  0.00    -0.269 N 
ATOM      2  C   UNL     1      -0.056  -0.689   3.579  0.00  0.00    +0.304 C 
ATOM      3  O   UNL     1      -0.040  -1.905   3.576  0.00  0.00    -0.252 OA
ATOM      4  N   UNL     1      -0.156  -0.019   4.745  0.00  0.00    -0.293 N 
ATOM      5  H   UNL     1       0.078   0.957   2.423  0.00  0.00    +0.156 HD
ATOM      6  H   UNL     1      -0.169   0.951   4.747  0.00  0.00    +0.151 HD
ENDROOT
BRANCH   1  13
ATOM      7  C   UNL     1      -1.264   1.184   0.182  0.00  0.00    +0.045 C 
ATOM      8  C   UNL     1      -0.584  -0.158   0.085  0.00  0.00    -0.029 A 
ATOM      9  C   UNL     1      -0.572  -0.839  -1.117  0.00  0.00    +0.007 A 
ATOM     10  C   UNL     1       0.051  -2.069  -1.210  0.00  0.00    +0.028 A 
ATOM     11  C   UNL     1       0.666  -2.624  -0.095  0.00  0.00    +0.071 A 
ATOM     12  C   UNL     1       0.655  -1.942   1.112  0.00  0.00    +0.051 A 
ATOM     13  C   UNL     1       0.033  -0.705   1.202  0.00  0.00    +0.040 A 
BRANCH  11  14
ATOM     14  N   UNL     1       1.298  -3.873  -0.191  0.00  0.00    -0.200 N 
ATOM     15  C   UNL     1       1.483  -4.615  -1.304  0.00  0.00    +0.250 A 
ATOM     16  N   UNL     1       2.113  -5.703  -0.945  0.00  0.00    -0.116 NA
ATOM     17  N   UNL     1       2.339  -5.699   0.320  0.00  0.00    -0.023 NA
ATOM     18  N   UNL     1       1.879  -4.618   0.851  0.00  0.00    -0.039 NA
ENDBRANCH  11  14
ENDBRANCH   1  13
BRANCH   4  19
ATOM     19  C   UNL     1      -0.245  -0.756   6.008  0.00  0.00    +0.102 C 
ATOM     20  C   UNL     1       1.163  -1.102   6.496  0.00  0.00    +0.033 C 
BRANCH  19  21
ATOM     21  C   UNL     1      -0.939   0.096   7.039  0.00  0.00    -0.025 A 
ATOM     22  C   UNL     1      -0.672   1.451   7.107  0.00  0.00    +0.008 A 
ATOM     23  C   UNL     1      -1.307   2.235   8.052  0.00  0.00    +0.041 A 
ATOM     24  C   UNL     1      -2.212   1.664   8.931  0.00  0.00    +0.158 A 
ATOM     25  C   UNL     1      -2.479   0.305   8.861  0.00  0.00    +0.159 A 
ATOM     26  C   UNL     1      -1.845  -0.476   7.911  0.00  0.00    +0.046 A 
ATOM     27  F   UNL     1      -3.361  -0.255   9.718  0.00  0.00    -0.202 F 
ATOM     28  F   UNL     1      -2.832   2.429   9.854  0.00  0.00    -0.202 F 
ENDBRANCH  19  21
ENDBRANCH   4  19
TORSDOF 4
