REMARK  Name = ZINC39684224
REMARK  7 active torsions:
REMARK  status: ('A' for Active; 'I' for Inactive)
REMARK    1  A    between atoms: C_1  and  C_2
REMARK    2  A    between atoms: C_7  and  C_11
REMARK    3  A    between atoms: C_11  and  C_12
REMARK    4  A    between atoms: C_12  and  N_13
REMARK    5  A    between atoms: C_14  and  C_16
REMARK    6  A    between atoms: C_27  and  C_29
REMARK    7  A    between atoms: C_32  and  C_34
REMARK                            x       y       z     vdW  Elec       q    Type
REMARK                         _______ _______ _______ _____ _____    ______ ____
ROOT
ATOM      1  C   UNL     1      -8.680   1.722  -6.216  0.00  0.00    +0.100 C 
ATOM      2  C   UNL     1      -8.192   2.852  -7.151  0.00  0.00    +0.121 C 
ATOM      3  N   UNL     1      -7.816   2.162  -8.407  0.00  0.00    -0.294 N 
ATOM      4  C   UNL     1      -8.858   1.122  -8.584  0.00  0.00    +0.115 C 
ATOM      5  C   UNL     1      -9.119   0.591  -7.161  0.00  0.00    -0.004 C 
ATOM      6  C   UNL     1     -10.604   0.292  -6.973  0.00  0.00    -0.010 C 
ATOM      7  C   UNL     1     -11.003  -0.876  -7.880  0.00  0.00    -0.082 C 
ATOM      8  N   UNL     1     -10.200  -2.057  -7.543  0.00  0.00    +0.379 N 
ATOM      9  C   UNL     1      -8.782  -1.792  -7.815  0.00  0.00    -0.082 C 
ATOM     10  C   UNL     1      -8.288  -0.663  -6.905  0.00  0.00    -0.010 C 
ATOM     11  C   UNL     1      -6.763   2.421  -9.208  0.00  0.00    +0.282 C 
ATOM     12  O   UNL     1      -6.588   1.760 -10.215  0.00  0.00    -0.267 OA
ATOM     13  H   UNL     1     -10.318  -2.275  -6.565  0.00  0.00    -0.086 HD
ATOM     14  H   UNL     1     -10.507  -2.841  -8.100  0.00  0.00    -0.086 HD
ENDROOT
BRANCH  11  15
ATOM     15  C   UNL     1      -5.831   3.499  -8.868  0.00  0.00    +0.190 A 
ATOM     16  C   UNL     1      -4.724   3.872  -9.598  0.00  0.00    +0.055 A 
ATOM     17  C   UNL     1      -4.128   4.935  -8.912  0.00  0.00    +0.050 A 
ATOM     18  C   UNL     1      -4.884   5.170  -7.800  0.00  0.00    +0.136 A 
ATOM     19  O   UNL     1      -5.911   4.303  -7.787  0.00  0.00    -0.450 OA
BRANCH  18  20
ATOM     20  C   UNL     1      -4.622   6.209  -6.784  0.00  0.00    +0.017 A 
ATOM     21  C   UNL     1      -3.522   7.059  -6.919  0.00  0.00    +0.014 A 
ATOM     22  C   UNL     1      -3.281   8.027  -5.968  0.00  0.00    +0.039 A 
ATOM     23  C   UNL     1      -4.129   8.158  -4.878  0.00  0.00    +0.123 A 
ATOM     24  C   UNL     1      -5.221   7.317  -4.739  0.00  0.00    +0.039 A 
ATOM     25  C   UNL     1      -5.475   6.348  -5.687  0.00  0.00    +0.014 A 
ATOM     26  F   UNL     1      -3.888   9.109  -3.949  0.00  0.00    -0.205 F 
ENDBRANCH  18  20
ENDBRANCH  11  15
BRANCH   1  28
ATOM     27  N   UNL     1      -7.830   0.740  -4.111  0.00  0.00    -0.315 N 
ATOM     28  C   UNL     1      -7.557   1.256  -5.326  0.00  0.00    +0.218 C 
ATOM     29  O   UNL     1      -6.408   1.347  -5.702  0.00  0.00    -0.275 OA
ATOM     30  H   UNL     1      -8.750   0.667  -3.811  0.00  0.00    +0.149 HD
BRANCH  27  31
ATOM     31  C   UNL     1      -6.739   0.287  -3.246  0.00  0.00    +0.109 C 
BRANCH  31  32
ATOM     32  C   UNL     1      -7.317  -0.252  -1.936  0.00  0.00    +0.056 C 
BRANCH  32  39
ATOM     33  C   UNL     1      -2.588  -1.158   2.082  0.00  0.00    +0.046 C 
ATOM     34  C   UNL     1      -3.585  -0.245   1.415  0.00  0.00    -0.027 A 
ATOM     35  C   UNL     1      -3.611   1.096   1.728  0.00  0.00    +0.005 A 
ATOM     36  C   UNL     1      -4.525   1.947   1.121  0.00  0.00    +0.001 A 
ATOM     37  C   UNL     1      -5.415   1.468   0.202  0.00  0.00    +0.010 A 
ATOM     38  C   UNL     1      -5.406   0.112  -0.130  0.00  0.00    +0.003 A 
ATOM     39  C   UNL     1      -6.194  -0.718  -1.045  0.00  0.00    -0.021 A 
ATOM     40  C   UNL     1      -5.726  -1.971  -0.939  0.00  0.00    +0.087 A 
ATOM     41  N   UNL     1      -4.703  -2.013  -0.032  0.00  0.00    -0.360 N 
ATOM     42  C   UNL     1      -4.479  -0.754   0.478  0.00  0.00    +0.050 A 
ATOM     43  H   UNL     1      -4.208  -2.810   0.214  0.00  0.00    +0.165 HD
ENDBRANCH  32  39
ENDBRANCH  31  32
ENDBRANCH  27  31
ENDBRANCH   1  28
TORSDOF 6
