REMARK  Name = ZINC08869302
REMARK  6 active torsions:
REMARK  status: ('A' for Active; 'I' for Inactive)
REMARK    1  A    between atoms: C_1  and  C_2
REMARK    2  A    between atoms: C_5  and  S_8
REMARK    3  A    between atoms: S_8  and  N_11
REMARK    4  A    between atoms: C_15  and  C_17
REMARK    5  A    between atoms: N_19  and  C_20
REMARK    6  A    between atoms: C_21  and  C_28
REMARK                            x       y       z     vdW  Elec       q    Type
REMARK                         _______ _______ _______ _____ _____    ______ ____
ROOT
ATOM      1  C   UNL     1       1.147   1.655   0.000  0.00  0.00    +0.236 C 
ATOM      2  O   UNL     1       1.130   2.868   0.007  0.00  0.00    -0.274 OA
ATOM      3  N   UNL     1      -0.011   0.966   0.007  0.00  0.00    -0.278 N 
ATOM      4  H   UNL     1       0.002  -0.004   0.002  0.00  0.00    +0.155 HD
ENDROOT
BRANCH   3   5
ATOM      5  C   UNL     1      -1.221   1.643   0.017  0.00  0.00    +0.084 A 
ATOM      6  C   UNL     1      -2.502   1.116   0.014  0.00  0.00    +0.068 A 
ATOM      7  C   UNL     1      -3.621   2.057   0.030  0.00  0.00    -0.023 A 
ATOM      8  C   UNL     1      -3.274   3.357   0.036  0.00  0.00    -0.004 A 
ATOM      9  S   UNL     1      -1.498   3.351   0.027  0.00  0.00    -0.077 S 
ATOM     10  C   UNL     1      -4.476   4.262   0.049  0.00  0.00    +0.043 C 
ATOM     11  C   UNL     1      -5.644   3.350   0.488  0.00  0.00    +0.010 C 
ATOM     12  C   UNL     1      -5.147   1.963   0.035  0.00  0.00    +0.037 C 
BRANCH   6  13
ATOM     13  C   UNL     1      -2.727  -0.332   0.001  0.00  0.00    +0.244 C 
ATOM     14  O   UNL     1      -2.819  -0.944   1.049  0.00  0.00    -0.270 OA
ATOM     15  N   UNL     1      -2.833  -0.987  -1.173  0.00  0.00    -0.325 N 
ATOM     16  H   UNL     1      -2.760  -0.499  -2.009  0.00  0.00    +0.145 HD
ATOM     17  H   UNL     1      -2.982  -1.945  -1.182  0.00  0.00    +0.145 HD
ENDBRANCH   6  13
ENDBRANCH   3   5
BRANCH   1  22
ATOM     18  N   UNL     1       3.573   1.882  -0.030  0.00  0.00    -0.165 NA
ATOM     19  C   UNL     1       4.379   1.657  -1.243  0.00  0.00    +0.110 C 
ATOM     20  C   UNL     1       3.410   0.980  -2.244  0.00  0.00    +0.019 C 
ATOM     21  C   UNL     1       2.572   0.070  -1.300  0.00  0.00    +0.031 C 
ATOM     22  C   UNL     1       2.462   0.920  -0.017  0.00  0.00    +0.166 C 
BRANCH  18  23
ATOM     23  S   UNL     1       3.870   3.030   1.127  0.00  0.00    +0.062 S 
ATOM     24  O   UNL     1       4.627   4.055   0.497  0.00  0.00    -0.153 OA
ATOM     25  O   UNL     1       2.630   3.286   1.772  0.00  0.00    -0.153 OA
BRANCH  23  30
ATOM     26  C   UNL     1       7.476   0.513   5.258  0.00  0.00    +0.044 C 
ATOM     27  C   UNL     1       6.575   1.141   4.226  0.00  0.00    -0.050 A 
ATOM     28  C   UNL     1       7.122   1.799   3.140  0.00  0.00    +0.005 A 
ATOM     29  C   UNL     1       6.295   2.376   2.193  0.00  0.00    +0.029 A 
ATOM     30  C   UNL     1       4.923   2.295   2.333  0.00  0.00    +0.106 A 
ATOM     31  C   UNL     1       4.376   1.641   3.422  0.00  0.00    +0.029 A 
ATOM     32  C   UNL     1       5.202   1.060   4.365  0.00  0.00    +0.005 A 
ENDBRANCH  23  30
ENDBRANCH  18  23
ENDBRANCH   1  22
TORSDOF 5
