REMARK  Name = ZINC12813559
REMARK  4 active torsions:
REMARK  status: ('A' for Active; 'I' for Inactive)
REMARK    1  A    between atoms: C_7  and  N_12
REMARK    2  A    between atoms: N_12  and  S_13
REMARK    3  A    between atoms: S_13  and  C_16
REMARK    4  A    between atoms: C_20  and  C_22
REMARK                            x       y       z     vdW  Elec       q    Type
REMARK                         _______ _______ _______ _____ _____    ______ ____
ROOT
ATOM      1  N   UNL     1      -3.118   4.686  -1.478  0.00  0.00    -0.183 NA
ATOM      2  H   UNL     1      -2.420   5.332  -1.665  0.00  0.00    +0.149 HD
ENDROOT
BRANCH   1   9
ATOM      3  C   UNL     1       0.244   2.775  -2.692  0.00  0.00    +0.000 A 
ATOM      4  C   UNL     1       0.382   2.343  -3.998  0.00  0.00    +0.001 A 
ATOM      5  C   UNL     1      -0.718   2.329  -4.828  0.00  0.00    +0.015 A 
ATOM      6  C   UNL     1      -1.964   2.749  -4.361  0.00  0.00    +0.013 A 
ATOM      7  C   UNL     1      -2.108   3.168  -3.051  0.00  0.00    -0.015 A 
ATOM      8  C   UNL     1      -0.987   3.182  -2.225  0.00  0.00    +0.006 A 
ATOM      9  C   UNL     1      -3.401   3.615  -2.437  0.00  0.00    +0.108 C 
ATOM     10  C   UNL     1      -4.415   4.123  -3.446  0.00  0.00    +0.036 C 
ATOM     11  C   UNL     1      -4.763   2.989  -4.422  0.00  0.00    +0.076 C 
ATOM     12  S   UNL     1      -3.317   2.742  -5.495  0.00  0.00    -0.125 S 
ENDBRANCH   1   9
BRANCH   1  13
ATOM     13  S   UNL     1      -3.991   4.792  -0.074  0.00  0.00    +0.059 S 
ATOM     14  O   UNL     1      -5.362   4.739  -0.443  0.00  0.00    -0.153 OA
ATOM     15  O   UNL     1      -3.442   5.875   0.664  0.00  0.00    -0.153 OA
BRANCH  13  16
ATOM     16  C   UNL     1      -3.662   3.332   0.855  0.00  0.00    +0.106 A 
ATOM     17  C   UNL     1      -2.545   3.268   1.669  0.00  0.00    +0.028 A 
ATOM     18  C   UNL     1      -2.279   2.125   2.402  0.00  0.00    +0.003 A 
ATOM     19  C   UNL     1      -3.129   1.040   2.326  0.00  0.00    +0.019 A 
ATOM     20  C   UNL     1      -4.258   1.098   1.507  0.00  0.00    +0.054 A 
ATOM     21  C   UNL     1      -4.517   2.253   0.766  0.00  0.00    +0.047 A 
BRANCH  20  22
ATOM     22  C   UNL     1      -5.144  -0.024   1.423  0.00  0.00    +0.099 C 
ATOM     23  N   UNL     1      -5.846  -0.914   1.357  0.00  0.00    -0.191 NA
ENDBRANCH  20  22
ENDBRANCH  13  16
ENDBRANCH   1  13
TORSDOF 4
