REMARK  Name = ZINC08410137
REMARK  9 active torsions:
REMARK  status: ('A' for Active; 'I' for Inactive)
REMARK    1  A    between atoms: C_1  and  O_2
REMARK    2  A    between atoms: O_2  and  C_3
REMARK    3  A    between atoms: C_5  and  C_12
REMARK    4  A    between atoms: C_7  and  O_10
REMARK    5  A    between atoms: C_8  and  O_9
REMARK    6  A    between atoms: O_10  and  C_11
REMARK    7  A    between atoms: C_15  and  C_26
REMARK    8  A    between atoms: C_21  and  N_25
REMARK    9  A    between atoms: C_22  and  C_23
REMARK                            x       y       z     vdW  Elec       q    Type
REMARK                         _______ _______ _______ _____ _____    ______ ____
ROOT
ATOM      1  C   UNL     1       2.402   0.386  -4.230  0.00  0.00    +0.102 C 
ATOM      2  C   UNL     1       3.872   0.075  -4.344  0.00  0.00    +0.054 A 
ATOM      3  C   UNL     1       4.917   0.415  -3.480  0.00  0.00    +0.100 A 
ATOM      4  N   UNL     1       6.035  -0.073  -3.984  0.00  0.00    -0.171 NA
ATOM      5  N   UNL     1       5.728  -0.735  -5.183  0.00  0.00    -0.246 N 
ATOM      6  H   UNL     1       6.360  -1.187  -5.763  0.00  0.00    +0.192 HD
ATOM      7  C   UNL     1       4.397  -0.633  -5.386  0.00  0.00    +0.223 A 
ATOM      8  O   UNL     1       3.639  -1.109  -6.404  0.00  0.00    -0.423 OA
ATOM      9  C   UNL     1       2.380  -0.640  -6.518  0.00  0.00    +0.200 C 
ATOM     10  C   UNL     1       1.748   0.062  -5.550  0.00  0.00    +0.098 C 
ENDROOT
BRANCH   3  11
ATOM     11  C   UNL     1       4.792   1.187  -2.219  0.00  0.00    +0.006 A 
ATOM     12  C   UNL     1       3.853   2.212  -2.119  0.00  0.00    +0.014 A 
ATOM     13  C   UNL     1       3.737   2.930  -0.946  0.00  0.00    +0.050 A 
ATOM     14  C   UNL     1       4.553   2.635   0.135  0.00  0.00    +0.166 A 
ATOM     15  C   UNL     1       5.494   1.611   0.041  0.00  0.00    +0.167 A 
ATOM     16  C   UNL     1       5.609   0.885  -1.132  0.00  0.00    +0.059 A 
ATOM     17  O   UNL     1       6.162   1.521   1.228  0.00  0.00    -0.453 OA
ATOM     18  C   UNL     1       5.905   2.764   1.908  0.00  0.00    +0.466 C 
ATOM     19  O   UNL     1       4.633   3.186   1.382  0.00  0.00    -0.453 OA
ENDBRANCH   3  11
BRANCH   1  22
ATOM     20  C   UNL     1       0.606  -0.608  -1.056  0.00  0.00    +0.165 A 
ATOM     21  C   UNL     1       1.173   0.160  -2.063  0.00  0.00    +0.054 A 
ATOM     22  C   UNL     1       1.787  -0.452  -3.139  0.00  0.00    -0.027 A 
ATOM     23  C   UNL     1       1.839  -1.831  -3.217  0.00  0.00    +0.054 A 
ATOM     24  C   UNL     1       1.275  -2.606  -2.215  0.00  0.00    +0.165 A 
ATOM     25  C   UNL     1       0.661  -1.994  -1.128  0.00  0.00    +0.201 A 
BRANCH  20  27
ATOM     26  C   UNL     1      -0.017   1.425   0.010  0.00  0.00    +0.277 C 
ATOM     27  O   UNL     1       0.002  -0.004   0.002  0.00  0.00    -0.491 OA
ENDBRANCH  20  27
BRANCH  25  28
ATOM     28  O   UNL     1       0.111  -2.751  -0.140  0.00  0.00    -0.501 OA
ATOM     29  H   UNL     1      -0.817  -2.978  -0.289  0.00  0.00    +0.292 HD
ENDBRANCH  25  28
BRANCH  24  30
ATOM     30  O   UNL     1       1.326  -3.963  -2.293  0.00  0.00    -0.491 OA
ATOM     31  C   UNL     1       1.977  -4.523  -3.435  0.00  0.00    +0.277 C 
ENDBRANCH  24  30
ENDBRANCH   1  22
BRANCH   9  32
ATOM     32  N   UNL     1       1.700  -0.888  -7.685  0.00  0.00    -0.328 N 
ATOM     33  H   UNL     1       2.127  -1.389  -8.397  0.00  0.00    +0.145 HD
ATOM     34  H   UNL     1       0.793  -0.564  -7.796  0.00  0.00    +0.145 HD
ENDBRANCH   9  32
BRANCH  10  35
ATOM     35  C   UNL     1       0.409   0.513  -5.786  0.00  0.00    +0.101 C 
ATOM     36  N   UNL     1      -0.652   0.872  -5.973  0.00  0.00    -0.191 NA
ENDBRANCH  10  35
TORSDOF 7
