REMARK  Name = ZINC54074079
REMARK  5 active torsions:
REMARK  status: ('A' for Active; 'I' for Inactive)
REMARK    1  A    between atoms: C_1  and  C_2
REMARK    2  A    between atoms: C_2  and  C_4
REMARK    3  A    between atoms: C_2  and  N_20
REMARK    4  A    between atoms: N_6  and  C_7
REMARK    5  A    between atoms: N_20  and  C_21
REMARK                            x       y       z     vdW  Elec       q    Type
REMARK                         _______ _______ _______ _____ _____    ______ ____
ROOT
ATOM      1  C   UNL     1       2.665  -0.537   2.611  0.00  0.00    +0.049 A 
ATOM      2  C   UNL     1       1.923  -0.778   3.758  0.00  0.00    +0.052 A 
ATOM      3  C   UNL     1       2.565  -1.150   4.928  0.00  0.00    +0.069 A 
ATOM      4  C   UNL     1       3.956  -1.281   4.949  0.00  0.00    +0.068 A 
ATOM      5  C   UNL     1       4.692  -1.039   3.800  0.00  0.00    +0.045 A 
ATOM      6  C   UNL     1       4.049  -0.674   2.633  0.00  0.00    +0.041 A 
ATOM      7 BR   UNL     1       5.053  -0.353   1.063  0.00  0.00    -0.048 Br
ATOM      8  N   UNL     1       4.304  -1.660   6.245  0.00  0.00    -0.306 N 
ATOM      9  H   UNL     1       5.205  -1.827   6.565  0.00  0.00    +0.170 HD
ATOM     10  C   UNL     1       3.178  -1.754   6.976  0.00  0.00    +0.325 A 
ATOM     11  O   UNL     1       3.130  -2.065   8.152  0.00  0.00    -0.247 OA
ATOM     12  N   UNL     1       2.113  -1.453   6.210  0.00  0.00    -0.306 N 
ATOM     13  H   UNL     1       1.188  -1.447   6.502  0.00  0.00    +0.170 HD
ENDROOT
BRANCH   1  16
ATOM     14  C   UNL     1       0.730  -0.501   1.224  0.00  0.00    +0.203 C 
ATOM     15  O   UNL     1       0.160  -1.216   2.021  0.00  0.00    -0.277 OA
ATOM     16  N   UNL     1       2.019  -0.161   1.426  0.00  0.00    -0.286 N 
ATOM     17  H   UNL     1       2.499   0.343   0.750  0.00  0.00    +0.155 HD
BRANCH  14  19
ATOM     18  C   UNL     1      -0.022   1.538   0.029  0.00  0.00    -0.004 C 
ATOM     19  C   UNL     1      -0.002   0.008   0.009  0.00  0.00    +0.013 C 
BRANCH  19  20
ATOM     20  N   UNL     1      -1.381  -0.499   0.020  0.00  0.00    +0.385 N 
ATOM     21  C   UNL     1      -2.058  -0.103  -1.222  0.00  0.00    -0.099 C 
ATOM     22  H   UNL     1      -1.368  -1.506   0.090  0.00  0.00    -0.085 HD
ATOM     23  H   UNL     1      -1.875  -0.114   0.811  0.00  0.00    -0.085 HD
ENDBRANCH  19  20
ENDBRANCH  14  19
ENDBRANCH   1  16
TORSDOF 3
