REMARK  Name = ZINC34677886
REMARK  13 active torsions:
REMARK  status: ('A' for Active; 'I' for Inactive)
REMARK    1  A    between atoms: C_1  and  C_2
REMARK    2  A    between atoms: C_2  and  N_3
REMARK    3  A    between atoms: N_3  and  C_4
REMARK    4  A    between atoms: C_4  and  C_5
REMARK    5  A    between atoms: C_6  and  C_8
REMARK    6  A    between atoms: C_15  and  C_17
REMARK    7  A    between atoms: C_20  and  C_22
REMARK    8  A    between atoms: C_22  and  N_23
REMARK    9  A    between atoms: N_26  and  C_29
REMARK   10  A    between atoms: C_29  and  C_30
REMARK   11  A    between atoms: C_30  and  C_31
REMARK   12  A    between atoms: C_30  and  C_32
REMARK   13  A    between atoms: C_30  and  O_34
REMARK                            x       y       z     vdW  Elec       q    Type
REMARK                         _______ _______ _______ _____ _____    ______ ____
ROOT
ATOM      1  C   UNL     1       0.932  -0.198   4.237  0.00  0.00    +0.164 A 
ATOM      2  C   UNL     1       1.933   0.657   4.583  0.00  0.00    +0.230 A 
ATOM      3  O   UNL     1       2.393   0.256   5.779  0.00  0.00    -0.449 OA
ATOM      4  C   UNL     1       1.691  -0.821   6.159  0.00  0.00    +0.179 A 
ATOM      5  N   UNL     1       0.809  -1.101   5.247  0.00  0.00    -0.210 NA
ENDROOT
BRANCH   1  12
ATOM      6  C   UNL     1      -1.772  -2.466   1.134  0.00  0.00    +0.092 C 
ATOM      7  C   UNL     1      -2.383  -3.314   2.252  0.00  0.00    +0.016 C 
ATOM      8  C   UNL     1      -1.484  -3.253   3.489  0.00  0.00    +0.020 C 
ATOM      9  C   UNL     1      -1.391  -1.804   3.977  0.00  0.00    +0.108 C 
ATOM     10  N   UNL     1      -0.942  -0.958   2.863  0.00  0.00    -0.295 N 
ATOM     11  C   UNL     1      -1.682  -1.008   1.594  0.00  0.00    +0.121 C 
ATOM     12  C   UNL     1       0.128  -0.150   3.002  0.00  0.00    +0.268 C 
ATOM     13  O   UNL     1       0.431   0.617   2.108  0.00  0.00    -0.268 OA
BRANCH   6  15
ATOM     14  N   UNL     1      -2.105  -2.352  -1.315  0.00  0.00    -0.302 N 
ATOM     15  C   UNL     1      -2.641  -2.553  -0.095  0.00  0.00    +0.220 C 
ATOM     16  O   UNL     1      -3.822  -2.804   0.015  0.00  0.00    -0.275 OA
BRANCH  14  18
ATOM     17  C   UNL     1      -2.877  -4.039  -2.908  0.00  0.00    +0.024 C 
ATOM     18  C   UNL     1      -2.918  -2.561  -2.515  0.00  0.00    +0.104 C 
ENDBRANCH  14  18
BRANCH  14  19
ATOM     19  C   UNL     1      -0.709  -1.924  -1.440  0.00  0.00    +0.104 C 
ATOM     20  C   UNL     1      -0.658  -0.413  -1.677  0.00  0.00    +0.024 C 
ENDBRANCH  14  19
ENDBRANCH   6  15
ENDBRANCH   1  12
BRANCH   4  21
ATOM     21  C   UNL     1       1.890  -1.583   7.444  0.00  0.00    +0.019 C 
BRANCH  21  22
ATOM     22  N   UNL     1       2.874  -2.652   7.231  0.00  0.00    +0.387 N 
ATOM     23  C   UNL     1       2.336  -3.630   6.277  0.00  0.00    -0.063 C 
ATOM     24  C   UNL     1       3.369  -4.734   6.041  0.00  0.00    +0.066 C 
ATOM     25  N   UNL     1       3.680  -5.391   7.318  0.00  0.00    -0.303 NA
ATOM     26  C   UNL     1       4.197  -4.420   8.293  0.00  0.00    +0.066 C 
ATOM     27  C   UNL     1       3.157  -3.318   8.510  0.00  0.00    -0.063 C 
ATOM     28  H   UNL     1       3.726  -2.256   6.863  0.00  0.00    -0.081 HD
BRANCH  25  29
ATOM     29  C   UNL     1       4.627  -6.497   7.125  0.00  0.00    +0.123 C 
BRANCH  29  30
ATOM     30  C   UNL     1       4.562  -7.441   8.327  0.00  0.00    +0.094 C 
ATOM     31  C   UNL     1       3.111  -7.864   8.565  0.00  0.00    +0.047 C 
BRANCH  30  32
ATOM     32  C   UNL     1       5.403  -8.661   8.054  0.00  0.00    +0.000 C 
ATOM     33  C   UNL     1       6.411  -8.951   8.839  0.00  0.00    +0.007 C 
ENDBRANCH  30  32
BRANCH  30  34
ATOM     34  O   UNL     1       5.059  -6.770   9.487  0.00  0.00    -0.384 OA
ATOM     35  H   UNL     1       5.976  -6.473   9.407  0.00  0.00    +0.211 HD
ENDBRANCH  30  34
ENDBRANCH  29  30
ENDBRANCH  25  29
ENDBRANCH  21  22
ENDBRANCH   4  21
TORSDOF 10
