REMARK  Name = ZINC11816343
REMARK  6 active torsions:
REMARK  status: ('A' for Active; 'I' for Inactive)
REMARK    1  A    between atoms: C_1  and  C_2
REMARK    2  A    between atoms: C_5  and  C_11
REMARK    3  A    between atoms: C_16  and  C_19
REMARK    4  A    between atoms: C_16  and  C_27
REMARK    5  A    between atoms: C_19  and  C_20
REMARK    6  A    between atoms: C_27  and  O_28
REMARK                            x       y       z     vdW  Elec       q    Type
REMARK                         _______ _______ _______ _____ _____    ______ ____
ROOT
ATOM      1  C   UNL     1      -2.468   5.548   2.286  0.00  0.00    +0.236 C 
ATOM      2  O   UNL     1      -2.622   6.747   2.395  0.00  0.00    -0.274 OA
ATOM      3  N   UNL     1      -1.366   5.062   1.681  0.00  0.00    -0.300 N 
ATOM      4  C   UNL     1      -0.342   5.971   1.149  0.00  0.00    +0.108 C 
ATOM      5  C   UNL     1       1.018   5.577   1.733  0.00  0.00    +0.028 C 
ATOM      6  C   UNL     1       1.282   4.097   1.448  0.00  0.00    +0.001 C 
ATOM      7  C   UNL     1       0.203   3.246   2.121  0.00  0.00    +0.028 C 
ATOM      8  C   UNL     1      -1.167   3.613   1.541  0.00  0.00    +0.108 C 
ENDROOT
BRANCH   1  12
ATOM      9  C   UNL     1      -4.918   1.995   2.906  0.00  0.00    +0.028 C 
ATOM     10  C   UNL     1      -5.521   3.249   2.270  0.00  0.00    +0.071 C 
ATOM     11  C   UNL     1      -4.402   4.114   1.681  0.00  0.00    +0.053 C 
ATOM     12  C   UNL     1      -3.510   4.603   2.827  0.00  0.00    +0.160 C 
ATOM     13  N   UNL     1      -4.336   5.299   3.815  0.00  0.00    -0.315 N 
ATOM     14  C   UNL     1      -5.625   4.978   3.998  0.00  0.00    +0.131 C 
ATOM     15  S   UNL     1      -6.524   5.826   5.182  0.00  0.00    -0.019 S 
ATOM     16  N   UNL     1      -6.238   4.018   3.288  0.00  0.00    -0.324 N 
ATOM     17  H   UNL     1      -3.942   6.007   4.349  0.00  0.00    +0.148 HD
ATOM     18  H   UNL     1      -7.175   3.830   3.454  0.00  0.00    +0.148 HD
ENDBRANCH   1  12
BRANCH   6  19
ATOM     19  C   UNL     1       1.254   3.855  -0.062  0.00  0.00    +0.045 C 
BRANCH  19  20
ATOM     20  C   UNL     1       1.651   2.431  -0.351  0.00  0.00    -0.028 A 
ATOM     21  C   UNL     1       0.716   1.418  -0.249  0.00  0.00    +0.005 A 
ATOM     22  C   UNL     1       1.081   0.111  -0.514  0.00  0.00    +0.000 A 
ATOM     23  C   UNL     1       2.381  -0.184  -0.882  0.00  0.00    +0.001 A 
ATOM     24  C   UNL     1       3.316   0.828  -0.984  0.00  0.00    +0.020 A 
ATOM     25  C   UNL     1       2.952   2.136  -0.719  0.00  0.00    +0.044 A 
ATOM     26 CL   UNL     1       4.127   3.408  -0.847  0.00  0.00    -0.083 Cl
ENDBRANCH  19  20
ENDBRANCH   6  19
BRANCH   6  27
ATOM     27  C   UNL     1       2.655   3.708   2.001  0.00  0.00    +0.163 C 
BRANCH  27  28
ATOM     28  O   UNL     1       2.838   2.297   1.872  0.00  0.00    -0.394 OA
ATOM     29  H   UNL     1       3.689   1.979   2.203  0.00  0.00    +0.209 HD
ENDBRANCH  27  28
ENDBRANCH   6  27
TORSDOF 5
