REMARK  Name = ZINC02915377
REMARK  8 active torsions:
REMARK  status: ('A' for Active; 'I' for Inactive)
REMARK    1  A    between atoms: C_1  and  O_2
REMARK    2  A    between atoms: O_2  and  C_3
REMARK    3  A    between atoms: C_6  and  C_9
REMARK    4  A    between atoms: C_11  and  C_19
REMARK    5  A    between atoms: C_22  and  O_27
REMARK    6  A    between atoms: C_24  and  O_25
REMARK    7  A    between atoms: O_25  and  C_26
REMARK    8  A    between atoms: O_27  and  C_28
REMARK                            x       y       z     vdW  Elec       q    Type
REMARK                         _______ _______ _______ _____ _____    ______ ____
ROOT
ATOM      1  C   UNL     1       2.494  -2.494  -4.367  0.00  0.00    +0.073 C 
ATOM      2  C   UNL     1       2.526  -3.839  -4.421  0.00  0.00    +0.030 C 
ATOM      3  C   UNL     1       3.209  -4.476  -5.619  0.00  0.00    +0.157 C 
ATOM      4  N   UNL     1       3.771  -3.553  -6.608  0.00  0.00    -0.191 N 
ATOM      5  C   UNL     1       3.650  -2.192  -6.397  0.00  0.00    +0.258 C 
ATOM      6  N   UNL     1       3.041  -1.723  -5.340  0.00  0.00    -0.212 NA
ATOM      7  N   UNL     1       4.257  -1.605  -7.464  0.00  0.00    -0.094 NA
ATOM      8  N   UNL     1       4.710  -2.509  -8.258  0.00  0.00    -0.060 NA
ATOM      9  N   UNL     1       4.458  -3.693  -7.815  0.00  0.00    -0.163 N 
ATOM     10  H   UNL     1       4.702  -4.529  -8.242  0.00  0.00    +0.195 HD
ENDROOT
BRANCH   1  14
ATOM     11  C   UNL     1       0.606  -0.607  -1.055  0.00  0.00    +0.120 A 
ATOM     12  C   UNL     1       1.172   0.164  -2.062  0.00  0.00    +0.046 A 
ATOM     13  C   UNL     1       1.785  -0.445  -3.136  0.00  0.00    +0.013 A 
ATOM     14  C   UNL     1       1.836  -1.836  -3.212  0.00  0.00    +0.000 A 
ATOM     15  C   UNL     1       1.266  -2.607  -2.200  0.00  0.00    +0.013 A 
ATOM     16  C   UNL     1       0.659  -1.993  -1.125  0.00  0.00    +0.046 A 
BRANCH  11  18
ATOM     17  C   UNL     1      -0.017   1.425   0.010  0.00  0.00    +0.277 C 
ATOM     18  O   UNL     1       0.002  -0.004   0.002  0.00  0.00    -0.495 OA
ENDBRANCH  11  18
ENDBRANCH   1  14
BRANCH   3  19
ATOM     19  C   UNL     1       4.325  -5.351  -5.112  0.00  0.00    +0.020 A 
ATOM     20  C   UNL     1       5.612  -4.854  -5.035  0.00  0.00    +0.013 A 
ATOM     21  C   UNL     1       6.638  -5.654  -4.571  0.00  0.00    +0.046 A 
ATOM     22  C   UNL     1       6.378  -6.961  -4.181  0.00  0.00    +0.124 A 
ATOM     23  C   UNL     1       5.089  -7.462  -4.258  0.00  0.00    +0.091 A 
ATOM     24  C   UNL     1       4.060  -6.655  -4.719  0.00  0.00    +0.129 A 
BRANCH  24  25
ATOM     25  O   UNL     1       2.793  -7.142  -4.790  0.00  0.00    -0.495 OA
ATOM     26  C   UNL     1       2.593  -8.493  -4.368  0.00  0.00    +0.277 C 
ENDBRANCH  24  25
BRANCH  22  27
ATOM     27  O   UNL     1       7.388  -7.748  -3.725  0.00  0.00    -0.495 OA
ATOM     28  C   UNL     1       8.692  -7.165  -3.673  0.00  0.00    +0.277 C 
ENDBRANCH  22  27
ENDBRANCH   3  19
TORSDOF 5
