REMARK  Name = ZINC39558806
REMARK  8 active torsions:
REMARK  status: ('A' for Active; 'I' for Inactive)
REMARK    1  A    between atoms: C_1  and  C_2
REMARK    2  A    between atoms: C_5  and  S_8
REMARK    3  A    between atoms: S_8  and  C_9
REMARK    4  A    between atoms: C_9  and  C_10
REMARK    5  A    between atoms: C_10  and  C_11
REMARK    6  A    between atoms: N_13  and  C_14
REMARK    7  A    between atoms: C_14  and  C_15
REMARK    8  A    between atoms: N_17  and  C_18
REMARK                            x       y       z     vdW  Elec       q    Type
REMARK                         _______ _______ _______ _____ _____    ______ ____
ROOT
ATOM      1  C   UNL     1       0.158 -10.037   5.252  0.00  0.00    +0.234 C 
ATOM      2  O   UNL     1       0.153 -10.736   4.260  0.00  0.00    -0.274 OA
ATOM      3  N   UNL     1       0.173 -10.604   6.475  0.00  0.00    -0.284 N 
ATOM      4  H   UNL     1       0.245 -10.047   7.266  0.00  0.00    +0.155 HD
ENDROOT
BRANCH   3   5
ATOM      5  C   UNL     1       0.086 -11.996   6.603  0.00  0.00    +0.036 A 
ATOM      6  C   UNL     1      -0.604 -12.552   7.674  0.00  0.00    +0.025 A 
ATOM      7  C   UNL     1      -0.693 -13.923   7.806  0.00  0.00    +0.029 A 
ATOM      8  C   UNL     1      -0.093 -14.749   6.868  0.00  0.00    +0.067 A 
ATOM      9  C   UNL     1       0.601 -14.194   5.791  0.00  0.00    +0.069 A 
ATOM     10  C   UNL     1       0.684 -12.817   5.658  0.00  0.00    +0.051 A 
ATOM     11  N   UNL     1       1.084 -15.257   5.032  0.00  0.00    -0.306 N 
ATOM     12  H   UNL     1       1.607 -15.182   4.218  0.00  0.00    +0.170 HD
ATOM     13  C   UNL     1       0.703 -16.407   5.620  0.00  0.00    +0.325 A 
ATOM     14  O   UNL     1       0.962 -17.523   5.210  0.00  0.00    -0.247 OA
ATOM     15  N   UNL     1      -0.009 -16.135   6.729  0.00  0.00    -0.306 N 
ATOM     16  H   UNL     1      -0.397 -16.790   7.330  0.00  0.00    +0.170 HD
ENDBRANCH   3   5
BRANCH   1  17
ATOM     17  C   UNL     1       0.147  -8.537   5.117  0.00  0.00    +0.200 C 
BRANCH  17  20
ATOM     18  C   UNL     1       0.118  -6.877   3.333  0.00  0.00    +0.214 C 
ATOM     19  O   UNL     1       0.121  -6.009   4.180  0.00  0.00    -0.276 OA
ATOM     20  N   UNL     1       0.130  -8.174   3.697  0.00  0.00    -0.307 N 
ATOM     21  H   UNL     1       0.128  -8.868   3.019  0.00  0.00    +0.149 HD
BRANCH  18  22
ATOM     22  C   UNL     1       0.101  -6.504   1.873  0.00  0.00    +0.107 C 
BRANCH  22  23
ATOM     23  C   UNL     1       0.090  -4.980   1.735  0.00  0.00    +0.083 C 
BRANCH  23  24
ATOM     24  S   UNL     1       0.070  -4.532  -0.022  0.00  0.00    -0.125 S 
BRANCH  24  29
ATOM     25  C   UNL     1       0.028   1.504   0.012  0.00  0.00    +0.044 C 
ATOM     26  C   UNL     1       0.039  -0.003   0.003  0.00  0.00    -0.050 A 
ATOM     27  C   UNL     1       0.033  -0.686  -1.199  0.00  0.00    +0.004 A 
ATOM     28  C   UNL     1       0.042  -2.067  -1.211  0.00  0.00    +0.015 A 
ATOM     29  C   UNL     1       0.058  -2.770  -0.012  0.00  0.00    +0.008 A 
ATOM     30  C   UNL     1       0.065  -2.080   1.194  0.00  0.00    +0.015 A 
ATOM     31  C   UNL     1       0.061  -0.699   1.198  0.00  0.00    +0.004 A 
ENDBRANCH  24  29
ENDBRANCH  23  24
ENDBRANCH  22  23
ENDBRANCH  18  22
ENDBRANCH  17  20
ENDBRANCH   1  17
TORSDOF 7
