REMARK  Name = ZINC44232695
REMARK  8 active torsions:
REMARK  status: ('A' for Active; 'I' for Inactive)
REMARK    1  A    between atoms: C_1  and  O_2
REMARK    2  A    between atoms: O_2  and  C_3
REMARK    3  A    between atoms: C_5  and  C_12
REMARK    4  A    between atoms: C_8  and  O_9
REMARK    5  A    between atoms: C_12  and  C_14
REMARK    6  A    between atoms: C_12  and  N_17
REMARK    7  A    between atoms: C_14  and  C_15
REMARK    8  A    between atoms: C_15  and  O_16
REMARK                            x       y       z     vdW  Elec       q    Type
REMARK                         _______ _______ _______ _____ _____    ______ ____
ROOT
ATOM      1  C   UNL     1       0.606  -0.608  -1.057  0.00  0.00    +0.163 A 
ATOM      2  C   UNL     1       1.173   0.159  -2.062  0.00  0.00    +0.052 A 
ATOM      3  C   UNL     1       1.787  -0.455  -3.138  0.00  0.00    -0.043 A 
ATOM      4  C   UNL     1       1.838  -1.835  -3.213  0.00  0.00    +0.037 A 
ATOM      5  C   UNL     1       1.274  -2.607  -2.212  0.00  0.00    +0.077 A 
ATOM      6  C   UNL     1       0.662  -1.996  -1.129  0.00  0.00    +0.174 A 
ATOM      7 BR   UNL     1       1.344  -4.493  -2.319  0.00  0.00    -0.045 Br
ATOM      8 BR   UNL     1       2.679  -2.669  -4.687  0.00  0.00    -0.049 Br
ENDROOT
BRANCH   1  10
ATOM      9  C   UNL     1      -0.017   1.425   0.010  0.00  0.00    +0.277 C 
ATOM     10  O   UNL     1       0.002  -0.004   0.002  0.00  0.00    -0.491 OA
ENDBRANCH   1  10
BRANCH   6  11
ATOM     11  O   UNL     1       0.112  -2.752  -0.141  0.00  0.00    -0.503 OA
ATOM     12  H   UNL     1      -0.817  -2.979  -0.290  0.00  0.00    +0.292 HD
ENDBRANCH   6  11
BRANCH   3  13
ATOM     13  C   UNL     1       2.403   0.381  -4.230  0.00  0.00    -0.041 C 
BRANCH  13  14
ATOM     14  N   UNL     1       2.763   1.700  -3.693  0.00  0.00    +0.383 N 
ATOM     15  H   UNL     1       3.175   2.260  -4.424  0.00  0.00    -0.089 HD
ATOM     16  H   UNL     1       1.935   2.159  -3.344  0.00  0.00    -0.089 HD
ATOM     17  H   UNL     1       3.427   1.587  -2.941  0.00  0.00    -0.089 HD
ENDBRANCH  13  14
BRANCH  13  18
ATOM     18  C   UNL     1       1.396   0.552  -5.370  0.00  0.00    +0.016 C 
BRANCH  18  19
ATOM     19  C   UNL     1       2.062   1.294  -6.531  0.00  0.00    +0.154 C 
BRANCH  19  20
ATOM     20  O   UNL     1       1.122   1.454  -7.595  0.00  0.00    -0.395 OA
ATOM     21  H   UNL     1       1.476   1.917  -8.367  0.00  0.00    +0.209 HD
ENDBRANCH  19  20
ENDBRANCH  18  19
ENDBRANCH  13  18
ENDBRANCH   3  13
TORSDOF 7
