REMARK  Name = ZINC20899064
REMARK  3 active torsions:
REMARK  status: ('A' for Active; 'I' for Inactive)
REMARK    1  A    between atoms: C_1  and  N_2
REMARK    2  A    between atoms: N_7  and  C_10
REMARK    3  A    between atoms: C_20  and  C_23
REMARK                            x       y       z     vdW  Elec       q    Type
REMARK                         _______ _______ _______ _____ _____    ______ ____
ROOT
ATOM      1  C   UNL     1       0.103  -0.424  -2.367  0.00  0.00    +0.143 C 
ATOM      2  N   UNL     1       0.674   0.130  -1.137  0.00  0.00    -0.224 N 
ATOM      3  C   UNL     1       1.869   0.788  -1.191  0.00  0.00    +0.260 C 
ATOM      4  C   UNL     1       2.407   1.315  -0.014  0.00  0.00    +0.116 C 
ATOM      5  C   UNL     1       1.651   1.130   1.231  0.00  0.00    +0.260 C 
ATOM      6  O   UNL     1       2.074   1.569   2.285  0.00  0.00    -0.269 OA
ATOM      7  N   UNL     1       0.479   0.465   1.183  0.00  0.00    -0.224 N 
ATOM      8  C   UNL     1       0.011  -0.019   0.021  0.00  0.00    +0.317 C 
ATOM      9  O   UNL     1      -1.050  -0.614   0.017  0.00  0.00    -0.252 OA
ATOM     10  C   UNL     1      -0.296   0.274   2.412  0.00  0.00    +0.143 C 
ATOM     11  C   UNL     1       3.685   2.028  -0.022  0.00  0.00    +0.027 C 
ATOM     12  N   UNL     1       3.609   3.268  -0.117  0.00  0.00    -0.316 N 
ATOM     13  C   UNL     1       4.321   4.381  -0.296  0.00  0.00    +0.045 A 
ATOM     14  C   UNL     1       3.552   5.552  -0.484  0.00  0.00    +0.024 A 
ATOM     15  C   UNL     1       4.140   6.768  -0.721  0.00  0.00    +0.002 A 
ATOM     16  C   UNL     1       5.520   6.866  -0.780  0.00  0.00    +0.001 A 
ATOM     17  C   UNL     1       6.288   5.741  -0.592  0.00  0.00    +0.016 A 
ATOM     18  C   UNL     1       5.711   4.490  -0.345  0.00  0.00    +0.030 A 
ATOM     19  S   UNL     1       6.809   3.149  -0.112  0.00  0.00    -0.115 S 
ATOM     20  C   UNL     1       6.033   1.677  -0.765  0.00  0.00    +0.087 C 
ATOM     21  C   UNL     1       4.898   1.172   0.080  0.00  0.00    +0.071 C 
ATOM     22  O   UNL     1       2.520   0.928  -2.361  0.00  0.00    -0.269 OA
ATOM     23  H   UNL     1       2.631   3.766  -0.042  0.00  0.00    +0.152 HD
ENDROOT
BRANCH  20  24
ATOM     24  C   UNL     1       7.074   0.593  -0.872  0.00  0.00    -0.031 A 
ATOM     25  C   UNL     1       7.699   0.095   0.261  0.00  0.00    +0.024 A 
ATOM     26  C   UNL     1       8.646  -0.903   0.124  0.00  0.00    +0.111 A 
ATOM     27  N   UNL     1       8.963  -1.373  -1.067  0.00  0.00    -0.263 NA
ATOM     28  C   UNL     1       8.393  -0.919  -2.166  0.00  0.00    +0.111 A 
ATOM     29  C   UNL     1       7.434   0.074  -2.106  0.00  0.00    +0.024 A 
ENDBRANCH  20  24
TORSDOF 1
