REMARK  Name = ZINC67285282
REMARK  8 active torsions:
REMARK  status: ('A' for Active; 'I' for Inactive)
REMARK    1  A    between atoms: C_1  and  C_2
REMARK    2  A    between atoms: C_2  and  C_4
REMARK    3  A    between atoms: C_2  and  N_15
REMARK    4  A    between atoms: C_8  and  S_10
REMARK    5  A    between atoms: S_10  and  N_13
REMARK    6  A    between atoms: N_13  and  C_14
REMARK    7  A    between atoms: N_18  and  C_19
REMARK    8  A    between atoms: N_27  and  C_28
REMARK                            x       y       z     vdW  Elec       q    Type
REMARK                         _______ _______ _______ _____ _____    ______ ____
ROOT
ATOM      1  N   UNL     1       0.706  -0.506   1.185  0.00  0.00    -0.293 N 
ATOM      2  C   UNL     1       0.049  -0.640   2.354  0.00  0.00    +0.304 C 
ATOM      3  O   UNL     1      -1.133  -0.364   2.423  0.00  0.00    -0.252 OA
ATOM      4  N   UNL     1       0.703  -1.080   3.447  0.00  0.00    -0.269 N 
ATOM      5  H   UNL     1       1.649  -0.726   1.130  0.00  0.00    +0.151 HD
ATOM      6  H   UNL     1       1.629  -1.361   3.378  0.00  0.00    +0.156 HD
ENDROOT
BRANCH   4   7
ATOM      7  C   UNL     1       0.047  -1.130   4.681  0.00  0.00    +0.044 A 
ATOM      8  C   UNL     1      -1.300  -1.440   4.742  0.00  0.00    +0.024 A 
ATOM      9  C   UNL     1      -1.952  -1.490   5.965  0.00  0.00    +0.004 A 
ATOM     10  C   UNL     1      -1.272  -1.234   7.136  0.00  0.00    +0.026 A 
ATOM     11  C   UNL     1       0.083  -0.920   7.102  0.00  0.00    +0.051 A 
ATOM     12  C   UNL     1       0.751  -0.873   5.866  0.00  0.00    +0.021 A 
ATOM     13  C   UNL     1       2.142  -0.529   6.168  0.00  0.00    +0.029 A 
ATOM     14  C   UNL     1       2.233  -0.400   7.501  0.00  0.00    +0.086 A 
ATOM     15  N   UNL     1       1.010  -0.623   8.075  0.00  0.00    -0.350 N 
ATOM     16  C   UNL     1       0.733  -0.567   9.513  0.00  0.00    +0.149 C 
ENDBRANCH   4   7
BRANCH   1  18
ATOM     17  C   UNL     1      -0.023   1.502  -0.007  0.00  0.00    +0.033 C 
ATOM     18  C   UNL     1      -0.005  -0.028  -0.004  0.00  0.00    +0.102 C 
BRANCH  18  19
ATOM     19  C   UNL     1       0.695  -0.525  -1.242  0.00  0.00    -0.026 A 
ATOM     20  C   UNL     1       2.077  -0.549  -1.292  0.00  0.00    +0.005 A 
ATOM     21  C   UNL     1       2.719  -1.005  -2.428  0.00  0.00    +0.002 A 
ATOM     22  C   UNL     1       1.981  -1.437  -3.514  0.00  0.00    +0.028 A 
ATOM     23  C   UNL     1       0.600  -1.413  -3.463  0.00  0.00    +0.106 A 
ATOM     24  C   UNL     1      -0.043  -0.961  -2.326  0.00  0.00    +0.034 A 
BRANCH  23  25
ATOM     25  S   UNL     1      -0.342  -1.963  -4.848  0.00  0.00    +0.058 S 
ATOM     26  O   UNL     1      -1.610  -1.329  -4.754  0.00  0.00    -0.153 OA
ATOM     27  O   UNL     1       0.495  -1.827  -5.988  0.00  0.00    -0.153 OA
BRANCH  25  28
ATOM     28  N   UNL     1      -0.607  -3.585  -4.646  0.00  0.00    -0.193 NA
ATOM     29  C   UNL     1      -1.423  -4.061  -3.526  0.00  0.00    +0.127 C 
ATOM     30  H   UNL     1      -0.222  -4.221  -5.270  0.00  0.00    +0.148 HD
ENDBRANCH  25  28
ENDBRANCH  23  25
ENDBRANCH  18  19
ENDBRANCH   1  18
TORSDOF 5
