REMARK  Name = ZINC67503211
REMARK  5 active torsions:
REMARK  status: ('A' for Active; 'I' for Inactive)
REMARK    1  A    between atoms: C_4  and  C_7
REMARK    2  A    between atoms: C_10  and  N_12
REMARK    3  A    between atoms: C_13  and  C_15
REMARK    4  A    between atoms: C_16  and  C_17
REMARK    5  A    between atoms: C_22  and  N_23
REMARK                            x       y       z     vdW  Elec       q    Type
REMARK                         _______ _______ _______ _____ _____    ______ ____
ROOT
ATOM      1  N   UNL     1       5.370  -2.600   1.479  0.00  0.00    -0.308 N 
ATOM      2  C   UNL     1       5.683  -2.947   2.743  0.00  0.00    +0.237 C 
ATOM      3  O   UNL     1       4.825  -3.398   3.480  0.00  0.00    -0.271 OA
ATOM      4  H   UNL     1       6.053  -2.240   0.892  0.00  0.00    +0.149 HD
ENDROOT
BRANCH   1   7
ATOM      5  C   UNL     1       3.546  -1.870  -0.163  0.00  0.00    +0.041 C 
ATOM      6  C   UNL     1       3.813  -3.356  -0.409  0.00  0.00    +0.033 C 
ATOM      7  C   UNL     1       3.999  -2.766   0.991  0.00  0.00    +0.081 C 
BRANCH   5  11
ATOM      8  C   UNL     1      -0.524  -0.571  -0.173  0.00  0.00    +0.000 A 
ATOM      9  C   UNL     1       0.498   0.358  -0.134  0.00  0.00    +0.000 A 
ATOM     10  C   UNL     1       1.815  -0.062  -0.130  0.00  0.00    +0.004 A 
ATOM     11  C   UNL     1       2.110  -1.412  -0.166  0.00  0.00    -0.042 A 
ATOM     12  C   UNL     1       1.088  -2.342  -0.204  0.00  0.00    +0.004 A 
ATOM     13  C   UNL     1      -0.229  -1.921  -0.209  0.00  0.00    +0.000 A 
ENDBRANCH   5  11
ENDBRANCH   1   7
BRANCH   2  14
ATOM     14  C   UNL     1       7.053  -2.780   3.231  0.00  0.00    +0.068 C 
ATOM     15  C   UNL     1       7.366  -3.127   4.495  0.00  0.00    +0.015 C 
BRANCH  15  16
ATOM     16  C   UNL     1       8.744  -2.960   4.985  0.00  0.00    +0.005 A 
ATOM     17  C   UNL     1       9.792  -2.761   4.081  0.00  0.00    +0.010 A 
ATOM     18  C   UNL     1      11.080  -2.605   4.548  0.00  0.00    +0.001 A 
ATOM     19  C   UNL     1      11.337  -2.644   5.907  0.00  0.00    +0.002 A 
ATOM     20  C   UNL     1      10.305  -2.841   6.808  0.00  0.00    +0.033 A 
ATOM     21  C   UNL     1       9.010  -2.993   6.357  0.00  0.00    +0.133 A 
BRANCH  21  22
ATOM     22  N   UNL     1       7.907  -3.197   7.323  0.00  0.00    +0.057 N 
ATOM     23  O   UNL     1       6.827  -2.694   7.122  0.00  0.00    -0.126 OA
ATOM     24  O   UNL     1       8.087  -3.867   8.313  0.00  0.00    -0.126 OA
ENDBRANCH  21  22
ENDBRANCH  15  16
ENDBRANCH   2  14
TORSDOF 5
