REMARK  Name = ZINC40346561
REMARK  9 active torsions:
REMARK  status: ('A' for Active; 'I' for Inactive)
REMARK    1  A    between atoms: C_1  and  C_2
REMARK    2  A    between atoms: C_2  and  C_3
REMARK    3  A    between atoms: C_3  and  N_4
REMARK    4  A    between atoms: C_5  and  C_7
REMARK    5  A    between atoms: C_7  and  N_8
REMARK    6  A    between atoms: N_8  and  C_9
REMARK    7  A    between atoms: N_8  and  S_10
REMARK    8  A    between atoms: S_10  and  C_13
REMARK    9  A    between atoms: C_16  and  N_20
REMARK                            x       y       z     vdW  Elec       q    Type
REMARK                         _______ _______ _______ _____ _____    ______ ____
ROOT
ATOM      1  S   UNL     1      -4.645  -5.114   1.448  0.00  0.00    +0.063 S 
ATOM      2  O   UNL     1      -5.669  -6.048   1.135  0.00  0.00    -0.153 OA
ATOM      3  O   UNL     1      -3.596  -5.410   2.359  0.00  0.00    -0.153 OA
ENDROOT
BRANCH   1   4
ATOM      4  C   UNL     1      -5.451  -3.671   2.059  0.00  0.00    +0.133 A 
ATOM      5  C   UNL     1      -4.766  -2.795   2.884  0.00  0.00    +0.047 A 
ATOM      6  C   UNL     1      -5.396  -1.663   3.365  0.00  0.00    +0.040 A 
ATOM      7  C   UNL     1      -6.716  -1.404   3.021  0.00  0.00    +0.027 A 
ATOM      8  C   UNL     1      -7.400  -2.285   2.192  0.00  0.00    +0.040 A 
ATOM      9  C   UNL     1      -6.764  -3.413   1.710  0.00  0.00    +0.047 A 
ATOM     10 BR   UNL     1      -7.692  -4.608   0.576  0.00  0.00    -0.048 Br
ATOM     11 BR   UNL     1      -2.969  -3.149   3.353  0.00  0.00    -0.048 Br
BRANCH   7  12
ATOM     12  N   UNL     1      -7.355  -0.261   3.506  0.00  0.00    -0.358 N 
ATOM     13  H   UNL     1      -6.876   0.353   4.085  0.00  0.00    +0.142 HD
ATOM     14  H   UNL     1      -8.277  -0.081   3.265  0.00  0.00    +0.142 HD
ENDBRANCH   7  12
ENDBRANCH   1   4
BRANCH   1  15
ATOM     15  N   UNL     1      -3.925  -4.702   0.014  0.00  0.00    -0.171 NA
ATOM     16  C   UNL     1      -4.663  -4.845  -1.243  0.00  0.00    +0.132 C 
BRANCH  15  17
ATOM     17  C   UNL     1      -2.551  -4.195   0.004  0.00  0.00    +0.204 C 
BRANCH  17  19
ATOM     18  N   UNL     1      -1.413  -1.998   0.005  0.00  0.00    -0.314 N 
ATOM     19  C   UNL     1      -2.571  -2.688   0.012  0.00  0.00    +0.229 C 
ATOM     20  O   UNL     1      -3.630  -2.096   0.025  0.00  0.00    -0.274 OA
ATOM     21  H   UNL     1      -0.567  -2.472  -0.006  0.00  0.00    +0.149 HD
BRANCH  18  22
ATOM     22  C   UNL     1      -1.433  -0.534   0.013  0.00  0.00    +0.104 C 
BRANCH  22  24
ATOM     23  C   UNL     1      -0.019   1.526   0.010  0.00  0.00    +0.005 C 
ATOM     24  C   UNL     1       0.002  -0.004   0.002  0.00  0.00    +0.015 C 
ENDBRANCH  22  24
ENDBRANCH  18  22
ENDBRANCH  17  19
ENDBRANCH  15  17
ENDBRANCH   1  15
TORSDOF 7
