REMARK  Name = ZINC58337688
REMARK  7 active torsions:
REMARK  status: ('A' for Active; 'I' for Inactive)
REMARK    1  A    between atoms: C_5  and  C_7
REMARK    2  A    between atoms: C_7  and  C_9
REMARK    3  A    between atoms: C_7  and  N_27
REMARK    4  A    between atoms: C_9  and  N_10
REMARK    5  A    between atoms: C_11  and  C_13
REMARK    6  A    between atoms: C_13  and  N_14
REMARK    7  A    between atoms: C_20  and  C_22
REMARK                            x       y       z     vdW  Elec       q    Type
REMARK                         _______ _______ _______ _____ _____    ______ ____
ROOT
ATOM      1  N   UNL     1       0.584  -4.561  -2.938  0.00  0.00    -0.315 N 
ATOM      2  C   UNL     1       1.034  -4.686  -4.202  0.00  0.00    +0.227 C 
ATOM      3  O   UNL     1       1.407  -3.706  -4.813  0.00  0.00    -0.274 OA
ATOM      4  H   UNL     1       0.286  -5.345  -2.450  0.00  0.00    +0.149 HD
ENDROOT
BRANCH   1   5
ATOM      5  C   UNL     1       0.544  -3.243  -2.302  0.00  0.00    +0.093 C 
BRANCH   5   6
ATOM      6  C   UNL     1       0.120  -3.395  -0.839  0.00  0.00    -0.019 C 
BRANCH   6  11
ATOM      7  C   UNL     1      -2.815  -5.742  -0.481  0.00  0.00    +0.000 A 
ATOM      8  C   UNL     1      -3.881  -4.881  -0.664  0.00  0.00    +0.001 A 
ATOM      9  C   UNL     1      -3.654  -3.540  -0.903  0.00  0.00    +0.020 A 
ATOM     10  C   UNL     1      -2.358  -3.058  -0.960  0.00  0.00    +0.043 A 
ATOM     11  C   UNL     1      -1.291  -3.919  -0.777  0.00  0.00    -0.041 A 
ATOM     12  C   UNL     1      -1.520  -5.261  -0.538  0.00  0.00    +0.003 A 
ATOM     13 CL   UNL     1      -2.071  -1.372  -1.262  0.00  0.00    -0.083 Cl
ENDBRANCH   6  11
BRANCH   6  14
ATOM     14  N   UNL     1       1.023  -4.337  -0.164  0.00  0.00    +0.385 N 
ATOM     15  C   UNL     1       2.429  -3.872  -0.280  0.00  0.00    -0.078 C 
ATOM     16  C   UNL     1       3.138  -4.593   0.894  0.00  0.00    -0.020 C 
ATOM     17  C   UNL     1       2.073  -4.560   2.014  0.00  0.00    -0.020 C 
ATOM     18  C   UNL     1       0.729  -4.375   1.285  0.00  0.00    -0.078 C 
ATOM     19  H   UNL     1       0.926  -5.259  -0.563  0.00  0.00    -0.081 HD
ENDBRANCH   6  14
ENDBRANCH   5   6
ENDBRANCH   1   5
BRANCH   2  20
ATOM     20  C   UNL     1       1.075  -6.043  -4.858  0.00  0.00    +0.180 C 
BRANCH  20  21
ATOM     21  N   UNL     1       1.602  -5.911  -6.223  0.00  0.00    -0.291 NA
ATOM     22  C   UNL     1       0.685  -5.135  -7.068  0.00  0.00    +0.104 C 
ATOM     23  C   UNL     1       1.349  -4.867  -8.423  0.00  0.00    +0.123 C 
ATOM     24  N   UNL     1       1.783  -6.151  -8.993  0.00  0.00    -0.293 N 
ATOM     25  C   UNL     1       2.592  -7.047  -8.153  0.00  0.00    +0.123 C 
ATOM     26  C   UNL     1       1.879  -7.229  -6.809  0.00  0.00    +0.104 C 
ATOM     27  C   UNL     1       1.448  -6.497 -10.252  0.00  0.00    +0.282 C 
ATOM     28  O   UNL     1       0.689  -5.796 -10.895  0.00  0.00    -0.267 OA
BRANCH  27  29
ATOM     29  C   UNL     1       1.999  -7.719 -10.847  0.00  0.00    +0.189 A 
ATOM     30  C   UNL     1       1.644  -8.255 -12.052  0.00  0.00    +0.054 A 
ATOM     31  C   UNL     1       2.418  -9.414 -12.221  0.00  0.00    +0.042 A 
ATOM     32  C   UNL     1       3.201  -9.533 -11.127  0.00  0.00    +0.196 A 
ATOM     33  O   UNL     1       2.950  -8.507 -10.303  0.00  0.00    -0.458 OA
ENDBRANCH  27  29
ENDBRANCH  20  21
ENDBRANCH   2  20
TORSDOF 7
