REMARK  Name = ZINC66761775
REMARK  5 active torsions:
REMARK  status: ('A' for Active; 'I' for Inactive)
REMARK    1  A    between atoms: C_1  and  C_2
REMARK    2  A    between atoms: C_2  and  C_30
REMARK    3  A    between atoms: C_5  and  C_24
REMARK    4  A    between atoms: C_9  and  C_11
REMARK    5  A    between atoms: C_18  and  N_21
REMARK                            x       y       z     vdW  Elec       q    Type
REMARK                         _______ _______ _______ _____ _____    ______ ____
ROOT
ATOM      1  C   UNL     1       0.813   1.786  -0.205  0.00  0.00    +0.034 C 
ATOM      2  C   UNL     1       0.280   0.381   0.082  0.00  0.00    +0.055 C 
ATOM      3  C   UNL     1      -1.222   0.450   0.379  0.00  0.00    +0.186 C 
ATOM      4  O   UNL     1      -1.426   1.138   1.616  0.00  0.00    -0.368 OA
ATOM      5  C   UNL     1      -0.849   0.486   2.750  0.00  0.00    +0.166 C 
ATOM      6  C   UNL     1       0.673   0.419   2.574  0.00  0.00    +0.145 C 
ATOM      7  N   UNL     1       0.962  -0.178   1.260  0.00  0.00    -0.287 N 
ATOM      8  C   UNL     1       1.826  -1.205   1.140  0.00  0.00    +0.249 C 
ATOM      9  O   UNL     1       2.131  -1.617   0.036  0.00  0.00    -0.270 OA
ATOM     10  C   UNL     1       0.525  -0.520  -1.131  0.00  0.00    +0.034 C 
ENDROOT
BRANCH   8  11
ATOM     11  C   UNL     1       2.398  -1.828   2.341  0.00  0.00    +0.062 A 
ATOM     12  C   UNL     1       1.816  -1.916   3.571  0.00  0.00    +0.096 A 
ATOM     13  N   UNL     1       2.647  -2.558   4.426  0.00  0.00    -0.360 N 
ATOM     14  H   UNL     1       2.450  -2.740   5.359  0.00  0.00    +0.165 HD
ATOM     15  C   UNL     1       3.814  -2.918   3.784  0.00  0.00    +0.047 A 
ATOM     16  C   UNL     1       3.713  -2.486   2.452  0.00  0.00    +0.014 A 
ATOM     17  C   UNL     1       4.755  -2.722   1.560  0.00  0.00    +0.043 A 
ATOM     18  C   UNL     1       5.884  -3.385   1.990  0.00  0.00    +0.127 A 
ATOM     19  C   UNL     1       5.985  -3.816   3.305  0.00  0.00    +0.035 A 
ATOM     20  C   UNL     1       4.964  -3.581   4.200  0.00  0.00    +0.028 A 
BRANCH  18  21
ATOM     21  N   UNL     1       6.995  -3.638   1.045  0.00  0.00    +0.056 N 
ATOM     22  O   UNL     1       6.910  -3.264  -0.102  0.00  0.00    -0.126 OA
ATOM     23  O   UNL     1       7.987  -4.219   1.419  0.00  0.00    -0.126 OA
ENDBRANCH  18  21
ENDBRANCH   8  11
BRANCH   5  24
ATOM     24  C   UNL     1      -1.178   1.264   3.998  0.00  0.00    -0.017 A 
ATOM     25  C   UNL     1      -1.257   2.643   3.953  0.00  0.00    +0.006 A 
ATOM     26  C   UNL     1      -1.559   3.356   5.098  0.00  0.00    +0.000 A 
ATOM     27  C   UNL     1      -1.782   2.689   6.289  0.00  0.00    +0.000 A 
ATOM     28  C   UNL     1      -1.704   1.310   6.334  0.00  0.00    +0.000 A 
ATOM     29  C   UNL     1      -1.406   0.597   5.188  0.00  0.00    +0.006 A 
ENDBRANCH   5  24
TORSDOF 3
