REMARK  Name = ZINC24215178
REMARK  10 active torsions:
REMARK  status: ('A' for Active; 'I' for Inactive)
REMARK    1  A    between atoms: C_1  and  C_2
REMARK    2  A    between atoms: C_3  and  C_14
REMARK    3  A    between atoms: C_4  and  C_13
REMARK    4  A    between atoms: N_5  and  C_7
REMARK    5  A    between atoms: N_21  and  C_22
REMARK    6  A    between atoms: C_22  and  C_23
REMARK    7  A    between atoms: C_23  and  O_24
REMARK    8  A    between atoms: O_24  and  C_25
REMARK    9  A    between atoms: C_30  and  C_31
REMARK   10  A    between atoms: C_31  and  C_33
REMARK                            x       y       z     vdW  Elec       q    Type
REMARK                         _______ _______ _______ _____ _____    ______ ____
ROOT
ATOM      1  C   UNL     1       3.414   0.845  -0.016  0.00  0.00    +0.054 C 
ATOM      2  C   UNL     1       3.784   1.295   1.369  0.00  0.00    +0.204 C 
ATOM      3  O   UNL     1       3.209   0.798   2.314  0.00  0.00    -0.277 OA
ATOM      4  N   UNL     1       4.720   2.221   1.603  0.00  0.00    -0.318 N 
ATOM      5  C   UNL     1       5.444   2.906   0.535  0.00  0.00    +0.085 C 
ATOM      6  C   UNL     1       5.317   2.120  -0.771  0.00  0.00    -0.058 C 
ATOM      7  N   UNL     1       3.896   1.819  -1.006  0.00  0.00    +0.393 N 
ATOM      8  H   UNL     1       4.936   2.460   2.655  0.00  0.00    +0.149 HD
ATOM      9  H   UNL     1       3.316   2.747  -0.890  0.00  0.00    -0.080 HD
ENDROOT
BRANCH   1  12
ATOM     10  C   UNL     1       1.367   3.251  -0.266  0.00  0.00    +0.068 C 
ATOM     11  C   UNL     1       1.011   1.787  -0.230  0.00  0.00    +0.063 A 
ATOM     12  C   UNL     1       1.916   0.726  -0.120  0.00  0.00    -0.009 A 
ATOM     13  C   UNL     1       1.207  -0.428  -0.123  0.00  0.00    +0.044 A 
ATOM     14  N   UNL     1      -0.102  -0.106  -0.232  0.00  0.00    -0.237 N 
ATOM     15  N   UNL     1      -0.198   1.290  -0.297  0.00  0.00    -0.171 NA
ATOM     16  C   UNL     1       1.776  -1.820  -0.024  0.00  0.00    +0.066 C 
BRANCH  14  17
ATOM     17  C   UNL     1      -1.173  -1.010  -0.272  0.00  0.00    +0.066 A 
ATOM     18  C   UNL     1      -1.025  -2.236  -0.907  0.00  0.00    +0.028 A 
ATOM     19  C   UNL     1      -2.080  -3.127  -0.940  0.00  0.00    +0.002 A 
ATOM     20  C   UNL     1      -3.286  -2.794  -0.351  0.00  0.00    +0.000 A 
ATOM     21  C   UNL     1      -3.438  -1.571   0.277  0.00  0.00    +0.002 A 
ATOM     22  C   UNL     1      -2.385  -0.679   0.318  0.00  0.00    +0.028 A 
ENDBRANCH  14  17
ENDBRANCH   1  12
BRANCH   7  23
ATOM     23  C   UNL     1       3.680   1.329  -2.374  0.00  0.00    -0.036 C 
BRANCH  23  24
ATOM     24  C   UNL     1       4.279   2.323  -3.371  0.00  0.00    +0.211 C 
BRANCH  24  25
ATOM     25  O   UNL     1       5.700   2.174  -3.396  0.00  0.00    -0.493 OA
BRANCH  25  26
ATOM     26  C   UNL     1       6.390   2.986  -4.235  0.00  0.00    +0.131 A 
ATOM     27  C   UNL     1       5.716   3.910  -5.020  0.00  0.00    +0.046 A 
ATOM     28  C   UNL     1       6.420   4.738  -5.873  0.00  0.00    +0.004 A 
ATOM     29  C   UNL     1       7.801   4.653  -5.953  0.00  0.00    +0.001 A 
ATOM     30  C   UNL     1       8.488   3.743  -5.182  0.00  0.00    +0.015 A 
ATOM     31  C   UNL     1       7.790   2.901  -4.309  0.00  0.00    +0.059 A 
BRANCH  31  32
ATOM     32  C   UNL     1       8.515   1.931  -3.479  0.00  0.00    +0.164 C 
ATOM     33  O   UNL     1       7.905   1.200  -2.727  0.00  0.00    -0.292 OA
ATOM     34  C   UNL     1      10.017   1.843  -3.562  0.00  0.00    +0.092 C 
ENDBRANCH  31  32
ENDBRANCH  25  26
ENDBRANCH  24  25
ENDBRANCH  23  24
ENDBRANCH   7  23
TORSDOF 7
