REMARK  Name = ZINC66939574
REMARK  9 active torsions:
REMARK  status: ('A' for Active; 'I' for Inactive)
REMARK    1  A    between atoms: C_1  and  C_2
REMARK    2  A    between atoms: C_5  and  C_31
REMARK    3  A    between atoms: N_8  and  C_10
REMARK    4  A    between atoms: C_10  and  C_11
REMARK    5  A    between atoms: C_14  and  C_17
REMARK    6  A    between atoms: C_17  and  N_18
REMARK    7  A    between atoms: N_18  and  C_19
REMARK    8  A    between atoms: C_19  and  C_21
REMARK    9  A    between atoms: C_19  and  C_28
REMARK                            x       y       z     vdW  Elec       q    Type
REMARK                         _______ _______ _______ _____ _____    ______ ____
ROOT
ATOM      1  C   UNL     1       2.971  -2.034   2.241  0.00  0.00    -0.064 A 
ATOM      2  C   UNL     1       3.870  -2.852   1.582  0.00  0.00    +0.002 A 
ATOM      3  C   UNL     1       5.189  -2.460   1.446  0.00  0.00    +0.005 A 
ATOM      4  C   UNL     1       5.609  -1.252   1.969  0.00  0.00    -0.034 A 
ATOM      5  C   UNL     1       4.710  -0.434   2.628  0.00  0.00    +0.005 A 
ATOM      6  C   UNL     1       3.390  -0.823   2.760  0.00  0.00    +0.002 A 
ENDROOT
BRANCH   1   7
ATOM      7  C   UNL     1       1.534  -2.461   2.390  0.00  0.00    -0.043 C 
BRANCH   7  13
ATOM      8  C   UNL     1      -0.019   1.526   0.010  0.00  0.00    +0.005 C 
ATOM      9  C   UNL     1       0.002  -0.004   0.002  0.00  0.00    -0.031 C 
ATOM     10  C   UNL     1      -1.434  -0.535   0.015  0.00  0.00    +0.003 C 
ATOM     11  C   UNL     1      -1.402  -2.064   0.086  0.00  0.00    -0.031 C 
ATOM     12  C   UNL     1      -0.613  -2.496   1.324  0.00  0.00    -0.075 C 
ATOM     13  N   UNL     1       0.758  -1.980   1.239  0.00  0.00    +0.383 N 
ATOM     14  C   UNL     1       0.740  -0.512   1.242  0.00  0.00    -0.075 C 
ATOM     15  C   UNL     1      -2.832  -2.602   0.177  0.00  0.00    +0.005 C 
ATOM     16  H   UNL     1       1.188  -2.307   0.386  0.00  0.00    -0.081 HD
ENDBRANCH   7  13
ENDBRANCH   1   7
BRANCH   4  17
ATOM     17  C   UNL     1       7.047  -0.825   1.821  0.00  0.00    +0.117 C 
BRANCH  17  18
ATOM     18  N   UNL     1       7.206  -0.062   0.576  0.00  0.00    -0.298 NA
ATOM     19  H   UNL     1       6.889  -0.596  -0.219  0.00  0.00    +0.123 HD
BRANCH  18  20
ATOM     20  C   UNL     1       8.598   0.371   0.398  0.00  0.00    +0.171 C 
BRANCH  20  21
ATOM     21  C   UNL     1       8.875   0.582  -1.068  0.00  0.00    -0.021 A 
ATOM     22  C   UNL     1       7.921   1.177  -1.872  0.00  0.00    +0.008 A 
ATOM     23  C   UNL     1       8.175   1.372  -3.217  0.00  0.00    +0.038 A 
ATOM     24  C   UNL     1       9.384   0.970  -3.758  0.00  0.00    +0.123 A 
ATOM     25  C   UNL     1      10.339   0.374  -2.952  0.00  0.00    +0.038 A 
ATOM     26  C   UNL     1      10.085   0.185  -1.606  0.00  0.00    +0.008 A 
ATOM     27  F   UNL     1       9.633   1.159  -5.073  0.00  0.00    -0.205 F 
ENDBRANCH  20  21
BRANCH  20  28
ATOM     28  C   UNL     1       8.822   1.662   1.143  0.00  0.00    +0.232 C 
ATOM     29  O   UNL     1       7.911   2.171   1.760  0.00  0.00    -0.274 OA
ATOM     30  N   UNL     1      10.034   2.251   1.122  0.00  0.00    -0.328 N 
ATOM     31  H   UNL     1      10.762   1.843   0.628  0.00  0.00    +0.145 HD
ATOM     32  H   UNL     1      10.178   3.082   1.601  0.00  0.00    +0.145 HD
ENDBRANCH  20  28
ENDBRANCH  18  20
ENDBRANCH  17  18
ENDBRANCH   4  17
TORSDOF 7
