REMARK  Name = ZINC08994997
REMARK  8 active torsions:
REMARK  status: ('A' for Active; 'I' for Inactive)
REMARK    1  A    between atoms: C_1  and  C_2
REMARK    2  A    between atoms: C_12  and  C_18
REMARK    3  A    between atoms: C_15  and  C_17
REMARK    4  A    between atoms: N_20  and  C_21
REMARK    5  A    between atoms: C_23  and  O_29
REMARK    6  A    between atoms: C_26  and  O_27
REMARK    7  A    between atoms: O_27  and  C_28
REMARK    8  A    between atoms: O_29  and  C_30
REMARK                            x       y       z     vdW  Elec       q    Type
REMARK                         _______ _______ _______ _____ _____    ______ ____
ROOT
ATOM      1  C   UNL     1       0.132   8.507   3.221  0.00  0.00    +0.046 C 
ATOM      2  C   UNL     1       0.266   7.506   2.103  0.00  0.00    -0.028 A 
ATOM      3  C   UNL     1       1.514   7.049   1.735  0.00  0.00    +0.025 A 
ATOM      4  C   UNL     1       1.648   6.131   0.709  0.00  0.00    +0.042 A 
ATOM      5  C   UNL     1       0.522   5.668   0.048  0.00  0.00    +0.024 A 
ATOM      6  C   UNL     1      -0.726   6.121   0.413  0.00  0.00    -0.026 A 
ATOM      7  C   UNL     1      -0.871   7.046   1.444  0.00  0.00    +0.039 A 
ATOM      8  N   UNL     1      -2.221   7.354   1.629  0.00  0.00    -0.286 N 
ATOM      9  C   UNL     1      -3.017   6.684   0.774  0.00  0.00    +0.211 C 
ATOM     10  O   UNL     1      -4.226   6.753   0.704  0.00  0.00    -0.277 OA
ATOM     11  C   UNL     1      -2.116   5.833  -0.078  0.00  0.00    +0.049 C 
ATOM     12  C   UNL     1      -2.461   4.344   0.055  0.00  0.00    +0.076 C 
ATOM     13  C   UNL     1      -3.336   4.030  -1.180  0.00  0.00    -0.004 C 
ATOM     14  C   UNL     1      -3.453   5.371  -1.938  0.00  0.00    -0.072 C 
ATOM     15  C   UNL     1      -3.418   5.132  -3.449  0.00  0.00    -0.014 C 
ATOM     16 CL   UNL     1       3.222   5.560   0.250  0.00  0.00    -0.084 Cl
ATOM     17  H   UNL     1      -2.548   7.979   2.296  0.00  0.00    +0.155 HD
ATOM     18  N   UNL     1      -2.284   6.132  -1.489  0.00  0.00    +0.393 N 
ATOM     19  H   UNL     1      -1.451   5.845  -2.015  0.00  0.00    -0.083 HD
ATOM     20  H   UNL     1      -2.444   7.138  -1.622  0.00  0.00    -0.083 HD
ENDROOT
BRANCH  12  21
ATOM     21  C   UNL     1      -1.206   3.510   0.034  0.00  0.00    +0.220 C 
ATOM     22  O   UNL     1      -0.731   3.155  -1.024  0.00  0.00    -0.275 OA
ATOM     23  N   UNL     1      -0.611   3.159   1.191  0.00  0.00    -0.282 N 
ATOM     24  H   UNL     1      -1.031   3.377   2.038  0.00  0.00    +0.155 HD
BRANCH  23  25
ATOM     25  C   UNL     1       0.615   2.480   1.171  0.00  0.00    +0.079 A 
ATOM     26  C   UNL     1       1.397   2.492   0.025  0.00  0.00    +0.072 A 
ATOM     27  C   UNL     1       2.606   1.815   0.006  0.00  0.00    +0.122 A 
ATOM     28  C   UNL     1       3.034   1.126   1.132  0.00  0.00    +0.049 A 
ATOM     29  C   UNL     1       2.257   1.113   2.275  0.00  0.00    +0.051 A 
ATOM     30  C   UNL     1       1.048   1.788   2.299  0.00  0.00    +0.141 A 
BRANCH  30  31
ATOM     31  O   UNL     1       0.283   1.775   3.425  0.00  0.00    -0.493 OA
ATOM     32  C   UNL     1       0.789   1.045   4.544  0.00  0.00    +0.277 C 
ENDBRANCH  30  31
BRANCH  27  33
ATOM     33  O   UNL     1       3.373   1.826  -1.116  0.00  0.00    -0.495 OA
ATOM     34  C   UNL     1       4.608   1.108  -1.065  0.00  0.00    +0.277 C 
ENDBRANCH  27  33
ENDBRANCH  23  25
ENDBRANCH  12  21
TORSDOF 4
