REMARK  Name = ZINC01504405
REMARK  7 active torsions:
REMARK  status: ('A' for Active; 'I' for Inactive)
REMARK    1  A    between atoms: C_1  and  C_2
REMARK    2  A    between atoms: C_2  and  C_3
REMARK    3  A    between atoms: C_3  and  C_4
REMARK    4  A    between atoms: C_8  and  C_13
REMARK    5  A    between atoms: C_9  and  C_12
REMARK    6  A    between atoms: C_22  and  O_23
REMARK    7  A    between atoms: O_23  and  C_24
REMARK                            x       y       z     vdW  Elec       q    Type
REMARK                         _______ _______ _______ _____ _____    ______ ____
ROOT
ATOM      1  C   UNL     1       0.116  -1.914  -0.613  0.00  0.00    -0.005 C 
ATOM      2  C   UNL     1      -0.664  -2.632  -1.470  0.00  0.00    +0.022 C 
ATOM      3  C   UNL     1      -0.739  -4.027  -1.353  0.00  0.00    +0.068 C 
ATOM      4  C   UNL     1      -1.576  -4.800  -2.273  0.00  0.00    +0.177 C 
ATOM      5  C   UNL     1      -2.454  -4.274  -3.235  0.00  0.00    +0.067 C 
ATOM      6  C   UNL     1      -3.048  -5.339  -3.890  0.00  0.00    +0.060 C 
ATOM      7  N   UNL     1      -2.568  -6.472  -3.366  0.00  0.00    -0.225 N 
ATOM      8  O   UNL     1      -1.639  -6.136  -2.353  0.00  0.00    -0.379 OA
ATOM      9  C   UNL     1      -4.061  -5.239  -5.001  0.00  0.00    +0.067 C 
ATOM     10  C   UNL     1       0.002  -4.683  -0.340  0.00  0.00    +0.193 C 
ATOM     11  O   UNL     1      -0.057  -6.009  -0.215  0.00  0.00    -0.287 OA
ATOM     12  C   UNL     1       0.795  -3.927   0.527  0.00  0.00    +0.097 C 
ATOM     13  C   UNL     1       0.852  -2.553   0.385  0.00  0.00    +0.127 C 
ATOM     14  H   UNL     1      -2.813  -7.370  -3.637  0.00  0.00    +0.207 HD
ENDROOT
BRANCH   5  15
ATOM     15  C   UNL     1      -2.700  -2.837  -3.501  0.00  0.00    +0.076 A 
ATOM     16  C   UNL     1      -2.261  -2.270  -4.696  0.00  0.00    +0.028 A 
ATOM     17  C   UNL     1      -2.498  -0.927  -4.930  0.00  0.00    +0.004 A 
ATOM     18  C   UNL     1      -3.169  -0.194  -3.961  0.00  0.00    +0.020 A 
ATOM     19  C   UNL     1      -3.577  -0.820  -2.798  0.00  0.00    +0.111 A 
ATOM     20  N   UNL     1      -3.343  -2.102  -2.602  0.00  0.00    -0.255 NA
ENDBRANCH   5  15
BRANCH  13  21
ATOM     21  O   UNL     1       1.627  -1.820   1.225  0.00  0.00    -0.495 OA
ATOM     22  C   UNL     1       2.357  -2.535   2.224  0.00  0.00    +0.277 C 
ENDBRANCH  13  21
BRANCH   1  23
ATOM     23  C   UNL     1       0.187  -0.415  -0.748  0.00  0.00    +0.038 C 
BRANCH  23  25
ATOM     24  C   UNL     1      -0.737   1.755   0.077  0.00  0.00    +0.004 C 
ATOM     25  C   UNL     1      -0.810   0.233   0.214  0.00  0.00    +0.001 C 
ENDBRANCH  23  25
ENDBRANCH   1  23
TORSDOF 4
