REMARK  Name = ZINC30277830
REMARK  10 active torsions:
REMARK  status: ('A' for Active; 'I' for Inactive)
REMARK    1  A    between atoms: C_1  and  C_2
REMARK    2  A    between atoms: C_2  and  C_4
REMARK    3  A    between atoms: C_2  and  N_14
REMARK    4  A    between atoms: C_8  and  N_10
REMARK    5  A    between atoms: C_11  and  C_13
REMARK    6  A    between atoms: C_15  and  C_17
REMARK    7  A    between atoms: C_18  and  C_19
REMARK    8  A    between atoms: C_22  and  S_25
REMARK    9  A    between atoms: S_25  and  N_28
REMARK   10  A    between atoms: N_28  and  C_29
REMARK                            x       y       z     vdW  Elec       q    Type
REMARK                         _______ _______ _______ _____ _____    ______ ____
ROOT
ATOM      1  C   UNL     1      -9.048   0.223   1.359  0.00  0.00    +0.068 C 
ATOM      2  C   UNL     1     -10.100   0.970   1.751  0.00  0.00    +0.013 C 
ENDROOT
BRANCH   2   3
ATOM      3  C   UNL     1     -11.105   0.404   2.664  0.00  0.00    -0.025 A 
ATOM      4  C   UNL     1     -10.977  -0.911   3.123  0.00  0.00    +0.010 A 
ATOM      5  C   UNL     1     -11.921  -1.433   3.982  0.00  0.00    +0.029 A 
ATOM      6  C   UNL     1     -12.998  -0.663   4.383  0.00  0.00    +0.109 A 
ATOM      7  C   UNL     1     -13.136   0.637   3.929  0.00  0.00    +0.029 A 
ATOM      8  C   UNL     1     -12.197   1.175   3.073  0.00  0.00    +0.010 A 
BRANCH   6   9
ATOM      9  S   UNL     1     -14.203  -1.341   5.476  0.00  0.00    +0.072 S 
ATOM     10  O   UNL     1     -13.560  -2.390   6.187  0.00  0.00    -0.150 OA
ATOM     11  O   UNL     1     -14.820  -0.242   6.132  0.00  0.00    -0.150 OA
BRANCH   9  12
ATOM     12  N   UNL     1     -15.370  -2.050   4.539  0.00  0.00    -0.215 N 
ATOM     13  H   UNL     1     -16.410  -1.698   4.596  0.00  0.00    +0.174 HD
BRANCH  12  14
ATOM     14  C   UNL     1     -15.033  -3.097   3.677  0.00  0.00    +0.066 A 
ATOM     15  C   UNL     1     -14.062  -4.018   4.046  0.00  0.00    +0.026 A 
ATOM     16  C   UNL     1     -13.735  -5.055   3.193  0.00  0.00    +0.002 A 
ATOM     17  C   UNL     1     -14.366  -5.170   1.968  0.00  0.00    +0.002 A 
ATOM     18  C   UNL     1     -15.330  -4.251   1.594  0.00  0.00    +0.022 A 
ATOM     19  C   UNL     1     -15.665  -3.215   2.445  0.00  0.00    +0.063 A 
ATOM     20 CL   UNL     1     -16.875  -2.062   1.974  0.00  0.00    -0.082 Cl
ENDBRANCH  12  14
ENDBRANCH   9  12
ENDBRANCH   6   9
ENDBRANCH   2   3
BRANCH   1  22
ATOM     21  N   UNL     1      -6.997   0.040   0.059  0.00  0.00    -0.305 N 
ATOM     22  C   UNL     1      -8.048   0.787   0.451  0.00  0.00    +0.237 C 
ATOM     23  O   UNL     1      -8.165   1.929   0.049  0.00  0.00    -0.271 OA
ATOM     24  H   UNL     1      -6.890  -0.994   0.421  0.00  0.00    +0.150 HD
BRANCH  21  26
ATOM     25  C   UNL     1      -6.467   0.435  -2.296  0.00  0.00    +0.033 C 
ATOM     26  C   UNL     1      -5.995   0.604  -0.851  0.00  0.00    +0.100 C 
BRANCH  26  27
ATOM     27  C   UNL     1      -4.685  -0.116  -0.663  0.00  0.00    -0.026 A 
ATOM     28  C   UNL     1      -4.669  -1.486  -0.472  0.00  0.00    +0.005 A 
ATOM     29  C   UNL     1      -3.469  -2.149  -0.300  0.00  0.00    +0.002 A 
ATOM     30  C   UNL     1      -2.280  -1.446  -0.322  0.00  0.00    +0.023 A 
ATOM     31  C   UNL     1      -2.292  -0.070  -0.508  0.00  0.00    +0.034 A 
ATOM     32  C   UNL     1      -3.500   0.594  -0.681  0.00  0.00    +0.028 A 
BRANCH  31  33
ATOM     33  N   UNL     1      -1.090   0.646  -0.526  0.00  0.00    -0.286 N 
ATOM     34  C   UNL     1      -0.057   0.248   0.243  0.00  0.00    +0.214 C 
ATOM     35  O   UNL     1      -0.199  -0.672   1.021  0.00  0.00    -0.276 OA
ATOM     36  C   UNL     1       1.276   0.942   0.132  0.00  0.00    +0.109 C 
ATOM     37  H   UNL     1      -0.988   1.533  -1.167  0.00  0.00    +0.155 HD
ENDBRANCH  31  33
ENDBRANCH  26  27
ENDBRANCH  21  26
ENDBRANCH   1  22
TORSDOF 8
