REMARK  Name = ZINC42876427
REMARK  8 active torsions:
REMARK  status: ('A' for Active; 'I' for Inactive)
REMARK    1  A    between atoms: C_1  and  C_2
REMARK    2  A    between atoms: C_2  and  C_3
REMARK    3  A    between atoms: C_3  and  C_4
REMARK    4  A    between atoms: C_6  and  C_9
REMARK    5  A    between atoms: C_9  and  O_10
REMARK    6  A    between atoms: O_10  and  C_11
REMARK    7  A    between atoms: C_16  and  C_17
REMARK    8  A    between atoms: C_17  and  O_18
REMARK                            x       y       z     vdW  Elec       q    Type
REMARK                         _______ _______ _______ _____ _____    ______ ____
ROOT
ATOM      1  C   UNL     1      -1.328  -7.445   2.493  0.00  0.00    +0.130 A 
ATOM      2  C   UNL     1      -1.332  -7.119   3.841  0.00  0.00    +0.095 A 
ATOM      3  C   UNL     1      -1.314  -8.122   4.795  0.00  0.00    +0.170 A 
ATOM      4  C   UNL     1      -1.292  -9.457   4.399  0.00  0.00    +0.167 A 
ATOM      5  C   UNL     1      -1.288  -9.778   3.052  0.00  0.00    +0.059 A 
ATOM      6  C   UNL     1      -1.312  -8.775   2.100  0.00  0.00    +0.023 A 
ATOM      7  O   UNL     1      -1.277 -10.244   5.516  0.00  0.00    -0.453 OA
ATOM      8  C   UNL     1      -0.878  -9.374   6.592  0.00  0.00    +0.466 C 
ATOM      9  O   UNL     1      -1.313  -8.072   6.160  0.00  0.00    -0.452 OA
ENDROOT
BRANCH   1  10
ATOM     10  O   UNL     1      -1.346  -6.460   1.555  0.00  0.00    -0.485 OA
BRANCH  10  11
ATOM     11  C   UNL     1      -1.362  -5.113   2.030  0.00  0.00    +0.285 C 
BRANCH  11  14
ATOM     12  C   UNL     1      -1.413  -2.041   0.005  0.00  0.00    +0.079 A 
ATOM     13  N   UNL     1      -1.397  -2.860   1.026  0.00  0.00    -0.246 NA
ATOM     14  C   UNL     1      -1.380  -4.167   0.857  0.00  0.00    +0.086 A 
ATOM     15  C   UNL     1      -1.380  -4.622  -0.422  0.00  0.00    +0.073 A 
ATOM     16  S   UNL     1      -1.412  -3.079  -1.320  0.00  0.00    -0.080 S 
BRANCH  12  17
ATOM     17  C   UNL     1      -1.433  -0.534   0.013  0.00  0.00    +0.062 C 
BRANCH  17  19
ATOM     18  C   UNL     1      -0.019   1.526   0.010  0.00  0.00    +0.004 C 
ATOM     19  C   UNL     1       0.002  -0.004   0.002  0.00  0.00    +0.003 C 
ENDBRANCH  17  19
ENDBRANCH  12  17
ENDBRANCH  11  14
ENDBRANCH  10  11
ENDBRANCH   1  10
BRANCH   6  20
ATOM     20  C   UNL     1      -1.314  -9.127   0.635  0.00  0.00    +0.194 C 
BRANCH  20  21
ATOM     21  O   UNL     1      -1.295 -10.549   0.487  0.00  0.00    -0.390 OA
ATOM     22  H   UNL     1      -1.295 -10.848  -0.432  0.00  0.00    +0.210 HD
ENDBRANCH  20  21
ENDBRANCH   6  20
TORSDOF 7
