REMARK  Name = ZINC63774026
REMARK  13 active torsions:
REMARK  status: ('A' for Active; 'I' for Inactive)
REMARK    1  A    between atoms: C_1  and  C_2
REMARK    2  A    between atoms: C_5  and  N_9
REMARK    3  A    between atoms: C_10  and  C_12
REMARK    4  A    between atoms: C_12  and  N_13
REMARK    5  A    between atoms: N_13  and  C_14
REMARK    6  A    between atoms: C_14  and  C_15
REMARK    7  A    between atoms: C_14  and  C_18
REMARK    8  A    between atoms: C_15  and  C_16
REMARK    9  A    between atoms: C_15  and  C_17
REMARK   10  A    between atoms: N_20  and  C_21
REMARK   11  A    between atoms: C_21  and  C_22
REMARK   12  A    between atoms: C_21  and  C_23
REMARK   13  A    between atoms: C_21  and  C_24
REMARK                            x       y       z     vdW  Elec       q    Type
REMARK                         _______ _______ _______ _____ _____    ______ ____
ROOT
ATOM      1  N   UNL     1      -0.910  -6.867  -2.416  0.00  0.00    +0.392 N 
ATOM      2  H   UNL     1      -1.767  -6.721  -2.928  0.00  0.00    -0.084 HD
ATOM      3  H   UNL     1      -0.192  -6.261  -2.784  0.00  0.00    -0.084 HD
ENDROOT
BRANCH   1   4
ATOM      4  C   UNL     1      -1.129  -6.562  -0.996  0.00  0.00    +0.016 C 
BRANCH   4   6
ATOM      5  N   UNL     1      -1.959  -4.666   0.359  0.00  0.00    -0.286 N 
ATOM      6  C   UNL     1      -1.679  -5.165  -0.861  0.00  0.00    +0.200 C 
ATOM      7  O   UNL     1      -1.869  -4.490  -1.851  0.00  0.00    -0.278 OA
ATOM      8  H   UNL     1      -1.735  -5.175   1.154  0.00  0.00    +0.155 HD
BRANCH   5  13
ATOM      9  C   UNL     1      -4.447   0.411   0.845  0.00  0.00    +0.044 C 
ATOM     10  C   UNL     1      -3.785  -0.937   0.716  0.00  0.00    -0.049 A 
ATOM     11  C   UNL     1      -3.857  -1.630  -0.478  0.00  0.00    +0.005 A 
ATOM     12  C   UNL     1      -3.253  -2.866  -0.600  0.00  0.00    +0.025 A 
ATOM     13  C   UNL     1      -2.572  -3.413   0.479  0.00  0.00    +0.052 A 
ATOM     14  C   UNL     1      -2.501  -2.715   1.678  0.00  0.00    +0.062 A 
ATOM     15  C   UNL     1      -3.103  -1.476   1.791  0.00  0.00    +0.025 A 
ATOM     16 CL   UNL     1      -1.650  -3.395   3.031  0.00  0.00    -0.082 Cl
ENDBRANCH   5  13
ENDBRANCH   4   6
ENDBRANCH   1   4
BRANCH   1  17
ATOM     17  C   UNL     1      -0.488  -8.267  -2.557  0.00  0.00    +0.019 C 
BRANCH  17  18
ATOM     18  C   UNL     1      -0.430  -8.630  -4.018  0.00  0.00    +0.200 C 
ATOM     19  O   UNL     1      -0.322  -7.759  -4.856  0.00  0.00    -0.278 OA
ATOM     20  N   UNL     1      -0.498  -9.922  -4.395  0.00  0.00    -0.312 N 
ATOM     21  H   UNL     1      -0.649 -10.613  -3.732  0.00  0.00    +0.149 HD
BRANCH  20  22
ATOM     22  C   UNL     1      -0.343 -10.283  -5.806  0.00  0.00    +0.026 C 
ATOM     23  C   UNL     1       1.030  -9.825  -6.302  0.00  0.00    +0.031 C 
ATOM     24  C   UNL     1      -0.461 -11.800  -5.961  0.00  0.00    +0.031 C 
ATOM     25  C   UNL     1      -1.436  -9.600  -6.630  0.00  0.00    +0.031 C 
ENDBRANCH  20  22
ENDBRANCH  17  18
BRANCH  17  26
ATOM     26  C   UNL     1       0.897  -8.447  -1.931  0.00  0.00    -0.023 C 
ATOM     27  C   UNL     1       1.310  -9.918  -2.022  0.00  0.00    +0.006 C 
ATOM     28  C   UNL     1       1.913  -7.585  -2.683  0.00  0.00    +0.006 C 
ENDBRANCH  17  26
ENDBRANCH   1  17
TORSDOF 7
