REMARK  Name = ZINC37783415
REMARK  6 active torsions:
REMARK  status: ('A' for Active; 'I' for Inactive)
REMARK    1  A    between atoms: C_1  and  C_2
REMARK    2  A    between atoms: C_5  and  N_10
REMARK    3  A    between atoms: C_6  and  O_8
REMARK    4  A    between atoms: O_8  and  C_9
REMARK    5  A    between atoms: N_10  and  C_11
REMARK    6  A    between atoms: N_20  and  C_21
REMARK                            x       y       z     vdW  Elec       q    Type
REMARK                         _______ _______ _______ _____ _____    ______ ____
ROOT
ATOM      1  N   UNL     1       0.057  -4.173  -0.030  0.00  0.00    -0.334 N 
ATOM      2  H   UNL     1       0.068  -4.665   0.806  0.00  0.00    +0.147 HD
ENDROOT
BRANCH   1   3
ATOM      3  C   UNL     1       0.060  -4.896  -1.305  0.00  0.00    +0.104 C 
ATOM      4  C   UNL     1       0.677  -6.286  -1.109  0.00  0.00    +0.027 C 
ATOM      5  C   UNL     1       0.448  -7.129  -2.366  0.00  0.00    +0.008 C 
ATOM      6  C   UNL     1      -1.040  -7.487  -2.478  0.00  0.00    +0.055 C 
ATOM      7  C   UNL     1      -1.846  -6.223  -2.315  0.00  0.00    +0.044 A 
ATOM      8  C   UNL     1      -1.356  -5.068  -1.794  0.00  0.00    +0.013 A 
ATOM      9  C   UNL     1      -2.380  -4.123  -1.803  0.00  0.00    +0.140 A 
ATOM     10  N   UNL     1      -3.449  -4.686  -2.310  0.00  0.00    -0.179 NA
ATOM     11  N   UNL     1      -3.133  -6.015  -2.638  0.00  0.00    -0.271 N 
ATOM     12  C   UNL     1      -4.044  -6.998  -3.229  0.00  0.00    +0.172 C 
ENDBRANCH   1   3
BRANCH   1  17
ATOM     13  C   UNL     1      -0.018   1.503   0.010  0.00  0.00    +0.044 C 
ATOM     14  C   UNL     1       0.002  -0.004   0.002  0.00  0.00    -0.047 A 
ATOM     15  C   UNL     1       0.006  -0.687  -1.200  0.00  0.00    +0.005 A 
ATOM     16  C   UNL     1       0.024  -2.069  -1.214  0.00  0.00    +0.027 A 
ATOM     17  C   UNL     1       0.039  -2.774  -0.019  0.00  0.00    +0.070 A 
ATOM     18  C   UNL     1       0.036  -2.085   1.192  0.00  0.00    +0.141 A 
ATOM     19  C   UNL     1       0.023  -0.700   1.197  0.00  0.00    +0.051 A 
BRANCH  18  20
ATOM     20  O   UNL     1       0.050  -2.771   2.366  0.00  0.00    -0.493 OA
ATOM     21  C   UNL     1       0.046  -1.998   3.569  0.00  0.00    +0.277 C 
ENDBRANCH  18  20
ENDBRANCH   1  17
TORSDOF 3
