REMARK  Name = ZINC19458494
REMARK  6 active torsions:
REMARK  status: ('A' for Active; 'I' for Inactive)
REMARK    1  A    between atoms: C_1  and  C_2
REMARK    2  A    between atoms: C_2  and  C_4
REMARK    3  A    between atoms: C_2  and  N_14
REMARK    4  A    between atoms: C_15  and  C_17
REMARK    5  A    between atoms: C_26  and  N_29
REMARK    6  A    between atoms: C_30  and  C_32
REMARK                            x       y       z     vdW  Elec       q    Type
REMARK                         _______ _______ _______ _____ _____    ______ ____
ROOT
ATOM      1  N   UNL     1       0.711  -0.489   1.189  0.00  0.00    -0.305 N 
ATOM      2  C   UNL     1       0.051  -0.633   2.355  0.00  0.00    +0.220 C 
ATOM      3  O   UNL     1      -1.129  -0.361   2.423  0.00  0.00    -0.275 OA
ATOM      4  H   UNL     1       1.654  -0.707   1.135  0.00  0.00    +0.149 HD
ENDROOT
BRANCH   2   5
ATOM      5  C   UNL     1       0.780  -1.133   3.576  0.00  0.00    +0.049 C 
ATOM      6  C   UNL     1       1.347  -2.526   3.298  0.00  0.00    +0.020 C 
ATOM      7  C   UNL     1       2.087  -3.033   4.537  0.00  0.00    -0.008 C 
ATOM      8  C   UNL     1       3.231  -2.075   4.875  0.00  0.00    +0.007 C 
ATOM      9  C   UNL     1       2.664  -0.682   5.154  0.00  0.00    -0.008 C 
ATOM     10  C   UNL     1       1.924  -0.175   3.914  0.00  0.00    +0.020 C 
ATOM     11  C   UNL     1       1.693  -0.753   6.334  0.00  0.00    +0.029 C 
ATOM     12  C   UNL     1       0.549  -1.711   5.996  0.00  0.00    +0.036 C 
ATOM     13  C   UNL     1       1.116  -3.104   5.717  0.00  0.00    +0.029 C 
ATOM     14  C   UNL     1      -0.191  -1.204   4.756  0.00  0.00    +0.042 C 
BRANCH  12  15
ATOM     15  N   UNL     1      -0.381  -1.779   7.126  0.00  0.00    -0.310 N 
ATOM     16  C   UNL     1       0.052  -2.201   8.331  0.00  0.00    +0.210 C 
ATOM     17  O   UNL     1       1.212  -2.525   8.479  0.00  0.00    -0.276 OA
ATOM     18  C   UNL     1      -0.904  -2.271   9.493  0.00  0.00    +0.109 C 
ATOM     19  H   UNL     1      -1.308  -1.520   7.007  0.00  0.00    +0.149 HD
ENDBRANCH  12  15
ENDBRANCH   2   5
BRANCH   1  21
ATOM     20  C   UNL     1      -0.019   1.526   0.010  0.00  0.00    +0.036 C 
ATOM     21  C   UNL     1       0.002  -0.004   0.002  0.00  0.00    +0.136 C 
BRANCH  21  22
ATOM     22  C   UNL     1       0.707  -0.490  -1.238  0.00  0.00    +0.126 A 
ATOM     23  C   UNL     1       0.096  -0.923  -2.349  0.00  0.00    +0.055 A 
ATOM     24  C   UNL     1       1.163  -1.291  -3.287  0.00  0.00    +0.022 A 
ATOM     25  C   UNL     1       1.187  -1.798  -4.585  0.00  0.00    +0.031 A 
ATOM     26  C   UNL     1       2.397  -2.039  -5.200  0.00  0.00    +0.042 A 
ATOM     27  C   UNL     1       3.585  -1.780  -4.530  0.00  0.00    +0.023 A 
ATOM     28  C   UNL     1       3.574  -1.279  -3.246  0.00  0.00    +0.048 A 
ATOM     29  C   UNL     1       2.365  -1.028  -2.610  0.00  0.00    +0.135 A 
ATOM     30  O   UNL     1       2.042  -0.547  -1.392  0.00  0.00    -0.458 OA
ATOM     31 CL   UNL     1       2.435  -2.671  -6.816  0.00  0.00    -0.084 Cl
ENDBRANCH  21  22
ENDBRANCH   1  21
TORSDOF 4
