REMARK  Name = ZINC49778614
REMARK  11 active torsions:
REMARK  status: ('A' for Active; 'I' for Inactive)
REMARK    1  A    between atoms: C_1  and  C_2
REMARK    2  A    between atoms: C_2  and  C_4
REMARK    3  A    between atoms: C_2  and  N_12
REMARK    4  A    between atoms: C_9  and  O_10
REMARK    5  A    between atoms: O_10  and  C_11
REMARK    6  A    between atoms: N_15  and  C_16
REMARK    7  A    between atoms: N_15  and  C_17
REMARK    8  A    between atoms: C_17  and  C_19
REMARK    9  A    between atoms: C_17  and  C_20
REMARK   10  A    between atoms: C_25  and  O_26
REMARK   11  A    between atoms: O_26  and  C_27
REMARK                            x       y       z     vdW  Elec       q    Type
REMARK                         _______ _______ _______ _____ _____    ______ ____
ROOT
ATOM      1  N   UNL     1       0.676  -0.698   1.283  0.00  0.00    -0.293 N 
ATOM      2  C   UNL     1       2.023  -0.719   1.269  0.00  0.00    +0.303 C 
ATOM      3  O   UNL     1       2.627  -0.333   0.286  0.00  0.00    -0.253 OA
ATOM      4  N   UNL     1       2.702  -1.166   2.344  0.00  0.00    -0.282 N 
ATOM      5  C   UNL     1       1.975  -1.631   3.528  0.00  0.00    +0.134 C 
ATOM      6  H   UNL     1       0.194  -1.006   2.067  0.00  0.00    +0.151 HD
ENDROOT
BRANCH   1   8
ATOM      7  C   UNL     1      -0.185   1.312   0.187  0.00  0.00    +0.033 C 
ATOM      8  C   UNL     1      -0.062  -0.212   0.115  0.00  0.00    +0.105 C 
BRANCH   8   9
ATOM      9  C   UNL     1      -1.438  -0.826   0.098  0.00  0.00    +0.014 A 
ATOM     10  C   UNL     1      -2.019  -1.254   1.276  0.00  0.00    +0.009 A 
ATOM     11  C   UNL     1      -3.281  -1.818   1.261  0.00  0.00    +0.001 A 
ATOM     12  C   UNL     1      -3.965  -1.956   0.067  0.00  0.00    +0.004 A 
ATOM     13  C   UNL     1      -3.389  -1.529  -1.113  0.00  0.00    +0.046 A 
ATOM     14  C   UNL     1      -2.125  -0.958  -1.100  0.00  0.00    +0.125 A 
BRANCH  14  15
ATOM     15  O   UNL     1      -1.558  -0.533  -2.260  0.00  0.00    -0.495 OA
ATOM     16  C   UNL     1      -2.323  -0.700  -3.455  0.00  0.00    +0.277 C 
ENDBRANCH  14  15
ENDBRANCH   8   9
ENDBRANCH   1   8
BRANCH   4  17
ATOM     17  C   UNL     1       4.167  -1.188   2.329  0.00  0.00    +0.108 C 
ATOM     18  C   UNL     1       4.656  -2.636   2.402  0.00  0.00    +0.033 C 
BRANCH  17  19
ATOM     19  C   UNL     1       4.693  -0.419   3.513  0.00  0.00    +0.014 A 
ATOM     20  C   UNL     1       5.199  -1.095   4.607  0.00  0.00    +0.009 A 
ATOM     21  C   UNL     1       5.681  -0.391   5.694  0.00  0.00    +0.001 A 
ATOM     22  C   UNL     1       5.660   0.992   5.689  0.00  0.00    +0.004 A 
ATOM     23  C   UNL     1       5.156   1.672   4.598  0.00  0.00    +0.046 A 
ATOM     24  C   UNL     1       4.676   0.968   3.504  0.00  0.00    +0.125 A 
BRANCH  24  25
ATOM     25  O   UNL     1       4.184   1.635   2.427  0.00  0.00    -0.495 OA
ATOM     26  C   UNL     1       4.197   3.063   2.487  0.00  0.00    +0.277 C 
ENDBRANCH  24  25
ENDBRANCH  17  19
ENDBRANCH   4  17
TORSDOF 6
