REMARK  Name = ZINC66201610
REMARK  17 active torsions:
REMARK  status: ('A' for Active; 'I' for Inactive)
REMARK    1  A    between atoms: C_1  and  C_2
REMARK    2  A    between atoms: C_5  and  C_39
REMARK    3  A    between atoms: C_6  and  O_8
REMARK    4  A    between atoms: O_8  and  C_9
REMARK    5  A    between atoms: C_9  and  C_10
REMARK    6  A    between atoms: C_10  and  C_11
REMARK    7  A    between atoms: C_11  and  C_12
REMARK    8  A    between atoms: C_12  and  C_13
REMARK    9  A    between atoms: C_12  and  C_14
REMARK   10  A    between atoms: C_12  and  C_15
REMARK   11  A    between atoms: N_17  and  C_18
REMARK   12  A    between atoms: C_18  and  N_20
REMARK   13  A    between atoms: N_20  and  C_21
REMARK   14  A    between atoms: C_26  and  C_27
REMARK   15  A    between atoms: N_29  and  C_30
REMARK   16  A    between atoms: C_30  and  C_32
REMARK   17  A    between atoms: C_30  and  C_33
REMARK                            x       y       z     vdW  Elec       q    Type
REMARK                         _______ _______ _______ _____ _____    ______ ____
ROOT
ATOM      1  C   UNL     1       0.313  -2.190  10.872  0.00  0.00    +0.141 C 
ATOM      2  S   UNL     1       0.613  -0.507  10.779  0.00  0.00    -0.018 S 
ENDROOT
BRANCH   1   5
ATOM      3  C   UNL     1       0.534  -2.357   8.554  0.00  0.00    +0.224 C 
ATOM      4  O   UNL     1       0.747  -1.165   8.488  0.00  0.00    -0.275 OA
ATOM      5  N   UNL     1       0.305  -2.936   9.749  0.00  0.00    -0.267 N 
ATOM      6  H   UNL     1       0.136  -3.889   9.802  0.00  0.00    +0.157 HD
BRANCH   3   7
ATOM      7  C   UNL     1       0.526  -3.191   7.299  0.00  0.00    +0.042 C 
ATOM      8  C   UNL     1      -0.845  -3.851   7.134  0.00  0.00    +0.020 C 
ATOM      9  C   UNL     1       1.604  -4.272   7.398  0.00  0.00    +0.020 C 
BRANCH   7  10
ATOM     10  C   UNL     1       0.810  -2.297   6.090  0.00  0.00    +0.019 C 
BRANCH  10  11
ATOM     11  C   UNL     1       0.802  -3.144   4.816  0.00  0.00    +0.042 C 
BRANCH  11  12
ATOM     12  C   UNL     1       1.087  -2.250   3.608  0.00  0.00    +0.229 C 
BRANCH  12  13
ATOM     13  O   UNL     1       1.079  -3.041   2.417  0.00  0.00    -0.492 OA
BRANCH  13  19
ATOM     14  C   UNL     1       2.050   1.112   0.044  0.00  0.00    +0.044 C 
ATOM     15  C   UNL     1       1.794  -0.373   0.049  0.00  0.00    -0.047 A 
ATOM     16  C   UNL     1       1.800  -1.079  -1.139  0.00  0.00    +0.004 A 
ATOM     17  C   UNL     1       1.566  -2.442  -1.138  0.00  0.00    +0.007 A 
ATOM     18  C   UNL     1       1.324  -3.101   0.052  0.00  0.00    -0.009 A 
ATOM     19  C   UNL     1       1.317  -2.394   1.246  0.00  0.00    +0.124 A 
ATOM     20  C   UNL     1       1.558  -1.028   1.242  0.00  0.00    +0.049 A 
ATOM     21  C   UNL     1       1.067  -4.586   0.053  0.00  0.00    +0.047 C 
ENDBRANCH  13  19
ENDBRANCH  12  13
ENDBRANCH  11  12
ENDBRANCH  10  11
ENDBRANCH   7  10
ENDBRANCH   3   7
ENDBRANCH   1   5
BRANCH   1  22
ATOM     22  N   UNL     1       0.084  -2.769  12.067  0.00  0.00    -0.296 N 
ATOM     23  H   UNL     1      -0.154  -3.708  12.114  0.00  0.00    +0.154 HD
BRANCH  22  24
ATOM     24  C   UNL     1       0.189  -2.019  13.235  0.00  0.00    +0.045 A 
ATOM     25  C   UNL     1      -0.417  -0.773  13.322  0.00  0.00    +0.024 A 
ATOM     26  C   UNL     1      -0.312  -0.031  14.481  0.00  0.00    +0.002 A 
ATOM     27  C   UNL     1       0.398  -0.522  15.565  0.00  0.00    +0.001 A 
ATOM     28  C   UNL     1       1.007  -1.756  15.498  0.00  0.00    +0.015 A 
ATOM     29  C   UNL     1       0.904  -2.521  14.333  0.00  0.00    +0.058 A 
BRANCH  29  30
ATOM     30  C   UNL     1       1.548  -3.846  14.256  0.00  0.00    +0.246 C 
ATOM     31  O   UNL     1       1.543  -4.465  13.210  0.00  0.00    -0.270 OA
ATOM     32  N   UNL     1       2.142  -4.370  15.346  0.00  0.00    -0.305 N 
ATOM     33  H   UNL     1       2.147  -3.877  16.181  0.00  0.00    +0.150 HD
BRANCH  32  34
ATOM     34  C   UNL     1       2.782  -5.686  15.270  0.00  0.00    +0.100 C 
ATOM     35  C   UNL     1       4.211  -5.529  14.747  0.00  0.00    +0.033 C 
BRANCH  34  36
ATOM     36  C   UNL     1       2.815  -6.309  16.642  0.00  0.00    -0.027 A 
ATOM     37  C   UNL     1       3.091  -5.529  17.749  0.00  0.00    +0.005 A 
ATOM     38  C   UNL     1       3.121  -6.100  19.007  0.00  0.00    +0.000 A 
ATOM     39  C   UNL     1       2.874  -7.452  19.159  0.00  0.00    +0.000 A 
ATOM     40  C   UNL     1       2.597  -8.232  18.052  0.00  0.00    +0.000 A 
ATOM     41  C   UNL     1       2.562  -7.660  16.794  0.00  0.00    +0.005 A 
ENDBRANCH  34  36
ENDBRANCH  32  34
ENDBRANCH  29  30
ENDBRANCH  22  24
ENDBRANCH   1  22
TORSDOF 12
