REMARK  Name = ZINC66977549
REMARK  8 active torsions:
REMARK  status: ('A' for Active; 'I' for Inactive)
REMARK    1  A    between atoms: C_1  and  C_2
REMARK    2  A    between atoms: C_2  and  C_3
REMARK    3  A    between atoms: C_3  and  C_4
REMARK    4  A    between atoms: C_7  and  N_10
REMARK    5  A    between atoms: N_13  and  C_14
REMARK    6  A    between atoms: N_13  and  C_15
REMARK    7  A    between atoms: C_15  and  C_17
REMARK    8  A    between atoms: C_15  and  C_24
REMARK                            x       y       z     vdW  Elec       q    Type
REMARK                         _______ _______ _______ _____ _____    ______ ____
ROOT
ATOM      1  N   UNL     1      -0.056  -4.362   3.811  0.00  0.00    -0.296 N 
ATOM      2  C   UNL     1       0.061  -4.909   5.038  0.00  0.00    +0.303 C 
ATOM      3  O   UNL     1       0.825  -5.837   5.219  0.00  0.00    -0.253 OA
ATOM      4  N   UNL     1      -0.668  -4.425   6.063  0.00  0.00    -0.275 N 
ATOM      5  C   UNL     1      -1.589  -3.307   5.844  0.00  0.00    +0.134 C 
ATOM      6  H   UNL     1      -0.666  -3.622   3.666  0.00  0.00    +0.151 HD
ENDROOT
BRANCH   1  10
ATOM      7  C   UNL     1       1.249  -2.408   1.222  0.00  0.00    -0.011 C 
ATOM      8  C   UNL     1      -0.132  -3.067   1.221  0.00  0.00    +0.005 C 
ATOM      9  C   UNL     1       0.026  -4.581   1.377  0.00  0.00    +0.022 C 
ATOM     10  C   UNL     1       0.736  -4.888   2.697  0.00  0.00    +0.074 C 
ATOM     11  C   UNL     1       2.117  -4.228   2.698  0.00  0.00    +0.022 C 
ATOM     12  C   UNL     1       1.960  -2.714   2.543  0.00  0.00    +0.005 C 
BRANCH   7  13
ATOM     13  C   UNL     1       1.091  -0.894   1.067  0.00  0.00    +0.003 C 
BRANCH  13  15
ATOM     14  C   UNL     1       0.337   0.932  -0.462  0.00  0.00    +0.004 C 
ATOM     15  C   UNL     1       0.495  -0.582  -0.306  0.00  0.00    -0.003 C 
ENDBRANCH  13  15
ENDBRANCH   7  13
ENDBRANCH   1  10
BRANCH   4  16
ATOM     16  C   UNL     1      -0.541  -5.019   7.396  0.00  0.00    +0.175 C 
BRANCH  16  17
ATOM     17  C   UNL     1      -1.886  -5.523   7.852  0.00  0.00    -0.019 A 
ATOM     18  C   UNL     1      -2.961  -4.656   7.922  0.00  0.00    +0.009 A 
ATOM     19  C   UNL     1      -4.195  -5.117   8.339  0.00  0.00    +0.038 A 
ATOM     20  C   UNL     1      -4.355  -6.447   8.689  0.00  0.00    +0.123 A 
ATOM     21  C   UNL     1      -3.278  -7.314   8.619  0.00  0.00    +0.038 A 
ATOM     22  C   UNL     1      -2.046  -6.852   8.196  0.00  0.00    +0.009 A 
ATOM     23  F   UNL     1      -5.561  -6.899   9.098  0.00  0.00    -0.205 F 
ENDBRANCH  16  17
BRANCH  16  24
ATOM     24  C   UNL     1      -0.040  -3.978   8.364  0.00  0.00    +0.154 A 
ATOM     25  N   UNL     1      -0.577  -2.775   8.346  0.00  0.00    -0.238 NA
ATOM     26  C   UNL     1      -0.163  -1.835   9.181  0.00  0.00    +0.114 A 
ATOM     27  C   UNL     1       0.849  -2.131  10.081  0.00  0.00    +0.039 A 
ATOM     28  C   UNL     1       1.389  -3.407  10.069  0.00  0.00    +0.114 A 
ATOM     29  N   UNL     1       0.920  -4.297   9.208  0.00  0.00    -0.238 NA
ENDBRANCH  16  24
ENDBRANCH   4  16
TORSDOF 6
