REMARK  Name = ZINC27256779
REMARK  6 active torsions:
REMARK  status: ('A' for Active; 'I' for Inactive)
REMARK    1  A    between atoms: C_1  and  C_2
REMARK    2  A    between atoms: C_3  and  C_21
REMARK    3  A    between atoms: C_7  and  N_8
REMARK    4  A    between atoms: C_9  and  C_11
REMARK    5  A    between atoms: C_15  and  N_18
REMARK    6  A    between atoms: C_16  and  C_17
REMARK                            x       y       z     vdW  Elec       q    Type
REMARK                         _______ _______ _______ _____ _____    ______ ____
ROOT
ATOM      1  N   UNL     1      -6.593   1.105   1.039  0.00  0.00    -0.281 N 
ATOM      2  C   UNL     1      -7.664   0.337   1.318  0.00  0.00    +0.249 C 
ATOM      3  O   UNL     1      -7.547  -0.872   1.372  0.00  0.00    -0.270 OA
ATOM      4  H   UNL     1      -6.681   2.201   1.061  0.00  0.00    +0.155 HD
ENDROOT
BRANCH   1  11
ATOM      5  C   UNL     1      -4.207   2.474   1.758  0.00  0.00    +0.046 C 
ATOM      6  C   UNL     1      -4.181   1.143   1.052  0.00  0.00    -0.017 A 
ATOM      7  C   UNL     1      -2.963   0.547   0.727  0.00  0.00    +0.041 A 
ATOM      8  C   UNL     1      -2.947  -0.689   0.078  0.00  0.00    +0.013 A 
ATOM      9  C   UNL     1      -4.135  -1.315  -0.244  0.00  0.00    +0.003 A 
ATOM     10  C   UNL     1      -5.342  -0.721   0.073  0.00  0.00    +0.023 A 
ATOM     11  C   UNL     1      -5.368   0.509   0.719  0.00  0.00    +0.037 A 
BRANCH   7  12
ATOM     12  C   UNL     1      -1.692   1.219   1.074  0.00  0.00    +0.242 C 
ATOM     13  O   UNL     1      -1.706   2.343   1.536  0.00  0.00    -0.270 OA
ATOM     14  N   UNL     1      -0.519   0.585   0.877  0.00  0.00    -0.325 N 
ATOM     15  H   UNL     1       0.426   1.085   1.135  0.00  0.00    +0.145 HD
ATOM     16  H   UNL     1      -0.507  -0.432   0.458  0.00  0.00    +0.145 HD
ENDBRANCH   7  12
ENDBRANCH   1  11
BRANCH   2  17
ATOM     17  C   UNL     1      -8.981   0.963   1.560  0.00  0.00    +0.042 A 
ATOM     18  C   UNL     1      -9.093   2.353   1.634  0.00  0.00    +0.013 A 
ATOM     19  C   UNL     1     -10.324   2.931   1.860  0.00  0.00    +0.003 A 
ATOM     20  C   UNL     1     -11.447   2.138   2.012  0.00  0.00    +0.033 A 
ATOM     21  C   UNL     1     -11.344   0.760   1.939  0.00  0.00    +0.130 A 
ATOM     22  C   UNL     1     -10.118   0.169   1.708  0.00  0.00    -0.008 A 
ATOM     23  C   UNL     1     -10.008  -1.332   1.623  0.00  0.00    +0.047 C 
BRANCH  21  24
ATOM     24  N   UNL     1     -12.550  -0.081   2.103  0.00  0.00    +0.057 N 
ATOM     25  O   UNL     1     -13.651   0.437   2.157  0.00  0.00    -0.126 OA
ATOM     26  O   UNL     1     -12.442  -1.292   2.184  0.00  0.00    -0.126 OA
ENDBRANCH  21  24
ENDBRANCH   2  17
TORSDOF 4
