REMARK  Name = ZINC46759105
REMARK  15 active torsions:
REMARK  status: ('A' for Active; 'I' for Inactive)
REMARK    1  A    between atoms: C_1  and  C_2
REMARK    2  A    between atoms: C_5  and  S_8
REMARK    3  A    between atoms: S_8  and  N_11
REMARK    4  A    between atoms: N_11  and  C_12
REMARK    5  A    between atoms: C_12  and  C_14
REMARK    6  A    between atoms: C_12  and  C_18
REMARK    7  A    between atoms: C_14  and  C_15
REMARK    8  A    between atoms: C_15  and  S_16
REMARK    9  A    between atoms: S_16  and  C_17
REMARK   10  A    between atoms: N_20  and  C_21
REMARK   11  A    between atoms: C_21  and  C_22
REMARK   12  A    between atoms: C_25  and  N_28
REMARK   13  A    between atoms: N_31  and  C_32
REMARK   14  A    between atoms: C_32  and  C_33
REMARK   15  A    between atoms: C_32  and  C_34
REMARK                            x       y       z     vdW  Elec       q    Type
REMARK                         _______ _______ _______ _____ _____    ______ ____
ROOT
ATOM      1  C   UNL     1       4.251  -4.287   0.543  0.00  0.00    +0.232 C 
ATOM      2  O   UNL     1       4.428  -4.220  -0.655  0.00  0.00    -0.274 OA
ATOM      3  N   UNL     1       5.135  -3.719   1.387  0.00  0.00    -0.310 N 
ATOM      4  H   UNL     1       4.993  -3.773   2.345  0.00  0.00    +0.149 HD
ENDROOT
BRANCH   1   5
ATOM      5  C   UNL     1       3.044  -5.006   1.087  0.00  0.00    +0.163 C 
BRANCH   5   6
ATOM      6  N   UNL     1       2.246  -5.531  -0.024  0.00  0.00    -0.178 NA
ATOM      7  H   UNL     1       2.608  -6.228  -0.595  0.00  0.00    +0.149 HD
BRANCH   6   8
ATOM      8  S   UNL     1       0.727  -4.936  -0.306  0.00  0.00    +0.059 S 
ATOM      9  O   UNL     1       0.038  -4.975   0.936  0.00  0.00    -0.153 OA
ATOM     10  O   UNL     1       0.241  -5.596  -1.468  0.00  0.00    -0.153 OA
BRANCH   8  15
ATOM     11  C   UNL     1       1.331   0.888  -1.760  0.00  0.00    +0.044 C 
ATOM     12  C   UNL     1       1.180  -0.566  -1.397  0.00  0.00    -0.050 A 
ATOM     13  C   UNL     1       1.209  -1.532  -2.386  0.00  0.00    +0.005 A 
ATOM     14  C   UNL     1       1.071  -2.867  -2.053  0.00  0.00    +0.029 A 
ATOM     15  C   UNL     1       0.904  -3.235  -0.731  0.00  0.00    +0.105 A 
ATOM     16  C   UNL     1       0.876  -2.270   0.258  0.00  0.00    +0.029 A 
ATOM     17  C   UNL     1       1.018  -0.936  -0.075  0.00  0.00    +0.005 A 
ENDBRANCH   8  15
ENDBRANCH   6   8
ENDBRANCH   5   6
BRANCH   5  18
ATOM     18  C   UNL     1       3.499  -6.163   1.979  0.00  0.00    +0.040 C 
BRANCH  18  19
ATOM     19  C   UNL     1       2.277  -6.821   2.623  0.00  0.00    +0.071 C 
BRANCH  19  20
ATOM     20  S   UNL     1       2.804  -8.271   3.578  0.00  0.00    -0.164 S 
ATOM     21  C   UNL     1       1.259  -8.928   4.267  0.00  0.00    +0.084 C 
ENDBRANCH  19  20
ENDBRANCH  18  19
ENDBRANCH   5  18
ENDBRANCH   1   5
BRANCH   3  22
ATOM     22  C   UNL     1       6.308  -3.020   0.858  0.00  0.00    +0.139 C 
BRANCH  22  23
ATOM     23  C   UNL     1       7.129  -2.480   2.001  0.00  0.00    -0.030 A 
ATOM     24  C   UNL     1       6.876  -1.213   2.494  0.00  0.00    +0.007 A 
ATOM     25  C   UNL     1       7.626  -0.715   3.541  0.00  0.00    +0.023 A 
ATOM     26  C   UNL     1       8.635  -1.488   4.099  0.00  0.00    +0.035 A 
ATOM     27  C   UNL     1       8.886  -2.761   3.603  0.00  0.00    +0.023 A 
ATOM     28  C   UNL     1       8.129  -3.255   2.559  0.00  0.00    +0.007 A 
BRANCH  26  29
ATOM     29  N   UNL     1       9.397  -0.987   5.161  0.00  0.00    -0.269 N 
ATOM     30  C   UNL     1       9.708   0.324   5.207  0.00  0.00    +0.304 C 
ATOM     31  O   UNL     1       9.254   1.086   4.375  0.00  0.00    -0.253 OA
ATOM     32  N   UNL     1      10.521   0.790   6.175  0.00  0.00    -0.297 N 
ATOM     33  H   UNL     1       9.703  -1.583   5.863  0.00  0.00    +0.156 HD
ATOM     34  H   UNL     1      10.883   0.182   6.839  0.00  0.00    +0.151 HD
BRANCH  32  35
ATOM     35  C   UNL     1      10.858   2.215   6.226  0.00  0.00    +0.068 C 
ATOM     36  C   UNL     1      11.228   2.601   7.659  0.00  0.00    +0.027 C 
ATOM     37  C   UNL     1      12.044   2.491   5.300  0.00  0.00    +0.027 C 
ENDBRANCH  32  35
ENDBRANCH  26  29
ENDBRANCH  22  23
ENDBRANCH   3  22
TORSDOF 11
