REMARK  Name = ZINC13124771
REMARK  9 active torsions:
REMARK  status: ('A' for Active; 'I' for Inactive)
REMARK    1  A    between atoms: C_1  and  C_2
REMARK    2  A    between atoms: C_7  and  N_8
REMARK    3  A    between atoms: C_9  and  C_11
REMARK    4  A    between atoms: C_12  and  C_31
REMARK    5  A    between atoms: C_16  and  C_27
REMARK    6  A    between atoms: C_19  and  C_21
REMARK    7  A    between atoms: C_27  and  C_28
REMARK    8  A    between atoms: C_28  and  C_29
REMARK    9  A    between atoms: C_29  and  O_30
REMARK                            x       y       z     vdW  Elec       q    Type
REMARK                         _______ _______ _______ _____ _____    ______ ____
ROOT
ATOM      1  C   UNL     1       0.114   0.173   4.707  0.00  0.00    +0.060 C 
ATOM      2  C   UNL     1       0.201  -0.453   5.889  0.00  0.00    +0.018 C 
ATOM      3  N   UNL     1       0.225   0.232   7.080  0.00  0.00    -0.287 N 
ATOM      4  C   UNL     1      -0.108   1.579   7.048  0.00  0.00    +0.219 A 
ATOM      5  N   UNL     1      -0.379   2.403   8.023  0.00  0.00    -0.198 NA
ATOM      6  C   UNL     1      -0.652   3.613   7.524  0.00  0.00    +0.153 A 
ATOM      7  N   UNL     1      -0.556   3.571   6.218  0.00  0.00    -0.153 NA
ATOM      8  N   UNL     1      -0.202   2.266   5.882  0.00  0.00    -0.220 N 
ATOM      9  C   UNL     1       0.051   1.671   4.572  0.00  0.00    +0.179 C 
ATOM     10  C   UNL     1       0.277  -1.958   5.914  0.00  0.00    +0.061 C 
ATOM     11  H   UNL     1       0.464  -0.209   7.910  0.00  0.00    +0.155 HD
ENDROOT
BRANCH   9  12
ATOM     12  C   UNL     1       1.359   2.181   4.026  0.00  0.00    -0.000 A 
ATOM     13  C   UNL     1       1.396   2.881   2.830  0.00  0.00    +0.009 A 
ATOM     14  C   UNL     1       2.622   3.332   2.366  0.00  0.00    +0.020 A 
ATOM     15  C   UNL     1       3.760   3.071   3.107  0.00  0.00    +0.111 A 
ATOM     16  N   UNL     1       3.687   2.401   4.241  0.00  0.00    -0.263 NA
ATOM     17  C   UNL     1       2.537   1.963   4.715  0.00  0.00    +0.116 A 
ENDBRANCH   9  12
BRANCH   1  19
ATOM     18  N   UNL     1       1.198  -1.247   3.115  0.00  0.00    -0.281 N 
ATOM     19  C   UNL     1       0.084  -0.612   3.530  0.00  0.00    +0.248 C 
ATOM     20  O   UNL     1      -0.948  -0.714   2.891  0.00  0.00    -0.270 OA
ATOM     21  H   UNL     1       2.005  -1.212   3.653  0.00  0.00    +0.155 HD
BRANCH  18  28
ATOM     22  C   UNL     1       3.579  -1.269   1.557  0.00  0.00    +0.045 C 
ATOM     23  C   UNL     1       2.332  -1.993   1.118  0.00  0.00    -0.029 A 
ATOM     24  C   UNL     1       2.324  -2.699  -0.069  0.00  0.00    +0.005 A 
ATOM     25  C   UNL     1       1.181  -3.364  -0.472  0.00  0.00    +0.000 A 
ATOM     26  C   UNL     1       0.041  -3.324   0.311  0.00  0.00    +0.002 A 
ATOM     27  C   UNL     1       0.043  -2.620   1.499  0.00  0.00    +0.023 A 
ATOM     28  C   UNL     1       1.192  -1.956   1.910  0.00  0.00    +0.037 A 
ENDBRANCH  18  28
ENDBRANCH   1  19
BRANCH   6  29
ATOM     29  C   UNL     1      -1.014   4.830   8.335  0.00  0.00    +0.080 C 
BRANCH  29  30
ATOM     30  C   UNL     1       0.259   5.596   8.701  0.00  0.00    +0.035 C 
BRANCH  30  31
ATOM     31  C   UNL     1      -0.108   6.833   9.524  0.00  0.00    +0.156 C 
BRANCH  31  32
ATOM     32  O   UNL     1       1.081   7.548   9.865  0.00  0.00    -0.395 OA
ATOM     33  H   UNL     1       0.923   8.345  10.389  0.00  0.00    +0.209 HD
ENDBRANCH  31  32
ENDBRANCH  30  31
ENDBRANCH  29  30
ENDBRANCH   6  29
TORSDOF 7
