REMARK  Name = ZINC07557803
REMARK  7 active torsions:
REMARK  status: ('A' for Active; 'I' for Inactive)
REMARK    1  A    between atoms: C_1  and  C_2
REMARK    2  A    between atoms: C_8  and  N_10
REMARK    3  A    between atoms: N_10  and  C_11
REMARK    4  A    between atoms: C_11  and  N_13
REMARK    5  A    between atoms: N_13  and  N_14
REMARK    6  A    between atoms: C_15  and  C_17
REMARK    7  A    between atoms: C_21  and  N_23
REMARK                            x       y       z     vdW  Elec       q    Type
REMARK                         _______ _______ _______ _____ _____    ______ ____
ROOT
ATOM      1  N   UNL     1       0.017   0.578  -4.702  0.00  0.00    -0.246 N 
ATOM      2  H   UNL     1       0.492   0.682  -5.542  0.00  0.00    +0.172 HD
ENDROOT
BRANCH   1   3
ATOM      3  N   UNL     1      -1.346   0.893  -4.625  0.00  0.00    -0.231 N 
ATOM      4  C   UNL     1      -1.998   1.339  -5.716  0.00  0.00    +0.260 C 
ATOM      5  O   UNL     1      -1.403   1.469  -6.769  0.00  0.00    -0.269 OA
ATOM      6  H   UNL     1      -1.820   0.789  -3.785  0.00  0.00    +0.173 HD
BRANCH   4   7
ATOM      7  C   UNL     1      -3.436   1.671  -5.635  0.00  0.00    +0.040 A 
ATOM      8  C   UNL     1      -4.122   1.523  -4.428  0.00  0.00    +0.013 A 
ATOM      9  C   UNL     1      -5.464   1.834  -4.358  0.00  0.00    +0.003 A 
ATOM     10  C   UNL     1      -6.130   2.292  -5.481  0.00  0.00    +0.033 A 
ATOM     11  C   UNL     1      -5.456   2.442  -6.680  0.00  0.00    +0.127 A 
ATOM     12  C   UNL     1      -4.113   2.139  -6.762  0.00  0.00    +0.045 A 
BRANCH  11  13
ATOM     13  N   UNL     1      -6.177   2.933  -7.876  0.00  0.00    +0.056 N 
ATOM     14  O   UNL     1      -7.362   3.205  -7.804  0.00  0.00    -0.126 OA
ATOM     15  O   UNL     1      -5.585   3.065  -8.932  0.00  0.00    -0.126 OA
ENDBRANCH  11  13
ENDBRANCH   4   7
ENDBRANCH   1   3
BRANCH   1  16
ATOM     16  C   UNL     1       0.669   0.132  -3.610  0.00  0.00    +0.147 C 
ATOM     17  S   UNL     1       2.335  -0.252  -3.705  0.00  0.00    -0.017 S 
BRANCH  16  18
ATOM     18  N   UNL     1       0.010  -0.012  -2.444  0.00  0.00    -0.322 N 
ATOM     19  H   UNL     1      -0.934   0.205  -2.390  0.00  0.00    +0.148 HD
BRANCH  18  26
ATOM     20  C   UNL     1      -0.019   1.526   0.010  0.00  0.00    +0.009 C 
ATOM     21  C   UNL     1       0.002  -0.004   0.002  0.00  0.00    +0.006 C 
ATOM     22  C   UNL     1       0.742  -0.511   1.242  0.00  0.00    +0.005 C 
ATOM     23  C   UNL     1       0.763  -2.041   1.233  0.00  0.00    +0.000 C 
ATOM     24  C   UNL     1       1.479  -2.534  -0.026  0.00  0.00    +0.002 C 
ATOM     25  C   UNL     1       0.739  -2.027  -1.265  0.00  0.00    +0.022 C 
ATOM     26  C   UNL     1       0.718  -0.497  -1.257  0.00  0.00    +0.075 C 
ENDBRANCH  18  26
ENDBRANCH  16  18
ENDBRANCH   1  16
TORSDOF 6
