REMARK  Name = ZINC00107342
REMARK  4 active torsions:
REMARK  status: ('A' for Active; 'I' for Inactive)
REMARK    1  A    between atoms: C_1  and  O_2
REMARK    2  A    between atoms: O_2  and  C_3
REMARK    3  A    between atoms: C_6  and  C_9
REMARK    4  A    between atoms: C_20  and  C_22
REMARK                            x       y       z     vdW  Elec       q    Type
REMARK                         _______ _______ _______ _____ _____    ______ ____
ROOT
ATOM      1  C   UNL     1       3.743  -0.340  -0.029  0.00  0.00    +0.069 C 
ATOM      2  C   UNL     1       2.312   0.079  -0.019  0.00  0.00    +0.033 A 
ATOM      3  C   UNL     1       1.198  -0.682  -0.015  0.00  0.00    +0.087 A 
ATOM      4  N   UNL     1       0.002  -0.004   0.002  0.00  0.00    -0.311 N 
ATOM      5  H   UNL     1      -0.833  -0.498   0.009  0.00  0.00    +0.170 HD
ATOM      6  C   UNL     1      -0.016   1.344   0.009  0.00  0.00    +0.289 A 
ATOM      7  O   UNL     1      -0.976   2.095   0.018  0.00  0.00    -0.260 OA
ATOM      8  S   UNL     1       1.674   1.737  -0.005  0.00  0.00    -0.030 S 
ATOM      9  S   UNL     1       1.317  -2.459  -0.035  0.00  0.00    -0.106 S 
ATOM     10  C   UNL     1       3.076  -2.725   0.349  0.00  0.00    +0.087 C 
ATOM     11  C   UNL     1       3.906  -1.775  -0.523  0.00  0.00    +0.074 C 
ENDROOT
BRANCH   1  15
ATOM     12  C   UNL     1       5.946   2.275  -2.591  0.00  0.00    +0.120 A 
ATOM     13  C   UNL     1       6.280   2.174  -1.248  0.00  0.00    +0.046 A 
ATOM     14  C   UNL     1       5.566   1.328  -0.422  0.00  0.00    +0.008 A 
ATOM     15  C   UNL     1       4.520   0.582  -0.932  0.00  0.00    -0.038 A 
ATOM     16  C   UNL     1       4.188   0.677  -2.271  0.00  0.00    +0.008 A 
ATOM     17  C   UNL     1       4.895   1.527  -3.100  0.00  0.00    +0.046 A 
BRANCH  12  19
ATOM     18  C   UNL     1       6.247   3.161  -4.777  0.00  0.00    +0.277 C 
ATOM     19  O   UNL     1       6.647   3.107  -3.406  0.00  0.00    -0.495 OA
ENDBRANCH  12  19
ENDBRANCH   1  15
BRANCH  11  20
ATOM     20  C   UNL     1       5.359  -2.168  -0.447  0.00  0.00    +0.228 C 
ATOM     21  O   UNL     1       5.949  -2.494  -1.449  0.00  0.00    -0.301 OA
ENDBRANCH  11  20
TORSDOF 3
