REMARK  Name = ZINC08964210
REMARK  9 active torsions:
REMARK  status: ('A' for Active; 'I' for Inactive)
REMARK    1  A    between atoms: C_1  and  C_2
REMARK    2  A    between atoms: N_4  and  C_5
REMARK    3  A    between atoms: C_9  and  N_11
REMARK    4  A    between atoms: C_12  and  C_14
REMARK    5  A    between atoms: N_16  and  C_17
REMARK    6  A    between atoms: C_17  and  C_18
REMARK    7  A    between atoms: C_18  and  C_20
REMARK    8  A    between atoms: C_18  and  N_64
REMARK    9  A    between atoms: N_28  and  C_29
REMARK                            x       y       z     vdW  Elec       q    Type
REMARK                         _______ _______ _______ _____ _____    ______ ____
ROOT
ATOM      1  C   UNL     1      -8.329   5.421  -0.682  0.00  0.00    +0.299 C 
ATOM      2  O   UNL     1      -8.912   6.410  -0.285  0.00  0.00    -0.265 OA
ATOM      3  N   UNL     1      -7.018   5.259  -0.416  0.00  0.00    -0.309 N 
ATOM      4  H   UNL     1      -6.553   4.470  -0.734  0.00  0.00    +0.149 HD
ENDROOT
BRANCH   1   6
ATOM      5  N   UNL     1     -10.378   4.546  -1.730  0.00  0.00    -0.278 N 
ATOM      6  C   UNL     1      -9.066   4.384  -1.464  0.00  0.00    +0.303 C 
ATOM      7  O   UNL     1      -8.484   3.396  -1.861  0.00  0.00    -0.265 OA
ATOM      8  H   UNL     1     -10.860   5.299  -1.353  0.00  0.00    +0.155 HD
BRANCH   5  13
ATOM      9  C   UNL     1     -11.028   2.089  -4.391  0.00  0.00    +0.035 A 
ATOM     10  C   UNL     1     -12.371   1.811  -4.165  0.00  0.00    +0.023 A 
ATOM     11  C   UNL     1     -13.044   2.440  -3.135  0.00  0.00    +0.004 A 
ATOM     12  C   UNL     1     -12.386   3.347  -2.327  0.00  0.00    +0.023 A 
ATOM     13  C   UNL     1     -11.043   3.629  -2.548  0.00  0.00    +0.036 A 
ATOM     14  C   UNL     1     -10.366   3.004  -3.585  0.00  0.00    +0.046 A 
BRANCH   9  18
ATOM     15  C   UNL     1     -10.298   0.344  -7.644  0.00  0.00    +0.109 C 
ATOM     16  C   UNL     1     -10.999   1.135  -6.570  0.00  0.00    +0.214 C 
ATOM     17  O   UNL     1     -12.149   1.486  -6.728  0.00  0.00    -0.276 OA
ATOM     18  N   UNL     1     -10.347   1.451  -5.433  0.00  0.00    -0.286 N 
ATOM     19  H   UNL     1      -9.406   1.236  -5.337  0.00  0.00    +0.155 HD
ENDBRANCH   9  18
ENDBRANCH   5  13
ENDBRANCH   1   6
BRANCH   3  20
ATOM     20  C   UNL     1      -6.295   6.277   0.351  0.00  0.00    +0.094 C 
BRANCH  20  21
ATOM     21  C   UNL     1      -4.811   5.912   0.410  0.00  0.00    -0.020 C 
BRANCH  21  22
ATOM     22  C   UNL     1      -4.635   4.651   1.216  0.00  0.00    -0.059 A 
ATOM     23  C   UNL     1      -4.640   4.706   2.598  0.00  0.00    +0.004 A 
ATOM     24  C   UNL     1      -4.482   3.554   3.340  0.00  0.00    +0.023 A 
ATOM     25  C   UNL     1      -4.317   2.326   2.701  0.00  0.00    +0.033 A 
ATOM     26  C   UNL     1      -4.308   2.282   1.313  0.00  0.00    -0.025 A 
ATOM     27  C   UNL     1      -4.468   3.436   0.575  0.00  0.00    +0.007 A 
ATOM     28  C   UNL     1      -4.105   0.840   0.892  0.00  0.00    +0.056 C 
ATOM     29  C   UNL     1      -3.596   0.172   2.190  0.00  0.00    +0.109 C 
ATOM     30  N   UNL     1      -4.153   1.043   3.247  0.00  0.00    -0.332 N 
ATOM     31  C   UNL     1      -3.272   1.075   4.422  0.00  0.00    +0.129 C 
ENDBRANCH  21  22
BRANCH  21  36
ATOM     32  C   UNL     1      -2.624   6.659   1.177  0.00  0.00    -0.078 C 
ATOM     33  C   UNL     1      -1.940   8.039   1.343  0.00  0.00    -0.020 C 
ATOM     34  C   UNL     1      -2.754   8.944   0.390  0.00  0.00    -0.020 C 
ATOM     35  C   UNL     1      -4.106   8.228   0.211  0.00  0.00    -0.078 C 
ATOM     36  N   UNL     1      -4.043   7.026   1.043  0.00  0.00    +0.385 N 
ATOM     37  H   UNL     1      -4.439   7.224   1.969  0.00  0.00    -0.081 HD
ENDBRANCH  21  36
ENDBRANCH  20  21
ENDBRANCH   3  20
TORSDOF 7
