REMARK  Name = ZINC39898547
REMARK  11 active torsions:
REMARK  status: ('A' for Active; 'I' for Inactive)
REMARK    1  A    between atoms: C_1  and  C_2
REMARK    2  A    between atoms: C_2  and  C_3
REMARK    3  A    between atoms: C_3  and  C_4
REMARK    4  A    between atoms: C_4  and  C_5
REMARK    5  A    between atoms: C_5  and  N_6
REMARK    6  A    between atoms: C_7  and  C_25
REMARK    7  A    between atoms: C_10  and  C_17
REMARK    8  A    between atoms: C_28  and  O_34
REMARK    9  A    between atoms: C_29  and  O_31
REMARK   10  A    between atoms: O_31  and  C_32
REMARK   11  A    between atoms: C_32  and  C_33
REMARK                            x       y       z     vdW  Elec       q    Type
REMARK                         _______ _______ _______ _____ _____    ______ ____
ROOT
ATOM      1  N   UNL     1      -2.828  -4.058   0.007  0.00  0.00    -0.285 N 
ATOM      2  C   UNL     1      -2.822  -4.904  -1.192  0.00  0.00    +0.141 C 
ATOM      3  C   UNL     1      -2.800  -6.327  -0.706  0.00  0.00    +0.035 A 
ATOM      4  C   UNL     1      -2.784  -7.648  -1.023  0.00  0.00    +0.075 A 
ATOM      5  N   UNL     1      -2.769  -8.334   0.158  0.00  0.00    -0.276 N 
ATOM      6  N   UNL     1      -2.776  -7.508   1.144  0.00  0.00    -0.168 NA
ATOM      7  H   UNL     1      -2.755  -9.300   0.241  0.00  0.00    +0.189 HD
ATOM      8  C   UNL     1      -2.795  -6.266   0.706  0.00  0.00    +0.153 A 
ATOM      9  C   UNL     1      -2.807  -4.844   1.097  0.00  0.00    +0.268 C 
ATOM     10  O   UNL     1      -2.801  -4.441   2.244  0.00  0.00    -0.268 OA
ENDROOT
BRANCH   4  11
ATOM     11  C   UNL     1      -2.782  -8.230  -2.382  0.00  0.00    +0.048 A 
ATOM     12  C   UNL     1      -3.869  -8.985  -2.822  0.00  0.00    +0.033 A 
ATOM     13  C   UNL     1      -3.862  -9.527  -4.093  0.00  0.00    +0.042 A 
ATOM     14  C   UNL     1      -2.779  -9.323  -4.931  0.00  0.00    +0.024 A 
ATOM     15  C   UNL     1      -1.697  -8.577  -4.505  0.00  0.00    +0.053 A 
ATOM     16  C   UNL     1      -1.693  -8.022  -3.235  0.00  0.00    +0.188 A 
ATOM     17  O   UNL     1      -0.632  -7.284  -2.818  0.00  0.00    -0.287 OA
ATOM     18 CL   UNL     1      -5.216 -10.466  -4.640  0.00  0.00    -0.084 Cl
ENDBRANCH   4  11
BRANCH   2  19
ATOM     19  C   UNL     1      -4.064  -4.653  -2.008  0.00  0.00    -0.019 A 
ATOM     20  C   UNL     1      -5.279  -4.468  -1.376  0.00  0.00    +0.009 A 
ATOM     21  C   UNL     1      -6.421  -4.238  -2.120  0.00  0.00    +0.049 A 
ATOM     22  C   UNL     1      -6.349  -4.192  -3.503  0.00  0.00    +0.158 A 
ATOM     23  C   UNL     1      -5.126  -4.378  -4.139  0.00  0.00    +0.162 A 
ATOM     24  C   UNL     1      -3.984  -4.603  -3.387  0.00  0.00    +0.055 A 
BRANCH  22  25
ATOM     25  O   UNL     1      -7.472  -3.966  -4.236  0.00  0.00    -0.503 OA
ATOM     26  H   UNL     1      -7.646  -3.031  -4.412  0.00  0.00    +0.292 HD
ENDBRANCH  22  25
BRANCH  23  27
ATOM     27  O   UNL     1      -5.051  -4.334  -5.497  0.00  0.00    -0.489 OA
BRANCH  27  28
ATOM     28  C   UNL     1      -3.762  -4.534  -6.081  0.00  0.00    +0.226 C 
ATOM     29  C   UNL     1      -3.875  -4.450  -7.605  0.00  0.00    +0.048 C 
ENDBRANCH  27  28
ENDBRANCH  23  27
ENDBRANCH   2  19
BRANCH   1  30
ATOM     30  C   UNL     1      -2.848  -2.593   0.015  0.00  0.00    +0.109 C 
BRANCH  30  31
ATOM     31  C   UNL     1      -1.413  -2.063   0.004  0.00  0.00    +0.019 C 
BRANCH  31  32
ATOM     32  C   UNL     1      -1.433  -0.534   0.013  0.00  0.00    +0.001 C 
BRANCH  32  34
ATOM     33  C   UNL     1      -0.019   1.526   0.010  0.00  0.00    +0.004 C 
ATOM     34  C   UNL     1       0.002  -0.004   0.002  0.00  0.00    -0.003 C 
ENDBRANCH  32  34
ENDBRANCH  31  32
ENDBRANCH  30  31
ENDBRANCH   1  30
TORSDOF 9
