REMARK  Name = ZINC03408850
REMARK  7 active torsions:
REMARK  status: ('A' for Active; 'I' for Inactive)
REMARK    1  A    between atoms: C_3  and  N_23
REMARK    2  A    between atoms: C_6  and  C_7
REMARK    3  A    between atoms: C_7  and  O_9
REMARK    4  A    between atoms: O_9  and  C_10
REMARK    5  A    between atoms: C_10  and  C_11
REMARK    6  A    between atoms: N_13  and  C_14
REMARK    7  A    between atoms: C_19  and  C_20
REMARK                            x       y       z     vdW  Elec       q    Type
REMARK                         _______ _______ _______ _____ _____    ______ ____
ROOT
ATOM      1  C   UNL     1       4.370   8.300  -0.399  0.00  0.00    +0.340 C 
ATOM      2  O   UNL     1       5.502   7.861  -0.419  0.00  0.00    -0.245 OA
ENDROOT
BRANCH   1   8
ATOM      3  C   UNL     1       2.838  10.260  -0.478  0.00  0.00    +0.017 A 
ATOM      4  C   UNL     1       2.628  11.618  -0.563  0.00  0.00    +0.024 A 
ATOM      5  C   UNL     1       3.710  12.485  -0.679  0.00  0.00    +0.035 A 
ATOM      6  C   UNL     1       5.008  11.984  -0.702  0.00  0.00    +0.024 A 
ATOM      7  C   UNL     1       5.226  10.628  -0.611  0.00  0.00    +0.017 A 
ATOM      8  C   UNL     1       4.141   9.753  -0.496  0.00  0.00    +0.059 A 
BRANCH   5   9
ATOM      9  N   UNL     1       3.494  13.859  -0.771  0.00  0.00    -0.270 N 
ATOM     10  C   UNL     1       4.300  14.618  -1.538  0.00  0.00    +0.301 C 
ATOM     11  O   UNL     1       5.268  14.121  -2.081  0.00  0.00    -0.253 OA
ATOM     12  N   UNL     1       4.035  15.929  -1.704  0.00  0.00    -0.313 N 
ATOM     13  H   UNL     1       2.763  14.268  -0.282  0.00  0.00    +0.156 HD
ATOM     14  H   UNL     1       3.263  16.326  -1.271  0.00  0.00    +0.146 HD
ATOM     15  H   UNL     1       4.615  16.476  -2.257  0.00  0.00    +0.146 HD
ENDBRANCH   5   9
ENDBRANCH   1   8
BRANCH   1  16
ATOM     16  O   UNL     1       3.323   7.459  -0.287  0.00  0.00    -0.452 OA
BRANCH  16  17
ATOM     17  C   UNL     1       3.623   6.041  -0.197  0.00  0.00    +0.328 C 
BRANCH  17  18
ATOM     18  C   UNL     1       2.338   5.262  -0.079  0.00  0.00    +0.255 C 
ATOM     19  O   UNL     1       1.274   5.845  -0.072  0.00  0.00    -0.272 OA
ATOM     20  N   UNL     1       2.371   3.919   0.019  0.00  0.00    -0.282 N 
ATOM     21  H   UNL     1       3.222   3.459   0.095  0.00  0.00    +0.155 HD
BRANCH  20  22
ATOM     22  C   UNL     1       1.183   3.190   0.012  0.00  0.00    +0.052 A 
ATOM     23  C   UNL     1       0.048   3.714  -0.589  0.00  0.00    +0.044 A 
ATOM     24  C   UNL     1      -1.129   2.989  -0.596  0.00  0.00    +0.043 A 
ATOM     25  C   UNL     1      -1.184   1.735  -0.007  0.00  0.00    +0.021 A 
ATOM     26  C   UNL     1      -0.067   1.201   0.598  0.00  0.00    +0.022 A 
ATOM     27  C   UNL     1       1.130   1.922   0.612  0.00  0.00    +0.073 A 
ATOM     28 CL   UNL     1      -2.546   3.651  -1.350  0.00  0.00    -0.083 Cl
BRANCH  27  29
ATOM     29  C   UNL     1       2.295   1.371   1.234  0.00  0.00    +0.101 C 
ATOM     30  N   UNL     1       3.220   0.933   1.728  0.00  0.00    -0.191 NA
ENDBRANCH  27  29
ENDBRANCH  20  22
ENDBRANCH  17  18
ENDBRANCH  16  17
ENDBRANCH   1  16
TORSDOF 7
