REMARK  Name = ZINC17428905
REMARK  2 active torsions:
REMARK  status: ('A' for Active; 'I' for Inactive)
REMARK    1  A    between atoms: C_4  and  N_7
REMARK    2  A    between atoms: C_14  and  N_15
REMARK                            x       y       z     vdW  Elec       q    Type
REMARK                         _______ _______ _______ _____ _____    ______ ____
ROOT
ATOM      1  N   UNL     1       1.238  -2.077  -0.021  0.00  0.00    -0.320 N 
ATOM      2  C   UNL     1       2.623  -2.585  -0.157  0.00  0.00    +0.146 C 
ATOM      3  C   UNL     1       2.666  -3.868   0.636  0.00  0.00    +0.032 A 
ATOM      4  C   UNL     1       1.578  -3.892   1.488  0.00  0.00    +0.070 A 
ATOM      5  N   UNL     1       1.406  -4.931   2.289  0.00  0.00    -0.218 NA
ATOM      6  C   UNL     1       2.263  -5.943   2.280  0.00  0.00    +0.215 A 
ATOM      7  N   UNL     1       3.317  -5.957   1.478  0.00  0.00    -0.200 NA
ATOM      8  C   UNL     1       3.551  -4.943   0.648  0.00  0.00    +0.126 A 
ATOM      9  N   UNL     1       2.051  -7.013   3.132  0.00  0.00    -0.327 N 
ATOM     10  C   UNL     1       0.787  -2.622   1.281  0.00  0.00    +0.161 C 
ATOM     11  H   UNL     1       1.284  -7.016   3.725  0.00  0.00    +0.145 HD
ATOM     12  H   UNL     1       2.670  -7.760   3.136  0.00  0.00    +0.145 HD
ENDROOT
BRANCH   1  16
ATOM     13  C   UNL     1       1.170   2.086   0.000  0.00  0.00    +0.000 A 
ATOM     14  C   UNL     1       2.124   1.415  -0.742  0.00  0.00    +0.002 A 
ATOM     15  C   UNL     1       2.150   0.035  -0.751  0.00  0.00    +0.023 A 
ATOM     16  C   UNL     1       1.215  -0.681  -0.013  0.00  0.00    +0.030 A 
ATOM     17  C   UNL     1       0.258  -0.004   0.732  0.00  0.00    +0.023 A 
ATOM     18  C   UNL     1       0.238   1.377   0.736  0.00  0.00    +0.002 A 
ENDBRANCH   1  16
BRANCH   8  19
ATOM     19  N   UNL     1       4.653  -4.958  -0.191  0.00  0.00    -0.343 N 
ATOM     20  H   UNL     1       4.814  -4.216  -0.794  0.00  0.00    +0.144 HD
ATOM     21  H   UNL     1       5.264  -5.712  -0.176  0.00  0.00    +0.144 HD
ENDBRANCH   8  19
TORSDOF 2
