REMARK  Name = ZINC63948432
REMARK  8 active torsions:
REMARK  status: ('A' for Active; 'I' for Inactive)
REMARK    1  A    between atoms: C_1  and  C_2
REMARK    2  A    between atoms: C_2  and  C_4
REMARK    3  A    between atoms: C_2  and  N_14
REMARK    4  A    between atoms: C_4  and  C_5
REMARK    5  A    between atoms: C_15  and  C_17
REMARK    6  A    between atoms: C_17  and  N_18
REMARK    7  A    between atoms: C_19  and  C_21
REMARK    8  A    between atoms: C_28  and  N_31
REMARK                            x       y       z     vdW  Elec       q    Type
REMARK                         _______ _______ _______ _____ _____    ______ ____
ROOT
ATOM      1  N   UNL     1      -3.978  -1.213  -2.505  0.00  0.00    -0.303 N 
ATOM      2  C   UNL     1      -5.231  -1.650  -2.741  0.00  0.00    +0.244 C 
ATOM      3  O   UNL     1      -5.935  -2.004  -1.815  0.00  0.00    -0.270 OA
ATOM      4  H   UNL     1      -3.416  -0.931  -3.244  0.00  0.00    +0.150 HD
ENDROOT
BRANCH   2   5
ATOM      5  C   UNL     1      -5.747  -1.699  -4.122  0.00  0.00    +0.038 A 
ATOM      6  C   UNL     1      -4.947  -1.301  -5.197  0.00  0.00    +0.015 A 
ATOM      7  C   UNL     1      -5.421  -1.344  -6.481  0.00  0.00    +0.025 A 
ATOM      8  C   UNL     1      -6.727  -1.790  -6.768  0.00  0.00    +0.043 A 
ATOM      9  C   UNL     1      -7.509  -2.184  -5.674  0.00  0.00    +0.033 A 
ATOM     10  C   UNL     1      -7.046  -2.151  -4.383  0.00  0.00    +0.029 A 
ATOM     11  S   UNL     1      -9.068  -2.680  -6.374  0.00  0.00    -0.079 S 
ATOM     12  C   UNL     1      -8.671  -2.359  -8.139  0.00  0.00    +0.237 C 
ATOM     13  N   UNL     1      -7.290  -1.868  -8.034  0.00  0.00    -0.314 N 
ATOM     14  H   UNL     1      -6.789  -1.607  -8.823  0.00  0.00    +0.149 HD
BRANCH  12  15
ATOM     15  N   UNL     1      -9.555  -1.334  -8.700  0.00  0.00    -0.326 N 
ATOM     16  C   UNL     1      -9.326   0.010  -8.680  0.00  0.00    +0.088 A 
ATOM     17  C   UNL     1     -10.360   0.623  -9.290  0.00  0.00    +0.019 A 
ATOM     18  C   UNL     1     -11.261  -0.380  -9.703  0.00  0.00    +0.019 A 
ATOM     19  C   UNL     1     -10.739  -1.567  -9.334  0.00  0.00    +0.088 A 
ENDBRANCH  12  15
ENDBRANCH   2   5
BRANCH   1  20
ATOM     20  C   UNL     1      -3.465  -1.164  -1.134  0.00  0.00    +0.200 C 
BRANCH  20  22
ATOM     21  N   UNL     1      -1.372  -0.511   0.012  0.00  0.00    -0.311 N 
ATOM     22  C   UNL     1      -2.051  -0.643  -1.145  0.00  0.00    +0.230 C 
ATOM     23  O   UNL     1      -1.524  -0.341  -2.194  0.00  0.00    -0.274 OA
ATOM     24  H   UNL     1      -1.794  -0.752   0.852  0.00  0.00    +0.149 HD
BRANCH  21  26
ATOM     25  C   UNL     1      -0.019   1.526   0.010  0.00  0.00    +0.028 C 
ATOM     26  C   UNL     1       0.002  -0.004   0.002  0.00  0.00    +0.074 C 
BRANCH  26  27
ATOM     27  C   UNL     1       0.742  -0.511   1.242  0.00  0.00    +0.055 C 
BRANCH  27  28
ATOM     28  C   UNL     1       0.870  -2.011   1.172  0.00  0.00    -0.040 C 
ATOM     29  C   UNL     1       1.925  -2.716   0.704  0.00  0.00    -0.001 A 
ATOM     30  C   UNL     1       3.219  -2.313   0.141  0.00  0.00    +0.010 A 
ATOM     31  C   UNL     1       4.091  -3.271  -0.250  0.00  0.00    +0.001 A 
ATOM     32  C   UNL     1       3.790  -4.635  -0.131  0.00  0.00    +0.002 A 
ATOM     33  C   UNL     1       2.622  -5.082   0.377  0.00  0.00    +0.026 A 
ATOM     34  C   UNL     1       1.632  -4.163   0.820  0.00  0.00    +0.043 A 
ATOM     35  N   UNL     1       0.442  -4.344   1.339  0.00  0.00    -0.380 N 
ATOM     36  C   UNL     1      -0.153  -3.032   1.617  0.00  0.00    +0.144 C 
ATOM     37  H   UNL     1       0.025  -5.203   1.513  0.00  0.00    +0.160 HD
ENDBRANCH  27  28
ENDBRANCH  26  27
ENDBRANCH  21  26
ENDBRANCH  20  22
ENDBRANCH   1  20
TORSDOF 7
