REMARK  Name = ZINC62900720
REMARK  8 active torsions:
REMARK  status: ('A' for Active; 'I' for Inactive)
REMARK    1  A    between atoms: C_1  and  C_2
REMARK    2  A    between atoms: C_2  and  C_3
REMARK    3  A    between atoms: C_3  and  C_4
REMARK    4  A    between atoms: C_4  and  C_9
REMARK    5  A    between atoms: N_11  and  C_12
REMARK    6  A    between atoms: C_13  and  C_19
REMARK    7  A    between atoms: C_14  and  C_18
REMARK    8  A    between atoms: C_15  and  C_17
REMARK                            x       y       z     vdW  Elec       q    Type
REMARK                         _______ _______ _______ _____ _____    ______ ____
ROOT
ATOM      1  C   UNL     1       1.319  -2.656  -0.155  0.00  0.00    +0.222 C 
ATOM      2  O   UNL     1       2.360  -3.276  -0.225  0.00  0.00    -0.275 OA
ATOM      3  N   UNL     1       0.688  -2.531   1.029  0.00  0.00    -0.279 N 
ATOM      4  H   UNL     1      -0.101  -1.972   1.101  0.00  0.00    +0.155 HD
ENDROOT
BRANCH   1   5
ATOM      5  C   UNL     1       0.732  -2.027  -1.392  0.00  0.00    +0.031 C 
ATOM      6  C   UNL     1      -0.692  -2.577  -1.669  0.00  0.00    -0.005 C 
ATOM      7  C   UNL     1      -0.378  -3.900  -2.410  0.00  0.00    -0.082 C 
ATOM      8  N   UNL     1       0.800  -3.593  -3.249  0.00  0.00    +0.380 N 
ATOM      9  C   UNL     1       1.520  -2.455  -2.648  0.00  0.00    -0.067 C 
ATOM     10  H   UNL     1       1.408  -4.397  -3.288  0.00  0.00    -0.086 HD
ATOM     11  H   UNL     1       0.499  -3.350  -4.181  0.00  0.00    -0.086 HD
BRANCH   5  12
ATOM     12  C   UNL     1       0.708  -0.503  -1.262  0.00  0.00    +0.014 C 
BRANCH  12  14
ATOM     13  C   UNL     1       2.116   1.561  -1.252  0.00  0.00    +0.004 C 
ATOM     14  C   UNL     1       2.142   0.032  -1.260  0.00  0.00    -0.002 C 
ENDBRANCH  12  14
ENDBRANCH   5  12
ENDBRANCH   1   5
BRANCH   3  15
ATOM     15  C   UNL     1       1.169  -3.201   2.146  0.00  0.00    +0.090 A 
ATOM     16  C   UNL     1       0.650  -3.194   3.432  0.00  0.00    +0.083 A 
ATOM     17  C   UNL     1       1.351  -3.986   4.416  0.00  0.00    -0.021 A 
ATOM     18  C   UNL     1       2.437  -4.648   3.971  0.00  0.00    -0.007 A 
ATOM     19  S   UNL     1       2.505  -4.210   2.248  0.00  0.00    -0.077 S 
ATOM     20  C   UNL     1       3.366  -5.546   4.745  0.00  0.00    +0.052 C 
ATOM     21  C   UNL     1       0.896  -4.068   5.850  0.00  0.00    +0.046 C 
BRANCH  16  22
ATOM     22  C   UNL     1      -0.519  -2.439   3.768  0.00  0.00    +0.102 C 
ATOM     23  N   UNL     1      -1.447  -1.841   4.035  0.00  0.00    -0.191 NA
ENDBRANCH  16  22
ENDBRANCH   3  15
TORSDOF 5
