REMARK  Name = ZINC48326521
REMARK  7 active torsions:
REMARK  status: ('A' for Active; 'I' for Inactive)
REMARK    1  A    between atoms: C_1  and  C_2
REMARK    2  A    between atoms: C_5  and  O_25
REMARK    3  A    between atoms: C_10  and  C_11
REMARK    4  A    between atoms: N_13  and  C_14
REMARK    5  A    between atoms: C_14  and  C_16
REMARK    6  A    between atoms: C_14  and  C_22
REMARK    7  A    between atoms: O_25  and  C_26
REMARK                            x       y       z     vdW  Elec       q    Type
REMARK                         _______ _______ _______ _____ _____    ______ ____
ROOT
ATOM      1  C   UNL     1       0.032  -0.382   2.484  0.00  0.00    +0.280 C 
ATOM      2  O   UNL     1       0.018   0.806   2.745  0.00  0.00    -0.267 OA
ATOM      3  N   UNL     1       0.054  -1.291   3.479  0.00  0.00    -0.294 N 
ATOM      4  H   UNL     1       0.065  -2.238   3.270  0.00  0.00    +0.150 HD
ENDROOT
BRANCH   1  14
ATOM      5  C   UNL     1      -0.018   1.503   0.010  0.00  0.00    +0.048 C 
ATOM      6  C   UNL     1       0.002  -0.004   0.002  0.00  0.00    +0.008 A 
ATOM      7  C   UNL     1       0.009  -0.877  -1.171  0.00  0.00    +0.027 A 
ATOM      8  C   UNL     1      -0.000  -0.652  -2.551  0.00  0.00    +0.057 A 
ATOM      9  C   UNL     1       0.010  -1.728  -3.416  0.00  0.00    +0.121 A 
ATOM     10  C   UNL     1       0.030  -3.028  -2.916  0.00  0.00    +0.049 A 
ATOM     11  C   UNL     1       0.039  -3.260  -1.559  0.00  0.00    +0.050 A 
ATOM     12  C   UNL     1       0.029  -2.191  -0.670  0.00  0.00    +0.136 A 
ATOM     13  O   UNL     1       0.034  -2.113   0.676  0.00  0.00    -0.450 OA
ATOM     14  C   UNL     1       0.024  -0.826   1.083  0.00  0.00    +0.193 A 
BRANCH   9  15
ATOM     15  O   UNL     1       0.002  -1.518  -4.759  0.00  0.00    -0.495 OA
ATOM     16  C   UNL     1       0.013  -2.675  -5.597  0.00  0.00    +0.277 C 
ENDBRANCH   9  15
ENDBRANCH   1  14
BRANCH   3  17
ATOM     17  C   UNL     1       0.062  -0.848   4.875  0.00  0.00    +0.190 C 
BRANCH  17  18
ATOM     18  C   UNL     1      -0.515  -1.931   5.749  0.00  0.00    -0.018 A 
ATOM     19  C   UNL     1      -0.202  -3.255   5.506  0.00  0.00    +0.006 A 
ATOM     20  C   UNL     1      -0.732  -4.249   6.308  0.00  0.00    +0.000 A 
ATOM     21  C   UNL     1      -1.574  -3.919   7.353  0.00  0.00    +0.000 A 
ATOM     22  C   UNL     1      -1.886  -2.595   7.597  0.00  0.00    +0.000 A 
ATOM     23  C   UNL     1      -1.353  -1.600   6.798  0.00  0.00    +0.006 A 
ENDBRANCH  17  18
BRANCH  17  24
ATOM     24  C   UNL     1       1.478  -0.558   5.303  0.00  0.00    +0.235 C 
ATOM     25  O   UNL     1       2.390  -0.708   4.518  0.00  0.00    -0.274 OA
ATOM     26  N   UNL     1       1.730  -0.134   6.557  0.00  0.00    -0.328 N 
ATOM     27  H   UNL     1       1.000  -0.015   7.184  0.00  0.00    +0.145 HD
ATOM     28  H   UNL     1       2.641   0.052   6.832  0.00  0.00    +0.145 HD
ENDBRANCH  17  24
ENDBRANCH   3  17
TORSDOF 5
