REMARK  Name = ZINC20275497
REMARK  8 active torsions:
REMARK  status: ('A' for Active; 'I' for Inactive)
REMARK    1  A    between atoms: C_1  and  C_2
REMARK    2  A    between atoms: C_2  and  C_20
REMARK    3  A    between atoms: N_5  and  C_14
REMARK    4  A    between atoms: C_8  and  N_13
REMARK    5  A    between atoms: C_14  and  C_15
REMARK    6  A    between atoms: C_15  and  C_17
REMARK    7  A    between atoms: C_15  and  O_19
REMARK    8  A    between atoms: C_17  and  O_18
REMARK                            x       y       z     vdW  Elec       q    Type
REMARK                         _______ _______ _______ _____ _____    ______ ____
ROOT
ATOM      1  C   UNL     1      -1.227   7.630  -0.265  0.00  0.00    +0.065 C 
ATOM      2  C   UNL     1      -1.165   6.151  -0.650  0.00  0.00    +0.181 C 
ATOM      3  C   UNL     1      -2.454   5.476  -0.260  0.00  0.00    +0.263 C 
ATOM      4  O   UNL     1      -3.487   6.111  -0.222  0.00  0.00    -0.271 OA
ATOM      5  N   UNL     1      -2.455   4.160   0.048  0.00  0.00    -0.262 N 
ATOM      6  C   UNL     1      -1.243   3.457   0.032  0.00  0.00    +0.080 A 
ATOM      7  C   UNL     1      -1.229   2.072   0.019  0.00  0.00    +0.050 A 
ATOM      8  C   UNL     1      -0.017   1.395   0.010  0.00  0.00    +0.027 A 
ATOM      9  C   UNL     1       1.177   2.105   0.002  0.00  0.00    +0.026 A 
ATOM     10  C   UNL     1       1.163   3.488   0.009  0.00  0.00    +0.049 A 
ATOM     11  C   UNL     1      -0.043   4.167   0.023  0.00  0.00    +0.143 A 
ATOM     12  O   UNL     1      -0.071   5.528   0.029  0.00  0.00    -0.475 OA
ATOM     13  C   UNL     1      -0.962   6.027  -2.162  0.00  0.00    +0.065 C 
ENDROOT
BRANCH   8  14
ATOM     14  N   UNL     1       0.002  -0.004   0.002  0.00  0.00    -0.358 N 
ATOM     15  H   UNL     1       0.962  -0.541  -0.005  0.00  0.00    +0.142 HD
ATOM     16  H   UNL     1      -0.943  -0.567   0.003  0.00  0.00    +0.142 HD
ENDBRANCH   8  14
BRANCH   5  17
ATOM     17  C   UNL     1      -3.705   3.479   0.394  0.00  0.00    +0.147 C 
BRANCH  17  18
ATOM     18  C   UNL     1      -4.348   2.916  -0.875  0.00  0.00    +0.157 C 
BRANCH  18  19
ATOM     19  O   UNL     1      -4.623   3.984  -1.783  0.00  0.00    -0.388 OA
ATOM     20  H   UNL     1      -5.089   3.772  -2.757  0.00  0.00    +0.210 HD
ENDBRANCH  18  19
BRANCH  18  21
ATOM     21  C   UNL     1      -5.653   2.204  -0.514  0.00  0.00    +0.188 C 
BRANCH  21  22
ATOM     22  O   UNL     1      -6.193   1.579  -1.680  0.00  0.00    -0.392 OA
ATOM     23  H   UNL     1      -7.136   1.016  -1.615  0.00  0.00    +0.210 HD
ENDBRANCH  21  22
ENDBRANCH  18  21
ENDBRANCH  17  18
ENDBRANCH   5  17
TORSDOF 6
