REMARK  Name = ZINC65134088
REMARK  11 active torsions:
REMARK  status: ('A' for Active; 'I' for Inactive)
REMARK    1  A    between atoms: C_1  and  C_2
REMARK    2  A    between atoms: C_2  and  N_3
REMARK    3  A    between atoms: N_3  and  C_4
REMARK    4  A    between atoms: C_4  and  C_5
REMARK    5  A    between atoms: C_11  and  C_14
REMARK    6  A    between atoms: N_16  and  N_17
REMARK    7  A    between atoms: N_20  and  C_21
REMARK    8  A    between atoms: C_21  and  C_22
REMARK    9  A    between atoms: C_22  and  C_23
REMARK   10  A    between atoms: C_23  and  C_24
REMARK   11  A    between atoms: C_23  and  C_25
REMARK                            x       y       z     vdW  Elec       q    Type
REMARK                         _______ _______ _______ _____ _____    ______ ____
ROOT
ATOM      1  C   UNL     1      -7.161  -1.616   0.056  0.00  0.00    +0.232 C 
ATOM      2  O   UNL     1      -7.345  -1.130  -1.040  0.00  0.00    -0.274 OA
ATOM      3  N   UNL     1      -8.189  -1.742   0.919  0.00  0.00    -0.233 N 
ATOM      4  H   UNL     1      -8.042  -2.131   1.795  0.00  0.00    +0.173 HD
ENDROOT
BRANCH   1  11
ATOM      5  N   UNL     1      -1.333  -0.796   2.291  0.00  0.00    -0.286 N 
ATOM      6  C   UNL     1      -1.858  -1.040   1.074  0.00  0.00    +0.305 C 
ATOM      7  O   UNL     1      -1.277  -0.664   0.074  0.00  0.00    -0.252 OA
ATOM      8  N   UNL     1      -3.027  -1.702   0.965  0.00  0.00    -0.285 N 
ATOM      9  C   UNL     1      -3.416  -2.330  -0.305  0.00  0.00    +0.110 C 
ATOM     10  C   UNL     1      -4.808  -1.825  -0.699  0.00  0.00    +0.032 C 
ATOM     11  C   UNL     1      -5.783  -2.080   0.453  0.00  0.00    +0.079 C 
ATOM     12  C   UNL     1      -5.323  -1.310   1.693  0.00  0.00    +0.032 C 
ATOM     13  C   UNL     1      -3.934  -1.813   2.115  0.00  0.00    +0.110 C 
BRANCH   5  15
ATOM     14  C   UNL     1       1.107  -0.631   2.299  0.00  0.00    +0.024 C 
ATOM     15  C   UNL     1      -0.211   0.135   2.431  0.00  0.00    +0.106 C 
ENDBRANCH   5  15
BRANCH   5  16
ATOM     16  C   UNL     1      -1.885  -1.462   3.474  0.00  0.00    +0.106 C 
ATOM     17  C   UNL     1      -2.635  -0.440   4.330  0.00  0.00    +0.024 C 
ENDBRANCH   5  16
ENDBRANCH   1  11
BRANCH   3  18
ATOM     18  N   UNL     1      -9.470  -1.311   0.550  0.00  0.00    -0.218 N 
ATOM     19  C   UNL     1     -10.498  -1.436   1.413  0.00  0.00    +0.316 C 
ATOM     20  O   UNL     1     -11.609  -1.062   1.093  0.00  0.00    -0.251 OA
ATOM     21  N   UNL     1     -10.293  -1.977   2.631  0.00  0.00    -0.298 N 
ATOM     22  H   UNL     1      -9.617  -0.922  -0.326  0.00  0.00    +0.174 HD
ATOM     23  H   UNL     1      -9.406  -2.275   2.886  0.00  0.00    +0.150 HD
BRANCH  21  24
ATOM     24  C   UNL     1     -11.410  -2.113   3.568  0.00  0.00    +0.106 C 
BRANCH  24  25
ATOM     25  C   UNL     1     -10.911  -2.751   4.867  0.00  0.00    +0.022 C 
BRANCH  25  26
ATOM     26  C   UNL     1     -12.078  -2.894   5.846  0.00  0.00    -0.016 C 
ATOM     27  C   UNL     1     -11.607  -3.643   7.094  0.00  0.00    +0.007 C 
ATOM     28  C   UNL     1     -12.582  -1.505   6.245  0.00  0.00    +0.007 C 
ENDBRANCH  25  26
ENDBRANCH  24  25
ENDBRANCH  21  24
ENDBRANCH   3  18
TORSDOF 7
