REMARK  Name = ZINC14042840
REMARK  4 active torsions:
REMARK  status: ('A' for Active; 'I' for Inactive)
REMARK    1  A    between atoms: C_12  and  C_14
REMARK    2  A    between atoms: N_16  and  N_17
REMARK    3  A    between atoms: C_18  and  C_20
REMARK    4  A    between atoms: C_20  and  C_21
REMARK                            x       y       z     vdW  Elec       q    Type
REMARK                         _______ _______ _______ _____ _____    ______ ____
ROOT
ATOM      1  C   UNL     1      -1.827   2.283  -1.395  0.00  0.00    +0.237 C 
ATOM      2  O   UNL     1      -1.173   1.850  -2.320  0.00  0.00    -0.274 OA
ATOM      3  N   UNL     1      -2.994   2.913  -1.631  0.00  0.00    -0.234 N 
ATOM      4  H   UNL     1      -3.518   3.259  -0.892  0.00  0.00    +0.173 HD
ENDROOT
BRANCH   1  16
ATOM      5  C   UNL     1       2.377   1.418  -0.013  0.00  0.00    +0.039 A 
ATOM      6  C   UNL     1       1.169   2.092   0.002  0.00  0.00    +0.009 A 
ATOM      7  C   UNL     1      -0.017   1.385   0.010  0.00  0.00    -0.014 A 
ATOM      8  C   UNL     1       0.002  -0.004   0.002  0.00  0.00    +0.040 A 
ATOM      9  C   UNL     1       1.214  -0.679  -0.014  0.00  0.00    +0.062 A 
ATOM     10  C   UNL     1       2.400   0.034  -0.021  0.00  0.00    +0.125 A 
ATOM     11  F   UNL     1       3.582  -0.621  -0.037  0.00  0.00    -0.205 F 
ATOM     12  N   UNL     1      -1.200  -0.718   0.011  0.00  0.00    -0.285 N 
ATOM     13  C   UNL     1      -2.345  -0.122   0.393  0.00  0.00    +0.218 C 
ATOM     14  O   UNL     1      -3.381  -0.752   0.381  0.00  0.00    -0.275 OA
ATOM     15  C   UNL     1      -2.353   1.316   0.836  0.00  0.00    +0.113 C 
ATOM     16  C   UNL     1      -1.334   2.117   0.020  0.00  0.00    +0.117 C 
ATOM     17  H   UNL     1      -1.209  -1.649  -0.261  0.00  0.00    +0.155 HD
ENDBRANCH   1  16
BRANCH   3  18
ATOM     18  N   UNL     1      -3.453   3.067  -2.946  0.00  0.00    -0.234 N 
ATOM     19  C   UNL     1      -4.620   3.697  -3.183  0.00  0.00    +0.230 C 
ATOM     20  O   UNL     1      -5.274   4.131  -2.258  0.00  0.00    -0.274 OA
ATOM     21  H   UNL     1      -2.930   2.721  -3.686  0.00  0.00    +0.173 HD
BRANCH  19  22
ATOM     22  C   UNL     1      -5.114   3.864  -4.598  0.00  0.00    +0.104 C 
BRANCH  22  23
ATOM     23  C   UNL     1      -6.451   4.607  -4.587  0.00  0.00    -0.020 C 
ATOM     24  C   UNL     1      -6.264   5.984  -3.947  0.00  0.00    +0.011 C 
ATOM     25  C   UNL     1      -7.602   6.727  -3.937  0.00  0.00    -0.010 C 
ATOM     26  C   UNL     1      -8.102   6.895  -5.373  0.00  0.00    +0.007 C 
ATOM     27  C   UNL     1      -8.289   5.518  -6.013  0.00  0.00    -0.010 C 
ATOM     28  C   UNL     1      -6.952   4.775  -6.023  0.00  0.00    +0.011 C 
ATOM     29  C   UNL     1      -9.312   4.716  -5.207  0.00  0.00    +0.007 C 
ATOM     30  C   UNL     1      -8.812   4.547  -3.771  0.00  0.00    -0.010 C 
ATOM     31  C   UNL     1      -8.625   5.924  -3.131  0.00  0.00    +0.007 C 
ATOM     32  C   UNL     1      -7.474   3.804  -3.782  0.00  0.00    +0.011 C 
ENDBRANCH  22  23
ENDBRANCH  19  22
ENDBRANCH   3  18
TORSDOF 4
