REMARK  Name = ZINC13002690
REMARK  10 active torsions:
REMARK  status: ('A' for Active; 'I' for Inactive)
REMARK    1  A    between atoms: C_1  and  C_2
REMARK    2  A    between atoms: C_2  and  C_3
REMARK    3  A    between atoms: C_2  and  C_4
REMARK    4  A    between atoms: C_2  and  O_5
REMARK    5  A    between atoms: O_5  and  C_6
REMARK    6  A    between atoms: N_8  and  C_9
REMARK    7  A    between atoms: C_9  and  C_11
REMARK    8  A    between atoms: C_9  and  C_18
REMARK    9  A    between atoms: C_11  and  C_12
REMARK   10  A    between atoms: C_24  and  C_26
REMARK                            x       y       z     vdW  Elec       q    Type
REMARK                         _______ _______ _______ _____ _____    ______ ____
ROOT
ATOM      1  C   UNL     1       0.985   4.214   0.932  0.00  0.00    +0.168 C 
ENDROOT
BRANCH   1   2
ATOM      2  C   UNL     1       1.963   3.151   0.503  0.00  0.00    +0.237 C 
ATOM      3  O   UNL     1       3.112   3.193   0.889  0.00  0.00    -0.274 OA
ATOM      4  N   UNL     1       1.561   2.154  -0.310  0.00  0.00    -0.288 N 
ATOM      5  C   UNL     1       0.180   1.925  -0.770  0.00  0.00    +0.109 C 
ATOM      6  C   UNL     1       0.122   0.416  -1.116  0.00  0.00    +0.021 C 
ATOM      7  C   UNL     1       1.530   0.181  -1.723  0.00  0.00    +0.033 C 
ATOM      8  C   UNL     1       2.428   1.115  -0.884  0.00  0.00    +0.162 C 
BRANCH   8   9
ATOM      9  C   UNL     1       3.091   0.333   0.220  0.00  0.00    +0.231 C 
ATOM     10  O   UNL     1       2.877   0.619   1.379  0.00  0.00    -0.274 OA
ATOM     11  N   UNL     1       3.923  -0.685  -0.080  0.00  0.00    -0.328 N 
ATOM     12  H   UNL     1       4.407  -1.256   0.726  0.00  0.00    +0.145 HD
ATOM     13  H   UNL     1       4.117  -0.944  -1.131  0.00  0.00    +0.145 HD
ENDBRANCH   8   9
ENDBRANCH   1   2
BRANCH   1  16
ATOM     14  C   UNL     1       1.074   6.641   1.130  0.00  0.00    +0.401 C 
ATOM     15  O   UNL     1      -0.097   6.681   0.807  0.00  0.00    -0.226 OA
ATOM     16  N   UNL     1       1.707   5.455   1.221  0.00  0.00    -0.269 N 
ATOM     17  H   UNL     1       2.767   5.419   1.513  0.00  0.00    +0.153 HD
BRANCH  14  18
ATOM     18  O   UNL     1       1.738   7.782   1.395  0.00  0.00    -0.445 OA
BRANCH  18  20
ATOM     19  C   UNL     1      -0.191   9.000   2.246  0.00  0.00    +0.055 C 
ATOM     20  C   UNL     1       0.992   9.022   1.277  0.00  0.00    +0.107 C 
ATOM     21  C   UNL     1       1.906  10.201   1.615  0.00  0.00    +0.055 C 
ATOM     22  C   UNL     1       0.475   9.171  -0.155  0.00  0.00    +0.055 C 
ENDBRANCH  18  20
ENDBRANCH  14  18
ENDBRANCH   1  16
BRANCH   1  23
ATOM     23  C   UNL     1       0.245   3.750   2.188  0.00  0.00    +0.086 C 
BRANCH  23  24
ATOM     24  C   UNL     1      -0.835   4.743   2.531  0.00  0.00    +0.038 A 
ATOM     25  C   UNL     1      -2.084   4.777   2.027  0.00  0.00    +0.133 A 
ATOM     26  N   UNL     1      -2.730   5.810   2.588  0.00  0.00    -0.244 NA
ATOM     27  C   UNL     1      -1.929   6.417   3.421  0.00  0.00    +0.196 A 
ATOM     28  N   UNL     1      -0.738   5.780   3.419  0.00  0.00    -0.348 N 
ATOM     29  H   UNL     1       0.201   5.950   3.966  0.00  0.00    +0.166 HD
ENDBRANCH  23  24
ENDBRANCH   1  23
TORSDOF 7
