REMARK  Name = ZINC38081021
REMARK  5 active torsions:
REMARK  status: ('A' for Active; 'I' for Inactive)
REMARK    1  A    between atoms: C_3  and  C_18
REMARK    2  A    between atoms: C_4  and  O_7
REMARK    3  A    between atoms: O_7  and  C_8
REMARK    4  A    between atoms: C_11  and  N_15
REMARK    5  A    between atoms: N_19  and  O_20
REMARK                            x       y       z     vdW  Elec       q    Type
REMARK                         _______ _______ _______ _____ _____    ______ ____
ROOT
ATOM      1  C   UNL     1      -0.022   1.359  -0.249  0.00  0.00    +0.021 A 
ATOM      2  C   UNL     1       1.172   2.047  -0.390  0.00  0.00    +0.018 A 
ATOM      3  C   UNL     1       2.366   1.325  -0.319  0.00  0.00    +0.080 A 
ATOM      4  C   UNL     1       2.307  -0.060  -0.108  0.00  0.00    +0.231 A 
ATOM      5  N   UNL     1       1.141  -0.668   0.021  0.00  0.00    -0.220 NA
ATOM      6  C   UNL     1       0.001  -0.007  -0.043  0.00  0.00    +0.114 A 
ENDROOT
BRANCH   3   7
ATOM      7  C   UNL     1       3.669   2.009  -0.464  0.00  0.00    +0.168 C 
ATOM      8  N   UNL     1       4.774   1.325  -0.396  0.00  0.00    -0.071 NA
ATOM      9  N   UNL     1       3.713   3.377  -0.673  0.00  0.00    -0.340 N 
ATOM     10  H   UNL     1       2.889   3.887  -0.724  0.00  0.00    +0.144 HD
ATOM     11  H   UNL     1       4.568   3.826  -0.768  0.00  0.00    +0.144 HD
BRANCH   8  12
ATOM     12  O   UNL     1       6.022   1.980  -0.534  0.00  0.00    -0.408 OA
ATOM     13  H   UNL     1       6.785   1.390  -0.469  0.00  0.00    +0.328 HD
ENDBRANCH   8  12
ENDBRANCH   3   7
BRANCH   4  14
ATOM     14  O   UNL     1       3.454  -0.779  -0.036  0.00  0.00    -0.436 OA
BRANCH  14  15
ATOM     15  C   UNL     1       3.354  -2.131   0.063  0.00  0.00    +0.149 A 
ATOM     16  C   UNL     1       3.370  -2.740   1.309  0.00  0.00    +0.050 A 
ATOM     17  C   UNL     1       3.268  -4.115   1.406  0.00  0.00    +0.036 A 
ATOM     18  C   UNL     1       3.150  -4.884   0.263  0.00  0.00    +0.128 A 
ATOM     19  C   UNL     1       3.133  -4.280  -0.980  0.00  0.00    +0.056 A 
ATOM     20  C   UNL     1       3.229  -2.905  -1.083  0.00  0.00    +0.085 A 
ATOM     21 CL   UNL     1       3.200  -2.146  -2.645  0.00  0.00    -0.080 Cl
BRANCH  18  22
ATOM     22  N   UNL     1       3.042  -6.356   0.371  0.00  0.00    +0.056 N 
ATOM     23  O   UNL     1       3.058  -6.885   1.458  0.00  0.00    -0.126 OA
ATOM     24  O   UNL     1       2.939  -7.029  -0.628  0.00  0.00    -0.126 OA
ENDBRANCH  18  22
ENDBRANCH  14  15
ENDBRANCH   4  14
TORSDOF 5
