REMARK  Name = ZINC06844203
REMARK  11 active torsions:
REMARK  status: ('A' for Active; 'I' for Inactive)
REMARK    1  A    between atoms: C_1  and  C_2
REMARK    2  A    between atoms: C_2  and  O_3
REMARK    3  A    between atoms: O_3  and  C_4
REMARK    4  A    between atoms: C_4  and  C_6
REMARK    5  A    between atoms: C_7  and  C_14
REMARK    6  A    between atoms: C_8  and  C_12
REMARK    7  A    between atoms: C_9  and  N_11
REMARK    8  A    between atoms: C_14  and  S_15
REMARK    9  A    between atoms: S_15  and  C_16
REMARK   10  A    between atoms: C_19  and  C_22
REMARK   11  A    between atoms: N_20  and  N_21
REMARK                            x       y       z     vdW  Elec       q    Type
REMARK                         _______ _______ _______ _____ _____    ______ ____
ROOT
ATOM      1  C   UNL     1       1.474  -2.354   2.430  0.00  0.00    +0.103 A 
ATOM      2  C   UNL     1       1.693  -3.679   2.752  0.00  0.00    +0.003 A 
ATOM      3  C   UNL     1       2.390  -3.913   3.928  0.00  0.00    +0.084 A 
ATOM      4  C   UNL     1       2.802  -2.805   4.670  0.00  0.00    +0.082 A 
ATOM      5  S   UNL     1       2.256  -1.491   3.778  0.00  0.00    -0.066 S 
ENDROOT
BRANCH   4   6
ATOM      6  N   UNL     1       3.498  -2.792   5.857  0.00  0.00    -0.352 N 
ATOM      7  H   UNL     1       3.762  -3.628   6.274  0.00  0.00    +0.143 HD
ATOM      8  H   UNL     1       3.727  -1.948   6.277  0.00  0.00    +0.143 HD
ENDBRANCH   4   6
BRANCH   1   9
ATOM      9  C   UNL     1       0.801  -1.815   1.305  0.00  0.00    +0.346 C 
ATOM     10  O   UNL     1       0.321  -2.558   0.469  0.00  0.00    -0.244 OA
BRANCH   9  11
ATOM     11  O   UNL     1       0.693  -0.477   1.160  0.00  0.00    -0.461 OA
BRANCH  11  13
ATOM     12  C   UNL     1      -0.019   1.526   0.010  0.00  0.00    +0.048 C 
ATOM     13  C   UNL     1       0.002  -0.004   0.002  0.00  0.00    +0.229 C 
ENDBRANCH  11  13
ENDBRANCH   9  11
ENDBRANCH   1   9
BRANCH   3  14
ATOM     14  C   UNL     1       2.676  -5.246   4.365  0.00  0.00    +0.102 C 
ATOM     15  N   UNL     1       2.904  -6.304   4.713  0.00  0.00    -0.191 NA
ENDBRANCH   3  14
BRANCH   2  16
ATOM     16  C   UNL     1       1.203  -4.804   1.877  0.00  0.00    +0.115 C 
BRANCH  16  17
ATOM     17  S   UNL     1       2.480  -5.223   0.659  0.00  0.00    -0.080 S 
BRANCH  17  18
ATOM     18  C   UNL     1       1.766  -6.535  -0.275  0.00  0.00    +0.209 A 
ATOM     19  N   UNL     1       0.574  -7.058  -0.101  0.00  0.00    -0.121 NA
ATOM     20  N   UNL     1       0.379  -7.996  -0.957  0.00  0.00    -0.132 NA
ATOM     21  C   UNL     1       1.425  -8.127  -1.723  0.00  0.00    +0.154 A 
ATOM     22  N   UNL     1       2.344  -7.197  -1.319  0.00  0.00    -0.228 N 
BRANCH  22  23
ATOM     23  N   UNL     1       3.584  -6.979  -1.850  0.00  0.00    -0.295 N 
ATOM     24  H   UNL     1       4.279  -7.548  -1.390  0.00  0.00    +0.163 HD
ATOM     25  H   UNL     1       3.585  -7.140  -2.845  0.00  0.00    +0.163 HD
ENDBRANCH  22  23
BRANCH  21  26
ATOM     26  C   UNL     1       1.590  -9.115  -2.849  0.00  0.00    +0.059 C 
ATOM     27  C   UNL     1       0.516 -10.193  -3.005  0.00  0.00    +0.012 C 
ATOM     28  C   UNL     1       0.593  -9.039  -4.007  0.00  0.00    +0.012 C 
ENDBRANCH  21  26
ENDBRANCH  17  18
ENDBRANCH  16  17
ENDBRANCH   2  16
TORSDOF 10
