REMARK  Name = ZINC51383048
REMARK  8 active torsions:
REMARK  status: ('A' for Active; 'I' for Inactive)
REMARK    1  A    between atoms: C_1  and  C_2
REMARK    2  A    between atoms: C_3  and  N_22
REMARK    3  A    between atoms: C_4  and  N_8
REMARK    4  A    between atoms: N_5  and  C_7
REMARK    5  A    between atoms: N_8  and  C_9
REMARK    6  A    between atoms: C_9  and  C_10
REMARK    7  A    between atoms: C_10  and  N_11
REMARK    8  A    between atoms: N_11  and  C_12
REMARK                            x       y       z     vdW  Elec       q    Type
REMARK                         _______ _______ _______ _____ _____    ______ ____
ROOT
ATOM      1  C   UNL     1       0.684  -4.386  -0.823  0.00  0.00    +0.121 C 
ENDROOT
BRANCH   1   2
ATOM      2  N   UNL     1       0.511  -3.049  -1.397  0.00  0.00    -0.326 N 
ATOM      3  H   UNL     1       0.563  -2.923  -2.357  0.00  0.00    +0.148 HD
BRANCH   2   7
ATOM      4  C   UNL     1      -0.387   1.585   0.217  0.00  0.00    +0.070 C 
ATOM      5  C   UNL     1      -0.128   0.101   0.188  0.00  0.00    +0.092 A 
ATOM      6  C   UNL     1       0.073  -0.673  -0.959  0.00  0.00    +0.188 A 
ATOM      7  C   UNL     1       0.274  -1.960  -0.563  0.00  0.00    +0.148 A 
ATOM      8  N   UNL     1       0.200  -1.988   0.787  0.00  0.00    -0.251 N 
ATOM      9  N   UNL     1      -0.047  -0.683   1.232  0.00  0.00    -0.173 NA
ATOM     10  C   UNL     1       0.356  -3.173   1.635  0.00  0.00    +0.174 C 
BRANCH   6  11
ATOM     11  N   UNL     1       0.069  -0.180  -2.354  0.00  0.00    +0.062 N 
ATOM     12  O   UNL     1       1.097   0.200  -2.865  0.00  0.00    -0.126 OA
ATOM     13  O   UNL     1      -0.963  -0.157  -2.984  0.00  0.00    -0.126 OA
ENDBRANCH   6  11
ENDBRANCH   2   7
ENDBRANCH   1   2
BRANCH   1  14
ATOM     14  C   UNL     1       1.080  -5.368  -1.929  0.00  0.00    +0.120 C 
BRANCH  14  15
ATOM     15  N   UNL     1       1.252  -6.705  -1.355  0.00  0.00    -0.342 N 
ATOM     16  H   UNL     1       1.114  -6.847  -0.406  0.00  0.00    +0.146 HD
BRANCH  15  17
ATOM     17  C   UNL     1       1.615  -7.772  -2.174  0.00  0.00    +0.035 A 
ATOM     18  C   UNL     1       1.819  -7.576  -3.523  0.00  0.00    +0.023 A 
ATOM     19  C   UNL     1       2.182  -8.635  -4.350  0.00  0.00    +0.002 A 
ATOM     20  C   UNL     1       2.345  -9.892  -3.851  0.00  0.00    +0.008 A 
ATOM     21  C   UNL     1       2.147 -10.134  -2.481  0.00  0.00    -0.016 A 
ATOM     22  C   UNL     1       1.783  -9.063  -1.629  0.00  0.00    +0.003 A 
ATOM     23  C   UNL     1       1.590  -9.306  -0.260  0.00  0.00    +0.010 A 
ATOM     24  C   UNL     1       1.760 -10.565   0.232  0.00  0.00    +0.001 A 
ATOM     25  C   UNL     1       2.125 -11.618  -0.605  0.00  0.00    +0.001 A 
ATOM     26  C   UNL     1       2.308 -11.421  -1.939  0.00  0.00    +0.008 A 
ENDBRANCH  15  17
ENDBRANCH  14  15
ENDBRANCH   1  14
TORSDOF 6
