REMARK  Name = ZINC20757233
REMARK  7 active torsions:
REMARK  status: ('A' for Active; 'I' for Inactive)
REMARK    1  A    between atoms: C_1  and  C_2
REMARK    2  A    between atoms: C_16  and  C_19
REMARK    3  A    between atoms: C_19  and  C_20
REMARK    4  A    between atoms: N_32  and  C_35
REMARK    5  A    between atoms: C_35  and  C_36
REMARK    6  A    between atoms: C_36  and  O_37
REMARK    7  A    between atoms: O_37  and  C_38
REMARK                            x       y       z     vdW  Elec       q    Type
REMARK                         _______ _______ _______ _____ _____    ______ ____
ROOT
ATOM      1  C   UNL     1      -0.017   1.552   0.590  0.00  0.00    +0.045 C 
ATOM      2  C   UNL     1       0.009   0.051   0.466  0.00  0.00    -0.029 A 
ATOM      3  C   UNL     1       0.045  -0.536  -0.782  0.00  0.00    +0.005 A 
ATOM      4  C   UNL     1       0.069  -1.913  -0.905  0.00  0.00    +0.001 A 
ATOM      5  C   UNL     1       0.056  -2.707   0.228  0.00  0.00    +0.008 A 
ATOM      6  C   UNL     1       0.019  -2.126   1.476  0.00  0.00    +0.004 A 
ATOM      7  C   UNL     1       0.001  -0.740   1.613  0.00  0.00    +0.042 A 
ATOM      8  N   UNL     1      -0.028  -0.389   2.964  0.00  0.00    -0.283 N 
ATOM      9  C   UNL     1      -0.027  -1.469   3.769  0.00  0.00    +0.243 C 
ATOM     10  O   UNL     1      -0.050  -1.467   4.982  0.00  0.00    -0.273 OA
ATOM     11  C   UNL     1      -0.004  -2.676   2.873  0.00  0.00    +0.136 C 
ATOM     12  C   UNL     1       1.228  -3.545   3.155  0.00  0.00    +0.122 C 
ATOM     13  C   UNL     1       0.703  -4.682   4.075  0.00  0.00    +0.107 C 
ATOM     14  C   UNL     1      -0.793  -4.367   4.281  0.00  0.00    +0.072 C 
ATOM     15  N   UNL     1      -1.173  -3.548   3.091  0.00  0.00    -0.295 NA
ATOM     16  C   UNL     1       0.856  -5.920   3.221  0.00  0.00    +0.227 C 
ATOM     17  O   UNL     1       0.548  -7.044   3.556  0.00  0.00    -0.275 OA
ATOM     18  N   UNL     1       1.383  -5.582   2.039  0.00  0.00    -0.239 N 
ATOM     19  C   UNL     1       1.643  -4.263   1.891  0.00  0.00    +0.228 C 
ATOM     20  O   UNL     1       2.126  -3.735   0.912  0.00  0.00    -0.275 OA
ATOM     21  H   UNL     1      -0.046   0.526   3.285  0.00  0.00    +0.155 HD
ATOM     22  H   UNL     1      -2.000  -3.003   3.282  0.00  0.00    +0.124 HD
ENDROOT
BRANCH  14  23
ATOM     23  C   UNL     1      -1.611  -5.659   4.305  0.00  0.00    +0.056 C 
BRANCH  23  24
ATOM     24  C   UNL     1      -3.048  -5.339   4.629  0.00  0.00    -0.021 A 
ATOM     25  C   UNL     1      -3.618  -5.370   5.844  0.00  0.00    +0.087 A 
ATOM     26  N   UNL     1      -4.937  -5.018   5.749  0.00  0.00    -0.360 N 
ATOM     27  H   UNL     1      -5.556  -4.968   6.494  0.00  0.00    +0.165 HD
ATOM     28  C   UNL     1      -5.256  -4.746   4.437  0.00  0.00    +0.047 A 
ATOM     29  C   UNL     1      -4.085  -4.929   3.679  0.00  0.00    +0.003 A 
ATOM     30  C   UNL     1      -4.107  -4.716   2.300  0.00  0.00    +0.010 A 
ATOM     31  C   UNL     1      -5.268  -4.326   1.693  0.00  0.00    +0.001 A 
ATOM     32  C   UNL     1      -6.425  -4.141   2.437  0.00  0.00    +0.002 A 
ATOM     33  C   UNL     1      -6.427  -4.355   3.798  0.00  0.00    +0.026 A 
ENDBRANCH  23  24
ENDBRANCH  14  23
BRANCH  18  34
ATOM     34  C   UNL     1       1.662  -6.563   0.987  0.00  0.00    +0.144 C 
BRANCH  34  35
ATOM     35  C   UNL     1       3.125  -7.003   1.076  0.00  0.00    +0.179 C 
BRANCH  35  36
ATOM     36  O   UNL     1       3.337  -7.706   2.302  0.00  0.00    -0.381 OA
ATOM     37  C   UNL     1       4.679  -8.163   2.485  0.00  0.00    +0.194 C 
ENDBRANCH  35  36
ENDBRANCH  34  35
ENDBRANCH  18  34
TORSDOF 5
