REMARK  Name = ZINC07924614
REMARK  9 active torsions:
REMARK  status: ('A' for Active; 'I' for Inactive)
REMARK    1  A    between atoms: C_1  and  C_2
REMARK    2  A    between atoms: C_11  and  O_13
REMARK    3  A    between atoms: O_13  and  C_14
REMARK    4  A    between atoms: C_14  and  C_15
REMARK    5  A    between atoms: N_17  and  C_18
REMARK    6  A    between atoms: C_18  and  C_20
REMARK    7  A    between atoms: C_18  and  C_27
REMARK    8  A    between atoms: C_27  and  C_28
REMARK    9  A    between atoms: C_27  and  C_29
REMARK                            x       y       z     vdW  Elec       q    Type
REMARK                         _______ _______ _______ _____ _____    ______ ____
ROOT
ATOM      1  C   UNL     1       0.111  -3.159   7.139  0.00  0.00    +0.251 C 
ATOM      2  O   UNL     1       0.126  -4.356   6.944  0.00  0.00    -0.272 OA
ATOM      3  N   UNL     1       0.116  -2.681   8.399  0.00  0.00    -0.305 N 
ATOM      4  H   UNL     1       0.104  -1.724   8.555  0.00  0.00    +0.149 HD
ENDROOT
BRANCH   1   5
ATOM      5  C   UNL     1       0.087  -2.206   5.972  0.00  0.00    +0.324 C 
BRANCH   5   6
ATOM      6  O   UNL     1       0.086  -2.948   4.751  0.00  0.00    -0.483 OA
BRANCH   6  17
ATOM      7  C   UNL     1      -0.018   1.503   0.010  0.00  0.00    +0.045 C 
ATOM      8  C   UNL     1       0.002  -0.004   0.002  0.00  0.00    -0.033 A 
ATOM      9  C   UNL     1       0.006  -0.695  -1.167  0.00  0.00    +0.096 A 
ATOM     10  C   UNL     1       0.026  -2.105  -1.149  0.00  0.00    +0.337 A 
ATOM     11  O   UNL     1       0.030  -2.712  -2.204  0.00  0.00    -0.245 OA
ATOM     12  O   UNL     1       0.041  -2.795   0.003  0.00  0.00    -0.422 OA
ATOM     13  C   UNL     1       0.038  -2.169   1.199  0.00  0.00    +0.143 A 
ATOM     14  C   UNL     1       0.024  -0.763   1.254  0.00  0.00    +0.021 A 
ATOM     15  C   UNL     1       0.026  -0.111   2.492  0.00  0.00    +0.015 A 
ATOM     16  C   UNL     1       0.046  -0.842   3.644  0.00  0.00    +0.046 A 
ATOM     17  C   UNL     1       0.066  -2.234   3.596  0.00  0.00    +0.125 A 
ATOM     18  C   UNL     1       0.053  -2.897   2.379  0.00  0.00    +0.092 A 
ENDBRANCH   6  17
ENDBRANCH   5   6
ENDBRANCH   1   5
BRANCH   3  19
ATOM     19  C   UNL     1       0.140  -3.608   9.534  0.00  0.00    +0.106 C 
BRANCH  19  20
ATOM     20  C   UNL     1       0.742  -2.920  10.732  0.00  0.00    -0.027 A 
ATOM     21  C   UNL     1       0.428  -1.601  11.001  0.00  0.00    +0.008 A 
ATOM     22  C   UNL     1       0.979  -0.969  12.099  0.00  0.00    +0.038 A 
ATOM     23  C   UNL     1       1.845  -1.658  12.931  0.00  0.00    +0.123 A 
ATOM     24  C   UNL     1       2.159  -2.979  12.661  0.00  0.00    +0.038 A 
ATOM     25  C   UNL     1       1.603  -3.610  11.564  0.00  0.00    +0.008 A 
ATOM     26  F   UNL     1       2.385  -1.041  14.005  0.00  0.00    -0.205 F 
ENDBRANCH  19  20
BRANCH  19  27
ATOM     27  C   UNL     1      -1.288  -4.048   9.862  0.00  0.00    +0.008 C 
ATOM     28  C   UNL     1      -1.900  -4.746   8.646  0.00  0.00    +0.009 C 
ATOM     29  C   UNL     1      -1.264  -5.016  11.047  0.00  0.00    +0.009 C 
ENDBRANCH  19  27
ENDBRANCH   3  19
TORSDOF 6
