REMARK  Name = ZINC23619202
REMARK  1 active torsions:
REMARK  status: ('A' for Active; 'I' for Inactive)
REMARK    1  A    between atoms: C_5  and  C_7
REMARK                            x       y       z     vdW  Elec       q    Type
REMARK                         _______ _______ _______ _____ _____    ______ ____
ROOT
ATOM      1  C   UNL     1       0.002  -0.004   0.002  0.00  0.00    +0.099 A 
ATOM      2  C   UNL     1       1.335  -0.405  -0.158  0.00  0.00    +0.018 A 
ATOM      3  C   UNL     1       2.114   0.704  -0.103  0.00  0.00    +0.043 A 
ATOM      4  N   UNL     1       1.315   1.767   0.080  0.00  0.00    -0.281 N 
ATOM      5  H   UNL     1       1.749   2.775   0.151  0.00  0.00    +0.189 HD
ATOM      6  N   UNL     1      -0.009   1.307   0.145  0.00  0.00    -0.173 NA
ATOM      7  C   UNL     1       3.617   0.663  -0.234  0.00  0.00    +0.074 C 
ATOM      8  C   UNL     1       4.068  -0.790  -0.028  0.00  0.00    +0.113 C 
ATOM      9  N   UNL     1       3.258  -1.682  -0.868  0.00  0.00    -0.309 N 
ATOM     10  C   UNL     1       1.880  -1.796  -0.361  0.00  0.00    +0.145 C 
ATOM     11  C   UNL     1       3.849  -2.928  -0.982  0.00  0.00    +0.154 A 
ATOM     12  C   UNL     1       5.170  -3.057  -1.448  0.00  0.00    +0.148 A 
ATOM     13  C   UNL     1       5.720  -4.345  -1.543  0.00  0.00    +0.165 A 
ATOM     14  N   UNL     1       6.996  -4.178  -2.018  0.00  0.00    -0.329 N 
ATOM     15  H   UNL     1       7.641  -5.054  -2.181  0.00  0.00    +0.168 HD
ATOM     16  C   UNL     1       7.194  -2.840  -2.197  0.00  0.00    +0.198 A 
ATOM     17  N   UNL     1       6.121  -2.184  -1.862  0.00  0.00    -0.231 NA
ATOM     18  N   UNL     1       4.980  -5.393  -1.191  0.00  0.00    -0.195 NA
ATOM     19  C   UNL     1       3.742  -5.227  -0.756  0.00  0.00    +0.216 A 
ATOM     20  N   UNL     1       3.184  -4.028  -0.647  0.00  0.00    -0.197 NA
ATOM     21  N   UNL     1       3.003  -6.343  -0.399  0.00  0.00    -0.327 N 
ATOM     22  H   UNL     1       1.972  -6.227  -0.035  0.00  0.00    +0.145 HD
ATOM     23  H   UNL     1       3.449  -7.346  -0.479  0.00  0.00    +0.145 HD
ENDROOT
BRANCH   1  28
ATOM     24  C   UNL     1      -2.288  -2.883   0.779  0.00  0.00    +0.001 A 
ATOM     25  C   UNL     1      -3.399  -2.558   0.021  0.00  0.00    +0.001 A 
ATOM     26  C   UNL     1      -3.408  -1.406  -0.744  0.00  0.00    +0.020 A 
ATOM     27  C   UNL     1      -2.307  -0.572  -0.754  0.00  0.00    +0.050 A 
ATOM     28  C   UNL     1      -1.185  -0.895   0.009  0.00  0.00    +0.021 A 
ATOM     29  C   UNL     1      -1.180  -2.060   0.773  0.00  0.00    +0.011 A 
ATOM     30 CL   UNL     1      -2.319   0.874  -1.714  0.00  0.00    -0.083 Cl
ENDBRANCH   1  28
TORSDOF 1
