REMARK  Name = ZINC48666801
REMARK  5 active torsions:
REMARK  status: ('A' for Active; 'I' for Inactive)
REMARK    1  A    between atoms: C_5  and  C_6
REMARK    2  A    between atoms: C_6  and  S_7
REMARK    3  A    between atoms: S_7  and  C_8
REMARK    4  A    between atoms: C_11  and  C_15
REMARK    5  A    between atoms: C_12  and  N_14
REMARK                            x       y       z     vdW  Elec       q    Type
REMARK                         _______ _______ _______ _____ _____    ______ ____
ROOT
ATOM      1  C   UNL     1      -2.983  -2.470  -1.525  0.00  0.00    +0.190 A 
ATOM      2  N   UNL     1      -3.381  -2.812  -0.305  0.00  0.00    -0.229 NA
ATOM      3  C   UNL     1      -4.385  -3.650  -0.126  0.00  0.00    +0.136 A 
ATOM      4  C   UNL     1      -5.035  -4.184  -1.244  0.00  0.00    +0.109 A 
ATOM      5  C   UNL     1      -4.582  -3.797  -2.525  0.00  0.00    +0.138 A 
ATOM      6  N   UNL     1      -3.569  -2.944  -2.615  0.00  0.00    -0.206 NA
ENDROOT
BRANCH   5   7
ATOM      7  N   UNL     1      -5.186  -4.293  -3.662  0.00  0.00    -0.342 N 
ATOM      8  H   UNL     1      -5.929  -4.913  -3.586  0.00  0.00    +0.144 HD
ATOM      9  H   UNL     1      -4.869  -4.022  -4.538  0.00  0.00    +0.144 HD
ENDBRANCH   5   7
BRANCH   4  10
ATOM     10  C   UNL     1      -6.128  -5.097  -1.095  0.00  0.00    +0.104 C 
ATOM     11  N   UNL     1      -6.995  -5.821  -0.976  0.00  0.00    -0.191 NA
ENDBRANCH   4  10
BRANCH   1  12
ATOM     12  S   UNL     1      -1.637  -1.347  -1.700  0.00  0.00    -0.081 S 
BRANCH  12  13
ATOM     13  C   UNL     1      -1.156  -0.969   0.008  0.00  0.00    +0.119 C 
BRANCH  13  18
ATOM     14  C   UNL     1      -0.016   1.351   0.009  0.00  0.00    +0.013 A 
ATOM     15  C   UNL     1       1.184   2.038   0.002  0.00  0.00    +0.028 A 
ATOM     16  C   UNL     1       2.343   1.335  -0.013  0.00  0.00    +0.078 A 
ATOM     17  S   UNL     1       1.753  -0.350  -0.017  0.00  0.00    -0.081 S 
ATOM     18  C   UNL     1       0.002  -0.004   0.002  0.00  0.00    +0.001 A 
ATOM     19 CL   UNL     1       3.977   1.921  -0.026  0.00  0.00    -0.076 Cl
ENDBRANCH  13  18
ENDBRANCH  12  13
ENDBRANCH   1  12
TORSDOF 5
