REMARK  Name = ZINC05792957
REMARK  7 active torsions:
REMARK  status: ('A' for Active; 'I' for Inactive)
REMARK    1  A    between atoms: C_1  and  C_2
REMARK    2  A    between atoms: C_4  and  C_29
REMARK    3  A    between atoms: C_6  and  O_8
REMARK    4  A    between atoms: O_8  and  C_9
REMARK    5  A    between atoms: C_9  and  C_10
REMARK    6  A    between atoms: N_12  and  C_13
REMARK    7  A    between atoms: C_17  and  C_19
REMARK                            x       y       z     vdW  Elec       q    Type
REMARK                         _______ _______ _______ _____ _____    ______ ____
ROOT
ATOM      1  C   UNL     1      -0.025  -3.282   7.103  0.00  0.00    +0.034 A 
ATOM      2  C   UNL     1      -0.728  -2.887   8.235  0.00  0.00    +0.023 A 
ATOM      3  C   UNL     1      -0.819  -3.730   9.327  0.00  0.00    +0.003 A 
ATOM      4  C   UNL     1      -0.212  -4.970   9.300  0.00  0.00    +0.013 A 
ATOM      5  C   UNL     1       0.495  -5.376   8.167  0.00  0.00    +0.039 A 
ATOM      6  C   UNL     1       0.582  -4.527   7.063  0.00  0.00    +0.036 A 
ENDROOT
BRANCH   5   7
ATOM      7  C   UNL     1       1.146  -6.703   8.135  0.00  0.00    +0.228 A 
ATOM      8  N   UNL     1       1.835  -7.177   7.129  0.00  0.00    -0.209 NA
ATOM      9  C   UNL     1       2.282  -8.418   7.451  0.00  0.00    +0.111 A 
ATOM     10  C   UNL     1       3.048  -9.372   6.777  0.00  0.00    +0.051 A 
ATOM     11  C   UNL     1       3.341 -10.570   7.390  0.00  0.00    +0.043 A 
ATOM     12  C   UNL     1       2.878 -10.834   8.673  0.00  0.00    +0.024 A 
ATOM     13  C   UNL     1       2.121  -9.901   9.349  0.00  0.00    +0.050 A 
ATOM     14  C   UNL     1       1.817  -8.690   8.748  0.00  0.00    +0.156 A 
ATOM     15  O   UNL     1       1.121  -7.599   9.140  0.00  0.00    -0.435 OA
ATOM     16 CL   UNL     1       4.292 -11.758   6.555  0.00  0.00    -0.083 Cl
ENDBRANCH   5   7
BRANCH   1  19
ATOM     17  C   UNL     1       0.062  -2.931   4.751  0.00  0.00    +0.255 C 
ATOM     18  O   UNL     1       0.069  -4.133   4.584  0.00  0.00    -0.272 OA
ATOM     19  N   UNL     1       0.063  -2.425   6.000  0.00  0.00    -0.283 N 
ATOM     20  H   UNL     1       0.126  -1.466   6.135  0.00  0.00    +0.155 HD
BRANCH  17  21
ATOM     21  C   UNL     1       0.053  -2.005   3.563  0.00  0.00    +0.324 C 
BRANCH  21  22
ATOM     22  O   UNL     1       0.054  -2.775   2.359  0.00  0.00    -0.483 OA
BRANCH  22  28
ATOM     23  C   UNL     1       0.020   1.504   0.011  0.00  0.00    +0.044 C 
ATOM     24  C   UNL     1       0.029  -0.003   0.002  0.00  0.00    -0.047 A 
ATOM     25  C   UNL     1       0.029  -0.687  -1.199  0.00  0.00    +0.007 A 
ATOM     26  C   UNL     1       0.038  -2.070  -1.210  0.00  0.00    -0.047 A 
ATOM     27  C   UNL     1       0.046  -2.771  -0.020  0.00  0.00    +0.049 A 
ATOM     28  C   UNL     1       0.046  -2.087   1.187  0.00  0.00    +0.122 A 
ATOM     29  C   UNL     1       0.043  -0.700   1.195  0.00  0.00    +0.049 A 
ATOM     30  C   UNL     1       0.038  -2.812  -2.522  0.00  0.00    +0.044 C 
ENDBRANCH  22  28
ENDBRANCH  21  22
ENDBRANCH  17  21
ENDBRANCH   1  19
TORSDOF 5
