REMARK  Name = ZINC57933248
REMARK  4 active torsions:
REMARK  status: ('A' for Active; 'I' for Inactive)
REMARK    1  A    between atoms: C_1  and  C_2
REMARK    2  A    between atoms: C_2  and  C_3
REMARK    3  A    between atoms: N_7  and  C_17
REMARK    4  A    between atoms: C_17  and  C_18
REMARK                            x       y       z     vdW  Elec       q    Type
REMARK                         _______ _______ _______ _____ _____    ______ ____
ROOT
ATOM      1  C   UNL     1      -1.433  -0.534   0.013  0.00  0.00    +0.157 C 
ATOM      2  C   UNL     1      -1.415  -2.037   0.124  0.00  0.00    +0.240 C 
ATOM      3  O   UNL     1      -1.448  -2.558   1.219  0.00  0.00    -0.273 OA
ATOM      4  N   UNL     1      -1.365  -2.807  -0.978  0.00  0.00    -0.264 N 
ATOM      5  C   UNL     1      -1.469  -2.242  -2.256  0.00  0.00    +0.060 A 
ATOM      6  C   UNL     1      -1.214  -3.003  -3.386  0.00  0.00    +0.066 A 
ATOM      7  C   UNL     1      -1.312  -2.429  -4.641  0.00  0.00    +0.160 A 
ATOM      8  C   UNL     1      -1.664  -1.094  -4.774  0.00  0.00    +0.160 A 
ATOM      9  C   UNL     1      -1.923  -0.329  -3.648  0.00  0.00    +0.066 A 
ATOM     10  C   UNL     1      -1.829  -0.902  -2.392  0.00  0.00    +0.052 A 
ATOM     11  N   UNL     1      -2.108  -0.152  -1.236  0.00  0.00    -0.331 N 
ATOM     12  F   UNL     1      -1.754  -0.539  -6.002  0.00  0.00    -0.202 F 
ATOM     13  F   UNL     1      -1.065  -3.171  -5.742  0.00  0.00    -0.202 F 
ATOM     14  H   UNL     1      -2.727   0.594  -1.261  0.00  0.00    +0.147 HD
ENDROOT
BRANCH   1  16
ATOM     15  C   UNL     1      -0.019   1.526   0.010  0.00  0.00    +0.006 C 
ATOM     16  C   UNL     1       0.002  -0.004   0.002  0.00  0.00    +0.028 C 
ENDBRANCH   1  16
BRANCH   4  17
ATOM     17  C   UNL     1      -1.197  -4.256  -0.840  0.00  0.00    +0.151 C 
BRANCH  17  18
ATOM     18  C   UNL     1      -2.551  -4.912  -0.747  0.00  0.00    +0.005 A 
ATOM     19  C   UNL     1      -3.059  -5.278   0.485  0.00  0.00    +0.008 A 
ATOM     20  C   UNL     1      -4.301  -5.880   0.570  0.00  0.00    +0.000 A 
ATOM     21  C   UNL     1      -5.036  -6.114  -0.577  0.00  0.00    +0.003 A 
ATOM     22  C   UNL     1      -4.531  -5.748  -1.809  0.00  0.00    +0.038 A 
ATOM     23  C   UNL     1      -3.290  -5.141  -1.896  0.00  0.00    +0.128 A 
ATOM     24  F   UNL     1      -2.797  -4.778  -3.100  0.00  0.00    -0.205 F 
ENDBRANCH  17  18
ENDBRANCH   4  17
TORSDOF 3
