REMARK  Name = ZINC21155300
REMARK  13 active torsions:
REMARK  status: ('A' for Active; 'I' for Inactive)
REMARK    1  A    between atoms: C_1  and  C_2
REMARK    2  A    between atoms: C_2  and  O_3
REMARK    3  A    between atoms: O_3  and  C_4
REMARK    4  A    between atoms: C_5  and  C_31
REMARK    5  A    between atoms: C_7  and  S_11
REMARK    6  A    between atoms: C_9  and  C_10
REMARK    7  A    between atoms: S_11  and  N_14
REMARK    8  A    between atoms: N_14  and  C_15
REMARK    9  A    between atoms: C_15  and  C_16
REMARK   10  A    between atoms: C_16  and  C_18
REMARK   11  A    between atoms: C_16  and  N_24
REMARK   12  A    between atoms: N_22  and  C_23
REMARK   13  A    between atoms: N_27  and  C_30
REMARK                            x       y       z     vdW  Elec       q    Type
REMARK                         _______ _______ _______ _____ _____    ______ ____
ROOT
ATOM      1  N   UNL     1      -1.317   6.118   5.049  0.00  0.00    -0.188 NA
ATOM      2  H   UNL     1      -1.333   5.861   6.118  0.00  0.00    +0.148 HD
ENDROOT
BRANCH   1   3
ATOM      3  S   UNL     1      -0.952   4.945   3.939  0.00  0.00    +0.058 S 
ATOM      4  O   UNL     1      -1.806   5.161   2.824  0.00  0.00    -0.153 OA
ATOM      5  O   UNL     1      -0.920   3.713   4.647  0.00  0.00    -0.153 OA
BRANCH   3   9
ATOM      6  C   UNL     1       3.272   5.724   2.506  0.00  0.00    +0.126 A 
ATOM      7  C   UNL     1       2.198   6.307   1.851  0.00  0.00    -0.007 A 
ATOM      8  C   UNL     1       0.910   6.063   2.286  0.00  0.00    +0.035 A 
ATOM      9  C   UNL     1       0.692   5.248   3.382  0.00  0.00    +0.106 A 
ATOM     10  C   UNL     1       1.762   4.670   4.040  0.00  0.00    +0.035 A 
ATOM     11  C   UNL     1       3.051   4.906   3.605  0.00  0.00    -0.007 A 
ATOM     12  C   UNL     1       4.217   4.276   4.322  0.00  0.00    +0.047 C 
ATOM     13  C   UNL     1       2.435   7.201   0.661  0.00  0.00    +0.047 C 
BRANCH   6  14
ATOM     14  O   UNL     1       4.540   5.958   2.076  0.00  0.00    -0.492 OA
BRANCH  14  16
ATOM     15  C   UNL     1       6.498   5.477   0.743  0.00  0.00    +0.048 C 
ATOM     16  C   UNL     1       5.071   5.057   1.102  0.00  0.00    +0.226 C 
ENDBRANCH  14  16
ENDBRANCH   6  14
ENDBRANCH   3   9
ENDBRANCH   1   3
BRANCH   1  17
ATOM     17  C   UNL     1      -1.400   7.520   4.632  0.00  0.00    +0.131 C 
BRANCH  17  18
ATOM     18  C   UNL     1      -2.175   8.319   5.682  0.00  0.00    +0.119 C 
BRANCH  18  19
ATOM     19  N   UNL     1      -3.580   7.890   5.686  0.00  0.00    -0.296 NA
ATOM     20  C   UNL     1      -3.682   6.426   5.768  0.00  0.00    +0.066 C 
ATOM     21  C   UNL     1      -5.157   6.025   5.850  0.00  0.00    -0.064 C 
ATOM     22  N   UNL     1      -5.867   6.534   4.668  0.00  0.00    +0.379 N 
ATOM     23  C   UNL     1      -5.764   7.997   4.585  0.00  0.00    -0.064 C 
ATOM     24  C   UNL     1      -4.289   8.399   4.504  0.00  0.00    +0.066 C 
ATOM     25  C   UNL     1      -7.271   6.104   4.672  0.00  0.00    -0.096 C 
ATOM     26  H   UNL     1      -5.387   6.108   3.775  0.00  0.00    -0.082 HD
ENDBRANCH  18  19
BRANCH  18  27
ATOM     27  C   UNL     1      -1.572   8.079   7.042  0.00  0.00    +0.037 A 
ATOM     28  C   UNL     1      -2.201   7.527   8.099  0.00  0.00    +0.024 A 
ATOM     29  C   UNL     1      -1.280   7.485   9.164  0.00  0.00    +0.019 A 
ATOM     30  C   UNL     1      -0.125   8.022   8.719  0.00  0.00    +0.085 A 
ATOM     31  N   UNL     1      -0.298   8.388   7.418  0.00  0.00    -0.352 N 
ATOM     32  C   UNL     1       0.716   9.011   6.564  0.00  0.00    +0.148 C 
ENDBRANCH  18  27
ENDBRANCH  17  18
ENDBRANCH   1  17
TORSDOF 8
