REMARK  Name = ZINC23865540
REMARK  9 active torsions:
REMARK  status: ('A' for Active; 'I' for Inactive)
REMARK    1  A    between atoms: C_1  and  C_2
REMARK    2  A    between atoms: C_4  and  N_9
REMARK    3  A    between atoms: N_9  and  C_10
REMARK    4  A    between atoms: C_10  and  C_12
REMARK    5  A    between atoms: C_10  and  C_13
REMARK    6  A    between atoms: C_13  and  C_15
REMARK    7  A    between atoms: C_16  and  N_25
REMARK    8  A    between atoms: N_17  and  C_24
REMARK    9  A    between atoms: N_20  and  C_23
REMARK                            x       y       z     vdW  Elec       q    Type
REMARK                         _______ _______ _______ _____ _____    ______ ____
ROOT
ATOM      1  C   UNL     1      -4.774   0.877   0.615  0.00  0.00    +0.191 C 
ATOM      2  O   UNL     1      -4.568  -0.311   0.762  0.00  0.00    -0.290 OA
ENDROOT
BRANCH   1   3
ATOM      3  C   UNL     1      -6.000   1.438   1.032  0.00  0.00    +0.122 A 
ATOM      4  C   UNL     1      -7.046   0.625   1.505  0.00  0.00    +0.116 A 
ATOM      5  N   UNL     1      -8.212   1.214   1.902  0.00  0.00    -0.284 N 
ATOM      6  C   UNL     1      -8.379   2.545   1.839  0.00  0.00    +0.333 A 
ATOM      7  O   UNL     1      -9.438   3.020   2.201  0.00  0.00    -0.246 OA
ATOM      8  N   UNL     1      -7.418   3.370   1.393  0.00  0.00    -0.263 N 
ATOM      9  C   UNL     1      -6.227   2.888   0.982  0.00  0.00    +0.269 A 
ATOM     10  O   UNL     1      -5.359   3.639   0.576  0.00  0.00    -0.267 OA
ATOM     11  C   UNL     1      -7.667   4.813   1.351  0.00  0.00    +0.157 C 
ATOM     12  C   UNL     1      -9.306   0.377   2.401  0.00  0.00    +0.155 C 
BRANCH   4  13
ATOM     13  N   UNL     1      -6.896  -0.726   1.570  0.00  0.00    -0.344 N 
ATOM     14  H   UNL     1      -7.720  -1.353   1.941  0.00  0.00    +0.144 HD
ATOM     15  H   UNL     1      -5.952  -1.190   1.251  0.00  0.00    +0.144 HD
ENDBRANCH   4  13
ENDBRANCH   1   3
BRANCH   1  16
ATOM     16  C   UNL     1      -3.720   1.753  -0.012  0.00  0.00    +0.139 C 
ATOM     17  C   UNL     1      -4.130   2.096  -1.446  0.00  0.00    +0.036 C 
BRANCH  16  18
ATOM     18  N   UNL     1      -2.440   1.042  -0.027  0.00  0.00    -0.334 N 
ATOM     19  H   UNL     1      -2.421  -0.058  -0.017  0.00  0.00    +0.147 HD
BRANCH  18  23
ATOM     20  C   UNL     1       2.474   1.070  -0.125  0.00  0.00    +0.045 C 
ATOM     21  C   UNL     1       1.156   1.800  -0.103  0.00  0.00    -0.035 A 
ATOM     22  C   UNL     1      -0.027   1.087  -0.070  0.00  0.00    +0.027 A 
ATOM     23  C   UNL     1      -1.242   1.760  -0.055  0.00  0.00    +0.028 A 
ATOM     24  C   UNL     1      -1.263   3.149  -0.063  0.00  0.00    +0.024 A 
ATOM     25  C   UNL     1      -0.078   3.857  -0.097  0.00  0.00    +0.017 A 
ATOM     26  C   UNL     1       1.131   3.183  -0.117  0.00  0.00    +0.021 A 
ATOM     27 BR   UNL     1       2.752   4.155  -0.164  0.00  0.00    -0.050 Br
ENDBRANCH  18  23
ENDBRANCH  16  18
ENDBRANCH   1  16
TORSDOF 5
