REMARK  Name = ZINC45470721
REMARK  10 active torsions:
REMARK  status: ('A' for Active; 'I' for Inactive)
REMARK    1  A    between atoms: C_1  and  C_2
REMARK    2  A    between atoms: C_2  and  C_3
REMARK    3  A    between atoms: C_2  and  C_4
REMARK    4  A    between atoms: C_2  and  N_5
REMARK    5  A    between atoms: C_6  and  C_8
REMARK    6  A    between atoms: C_8  and  N_9
REMARK    7  A    between atoms: N_9  and  C_10
REMARK    8  A    between atoms: C_11  and  C_13
REMARK    9  A    between atoms: C_13  and  N_14
REMARK   10  A    between atoms: C_16  and  C_25
REMARK                            x       y       z     vdW  Elec       q    Type
REMARK                         _______ _______ _______ _____ _____    ______ ____
ROOT
ATOM      1  N   UNL     1       5.779   2.890  -3.952  0.00  0.00    -0.314 N 
ATOM      2  C   UNL     1       6.001   2.978  -5.406  0.00  0.00    +0.160 C 
ATOM      3  C   UNL     1       5.037   4.038  -5.958  0.00  0.00    +0.276 C 
ATOM      4  O   UNL     1       5.291   5.280  -5.297  0.00  0.00    -0.476 OA
ATOM      5  C   UNL     1       5.360   5.272  -3.939  0.00  0.00    +0.143 A 
ATOM      6  C   UNL     1       5.600   4.090  -3.246  0.00  0.00    +0.073 A 
ATOM      7  C   UNL     1       5.667   4.098  -1.862  0.00  0.00    +0.027 A 
ATOM      8  C   UNL     1       5.487   5.282  -1.170  0.00  0.00    +0.002 A 
ATOM      9  C   UNL     1       5.241   6.455  -1.858  0.00  0.00    +0.004 A 
ATOM     10  C   UNL     1       5.186   6.454  -3.237  0.00  0.00    +0.047 A 
ENDROOT
BRANCH   3  11
ATOM     11  C   UNL     1       5.257   4.197  -7.440  0.00  0.00    +0.258 C 
ATOM     12  O   UNL     1       5.675   5.247  -7.882  0.00  0.00    -0.271 OA
ATOM     13  N   UNL     1       4.990   3.174  -8.275  0.00  0.00    -0.298 N 
ATOM     14  C   UNL     1       4.478   1.898  -7.756  0.00  0.00    +0.108 C 
ATOM     15  C   UNL     1       3.191   1.541  -8.507  0.00  0.00    +0.019 C 
ATOM     16  C   UNL     1       3.467   1.541 -10.012  0.00  0.00    +0.003 C 
ATOM     17  C   UNL     1       3.911   2.939 -10.451  0.00  0.00    +0.019 C 
ATOM     18  C   UNL     1       5.200   3.314  -9.723  0.00  0.00    +0.108 C 
ENDBRANCH   3  11
BRANCH   1  19
ATOM     19  C   UNL     1       5.742   1.595  -3.268  0.00  0.00    +0.201 C 
BRANCH  19  22
ATOM     20  N   UNL     1       4.051  -0.111  -2.677  0.00  0.00    -0.294 N 
ATOM     21  C   UNL     1       5.125  -0.892  -2.057  0.00  0.00    +0.132 C 
ATOM     22  C   UNL     1       4.328   1.073  -3.257  0.00  0.00    +0.233 C 
ATOM     23  O   UNL     1       3.439   1.720  -3.770  0.00  0.00    -0.274 OA
BRANCH  20  24
ATOM     24  C   UNL     1       2.677  -0.618  -2.667  0.00  0.00    +0.203 C 
BRANCH  24  26
ATOM     25  N   UNL     1       0.688  -0.476  -1.203  0.00  0.00    -0.309 N 
ATOM     26  C   UNL     1       1.972  -0.132  -1.427  0.00  0.00    +0.231 C 
ATOM     27  O   UNL     1       2.559   0.569  -0.630  0.00  0.00    -0.274 OA
ATOM     28  H   UNL     1       0.218  -1.037  -1.840  0.00  0.00    +0.149 HD
BRANCH  25  30
ATOM     29  C   UNL     1      -0.019   1.526   0.010  0.00  0.00    +0.031 C 
ATOM     30  C   UNL     1       0.002  -0.004   0.002  0.00  0.00    +0.026 C 
ATOM     31  C   UNL     1       0.742  -0.511   1.242  0.00  0.00    +0.031 C 
ATOM     32  C   UNL     1      -1.433  -0.534   0.013  0.00  0.00    +0.031 C 
ENDBRANCH  25  30
ENDBRANCH  24  26
ENDBRANCH  20  24
ENDBRANCH  19  22
ENDBRANCH   1  19
TORSDOF 6
