REMARK  Name = ZINC05442685
REMARK  8 active torsions:
REMARK  status: ('A' for Active; 'I' for Inactive)
REMARK    1  A    between atoms: C_1  and  C_2
REMARK    2  A    between atoms: C_5  and  N_9
REMARK    3  A    between atoms: C_6  and  C_8
REMARK    4  A    between atoms: C_10  and  O_11
REMARK    5  A    between atoms: C_12  and  C_13
REMARK    6  A    between atoms: N_14  and  C_15
REMARK    7  A    between atoms: C_16  and  C_24
REMARK    8  A    between atoms: C_26  and  C_28
REMARK                            x       y       z     vdW  Elec       q    Type
REMARK                         _______ _______ _______ _____ _____    ______ ____
ROOT
ATOM      1  N   UNL     1       0.460  -4.129   0.206  0.00  0.00    -0.200 N 
ATOM      2  C   UNL     1       0.598  -4.988  -0.827  0.00  0.00    +0.225 A 
ATOM      3  C   UNL     1       0.799  -6.254  -0.283  0.00  0.00    +0.077 A 
ATOM      4  C   UNL     1       0.774  -6.108   1.125  0.00  0.00    +0.073 A 
ATOM      5  N   UNL     1       0.579  -4.848   1.400  0.00  0.00    -0.168 NA
ATOM      6  C   UNL     1       0.950  -7.215   2.132  0.00  0.00    +0.068 C 
ENDROOT
BRANCH   1  11
ATOM      7  C   UNL     1      -0.433   1.458  -0.226  0.00  0.00    +0.044 C 
ATOM      8  C   UNL     1      -0.196  -0.025  -0.111  0.00  0.00    -0.050 A 
ATOM      9  C   UNL     1       0.796  -0.626  -0.865  0.00  0.00    +0.005 A 
ATOM     10  C   UNL     1       1.016  -1.985  -0.762  0.00  0.00    +0.028 A 
ATOM     11  C   UNL     1       0.239  -2.749   0.100  0.00  0.00    +0.072 A 
ATOM     12  C   UNL     1      -0.755  -2.144   0.855  0.00  0.00    -0.025 A 
ATOM     13  C   UNL     1      -0.967  -0.782   0.751  0.00  0.00    +0.008 A 
ATOM     14  C   UNL     1      -1.600  -2.969   1.791  0.00  0.00    +0.046 C 
ENDBRANCH   1  11
BRANCH   2  15
ATOM     15  O   UNL     1       0.550  -4.677  -2.144  0.00  0.00    -0.492 OA
ATOM     16  H   UNL     1       1.408  -4.447  -2.525  0.00  0.00    +0.294 HD
ENDBRANCH   2  15
BRANCH   3  17
ATOM     17  C   UNL     1       1.000  -7.500  -1.026  0.00  0.00    +0.127 C 
ATOM     18  N   UNL     1       0.999  -7.489  -2.336  0.00  0.00    -0.246 NA
BRANCH  18  19
ATOM     19  C   UNL     1       1.184  -8.638  -3.022  0.00  0.00    +0.119 A 
ATOM     20  C   UNL     1       1.224  -8.838  -4.405  0.00  0.00    +0.088 A 
ATOM     21  C   UNL     1       1.439 -10.190  -4.884  0.00  0.00    -0.018 A 
ATOM     22  C   UNL     1       1.583 -11.146  -3.936  0.00  0.00    -0.004 A 
ATOM     23  S   UNL     1       1.448 -10.286  -2.393  0.00  0.00    -0.073 S 
ATOM     24  C   UNL     1       1.814 -12.610  -4.154  0.00  0.00    +0.043 C 
ATOM     25  C   UNL     1       1.494 -12.938  -5.620  0.00  0.00    +0.005 C 
ATOM     26  C   UNL     1       2.185 -11.908  -6.517  0.00  0.00    +0.005 C 
ATOM     27  C   UNL     1       1.504 -10.547  -6.366  0.00  0.00    +0.037 C 
BRANCH  20  28
ATOM     28  C   UNL     1       1.057  -7.747  -5.317  0.00  0.00    +0.102 C 
ATOM     29  N   UNL     1       0.924  -6.881  -6.040  0.00  0.00    -0.191 NA
ENDBRANCH  20  28
ENDBRANCH  18  19
ENDBRANCH   3  17
TORSDOF 5
