REMARK  Name = ZINC67489260
REMARK  8 active torsions:
REMARK  status: ('A' for Active; 'I' for Inactive)
REMARK    1  A    between atoms: C_1  and  C_2
REMARK    2  A    between atoms: C_4  and  C_27
REMARK    3  A    between atoms: C_12  and  C_14
REMARK    4  A    between atoms: N_16  and  C_17
REMARK    5  A    between atoms: C_19  and  C_25
REMARK    6  A    between atoms: C_19  and  C_26
REMARK    7  A    between atoms: C_21  and  C_23
REMARK    8  A    between atoms: C_21  and  C_24
REMARK                            x       y       z     vdW  Elec       q    Type
REMARK                         _______ _______ _______ _____ _____    ______ ____
ROOT
ATOM      1  C   UNL     1      -0.072  -3.367   5.274  0.00  0.00    +0.300 C 
ATOM      2  O   UNL     1      -0.423  -4.526   5.362  0.00  0.00    -0.265 OA
ATOM      3  N   UNL     1       0.137  -2.641   6.390  0.00  0.00    -0.305 N 
ATOM      4  H   UNL     1       0.417  -1.715   6.321  0.00  0.00    +0.149 HD
ENDROOT
BRANCH   1  16
ATOM      5  C   UNL     1      -0.246   0.564   0.088  0.00  0.00    +0.044 C 
ATOM      6  C   UNL     1      -0.071  -0.928   0.204  0.00  0.00    -0.048 A 
ATOM      7  C   UNL     1       0.119  -1.694  -0.932  0.00  0.00    +0.007 A 
ATOM      8  C   UNL     1       0.279  -3.062  -0.829  0.00  0.00    -0.045 A 
ATOM      9  C   UNL     1       0.249  -3.677   0.412  0.00  0.00    -0.023 A 
ATOM     10  C   UNL     1       0.062  -2.910   1.551  0.00  0.00    +0.040 A 
ATOM     11  C   UNL     1      -0.095  -1.532   1.445  0.00  0.00    +0.027 A 
ATOM     12  N   UNL     1       0.037  -3.503   2.819  0.00  0.00    -0.263 N 
ATOM     13  C   UNL     1      -0.092  -4.963   2.917  0.00  0.00    +0.114 C 
ATOM     14  C   UNL     1       0.862  -5.588   1.891  0.00  0.00    +0.024 C 
ATOM     15  C   UNL     1       0.421  -5.171   0.488  0.00  0.00    +0.039 C 
ATOM     16  C   UNL     1       0.128  -2.747   3.931  0.00  0.00    +0.306 C 
ATOM     17  O   UNL     1       0.374  -1.562   3.840  0.00  0.00    -0.265 OA
ATOM     18  C   UNL     1       0.484  -3.889  -2.071  0.00  0.00    +0.044 C 
ENDBRANCH   1  16
BRANCH   3  19
ATOM     19  C   UNL     1      -0.060  -3.251   7.711  0.00  0.00    +0.071 C 
ATOM     20  C   UNL     1      -1.530  -3.113   8.114  0.00  0.00    +0.009 C 
ATOM     21  C   UNL     1      -1.749  -3.733   9.494  0.00  0.00    -0.072 C 
ATOM     22  N   UNL     1      -0.843  -3.184  10.492  0.00  0.00    +0.386 N 
ATOM     23  C   UNL     1       0.564  -3.074  10.139  0.00  0.00    -0.072 C 
ATOM     24  C   UNL     1       0.791  -2.509   8.741  0.00  0.00    +0.009 C 
ATOM     25  C   UNL     1       1.291  -4.413  10.286  0.00  0.00    -0.010 C 
ATOM     26  C   UNL     1       1.219  -2.094  11.142  0.00  0.00    -0.010 C 
ATOM     27  C   UNL     1      -1.658  -5.256   9.410  0.00  0.00    -0.010 C 
ATOM     28  C   UNL     1      -3.190  -3.383   9.930  0.00  0.00    -0.010 C 
ATOM     29  H   UNL     1      -1.181  -2.255  10.757  0.00  0.00    -0.084 HD
ATOM     30  H   UNL     1      -0.919  -3.749  11.341  0.00  0.00    -0.084 HD
ENDBRANCH   3  19
TORSDOF 2
