REMARK  Name = ZINC04156313
REMARK  6 active torsions:
REMARK  status: ('A' for Active; 'I' for Inactive)
REMARK    1  A    between atoms: C_1  and  C_2
REMARK    2  A    between atoms: C_2  and  C_3
REMARK    3  A    between atoms: C_2  and  C_4
REMARK    4  A    between atoms: C_2  and  C_5
REMARK    5  A    between atoms: C_8  and  C_11
REMARK    6  A    between atoms: N_13  and  N_14
REMARK                            x       y       z     vdW  Elec       q    Type
REMARK                         _______ _______ _______ _____ _____    ______ ____
ROOT
ATOM      1  C   UNL     1      -1.711   3.380  -3.395  0.00  0.00    +0.263 C 
ATOM      2  O   UNL     1      -2.877   3.711  -3.308  0.00  0.00    -0.268 OA
ATOM      3  N   UNL     1      -1.132   2.682  -2.398  0.00  0.00    -0.203 N 
ATOM      4  H   UNL     1      -0.201   2.418  -2.467  0.00  0.00    +0.178 HD
ENDROOT
BRANCH   3   5
ATOM      5  N   UNL     1      -1.875   2.337  -1.261  0.00  0.00    -0.189 NA
ATOM      6  C   UNL     1      -1.325   1.674  -0.314  0.00  0.00    +0.041 C 
ATOM      7  C   UNL     1      -1.710   1.088   1.058  0.00  0.00    +0.061 C 
ATOM      8  C   UNL     1      -0.416   1.729   1.405  0.00  0.00    +0.026 C 
ATOM      9  C   UNL     1      -0.013   1.086   0.008  0.00  0.00    +0.046 C 
ATOM     10  C   UNL     1       1.373   1.710  -0.002  0.00  0.00    +0.037 C 
ATOM     11  C   UNL     1       1.833   1.385   1.427  0.00  0.00    -0.030 C 
ATOM     12  C   UNL     1       0.755   1.362   2.212  0.00  0.00    -0.027 C 
ENDBRANCH   3   5
BRANCH   1  16
ATOM     13  C   UNL     1       0.542   4.425  -6.841  0.00  0.00    -0.042 A 
ATOM     14  C   UNL     1      -0.786   4.803  -6.745  0.00  0.00    +0.005 A 
ATOM     15  C   UNL     1      -1.523   4.467  -5.629  0.00  0.00    +0.013 A 
ATOM     16  C   UNL     1      -0.927   3.744  -4.594  0.00  0.00    +0.038 A 
ATOM     17  C   UNL     1       0.414   3.370  -4.695  0.00  0.00    +0.013 A 
ATOM     18  C   UNL     1       1.139   3.707  -5.820  0.00  0.00    +0.005 A 
BRANCH  13  20
ATOM     19  C   UNL     1       1.377   6.318  -8.207  0.00  0.00    +0.015 C 
ATOM     20  C   UNL     1       1.341   4.795  -8.064  0.00  0.00    -0.013 C 
ATOM     21  C   UNL     1       2.768   4.262  -7.921  0.00  0.00    +0.015 C 
ATOM     22  C   UNL     1       0.689   4.181  -9.305  0.00  0.00    +0.015 C 
ENDBRANCH  13  20
ENDBRANCH   1  16
TORSDOF 3
