REMARK  Name = ZINC66115445
REMARK  9 active torsions:
REMARK  status: ('A' for Active; 'I' for Inactive)
REMARK    1  A    between atoms: C_1  and  C_2
REMARK    2  A    between atoms: C_2  and  C_3
REMARK    3  A    between atoms: C_3  and  O_4
REMARK    4  A    between atoms: O_4  and  C_5
REMARK    5  A    between atoms: C_10  and  C_11
REMARK    6  A    between atoms: C_11  and  N_12
REMARK    7  A    between atoms: C_18  and  C_20
REMARK    8  A    between atoms: C_20  and  C_21
REMARK    9  A    between atoms: N_23  and  N_24
REMARK                            x       y       z     vdW  Elec       q    Type
REMARK                         _______ _______ _______ _____ _____    ______ ____
ROOT
ATOM      1  N   UNL     1      -0.794  -4.802  -1.521  0.00  0.00    +0.391 N 
ATOM      2  C   UNL     1      -1.093  -5.455  -2.805  0.00  0.00    -0.058 C 
ATOM      3  C   UNL     1      -2.605  -5.420  -3.035  0.00  0.00    +0.085 C 
ATOM      4  N   UNL     1      -3.299  -5.933  -1.856  0.00  0.00    -0.318 N 
ATOM      5  C   UNL     1      -2.709  -6.035  -0.660  0.00  0.00    +0.200 C 
ATOM      6  O   UNL     1      -3.360  -6.449   0.276  0.00  0.00    -0.278 OA
ATOM      7  C   UNL     1      -1.273  -5.658  -0.429  0.00  0.00    +0.028 C 
ATOM      8  H   UNL     1      -4.224  -6.211  -1.944  0.00  0.00    +0.149 HD
ATOM      9  H   UNL     1      -1.259  -3.908  -1.479  0.00  0.00    -0.080 HD
ENDROOT
BRANCH   1  10
ATOM     10  C   UNL     1       0.657  -4.608  -1.394  0.00  0.00    -0.038 C 
BRANCH  10  16
ATOM     11  C   UNL     1       0.975  -2.303  -2.327  0.00  0.00    +0.122 A 
ATOM     12  C   UNL     1       1.422  -1.444  -3.321  0.00  0.00    +0.046 A 
ATOM     13  C   UNL     1       2.020  -1.955  -4.456  0.00  0.00    +0.004 A 
ATOM     14  C   UNL     1       2.174  -3.321  -4.603  0.00  0.00    +0.000 A 
ATOM     15  C   UNL     1       1.730  -4.179  -3.614  0.00  0.00    +0.005 A 
ATOM     16  C   UNL     1       1.136  -3.673  -2.474  0.00  0.00    -0.022 A 
BRANCH  11  17
ATOM     17  O   UNL     1       0.387  -1.803  -1.209  0.00  0.00    -0.492 OA
BRANCH  17  18
ATOM     18  C   UNL     1       0.255  -0.382  -1.125  0.00  0.00    +0.229 C 
BRANCH  18  20
ATOM     19  C   UNL     1      -0.567   1.511   0.283  0.00  0.00    +0.007 C 
ATOM     20  C   UNL     1      -0.426  -0.010   0.193  0.00  0.00    +0.038 C 
ENDBRANCH  18  20
ENDBRANCH  17  18
ENDBRANCH  11  17
ENDBRANCH  10  16
ENDBRANCH   1  10
BRANCH   7  21
ATOM     21  C   UNL     1      -1.154  -4.904   0.897  0.00  0.00    +0.091 C 
BRANCH  21  22
ATOM     22  C   UNL     1      -2.082  -3.716   0.884  0.00  0.00    +0.225 C 
ATOM     23  O   UNL     1      -2.828  -3.539  -0.055  0.00  0.00    -0.275 OA
ATOM     24  N   UNL     1      -2.081  -2.849   1.916  0.00  0.00    -0.254 N 
ATOM     25  H   UNL     1      -1.484  -2.990   2.667  0.00  0.00    +0.169 HD
BRANCH  24  26
ATOM     26  N   UNL     1      -2.921  -1.772   1.904  0.00  0.00    -0.254 NA
ATOM     27  H   UNL     1      -2.809  -1.217   2.739  0.00  0.00    +0.140 HD
ATOM     28  H   UNL     1      -2.782  -1.213   1.076  0.00  0.00    +0.140 HD
ENDBRANCH  24  26
ENDBRANCH  21  22
ENDBRANCH   7  21
TORSDOF 8
