REMARK  Name = ZINC52094343
REMARK  3 active torsions:
REMARK  status: ('A' for Active; 'I' for Inactive)
REMARK    1  A    between atoms: C_2  and  C_14
REMARK    2  A    between atoms: C_14  and  C_16
REMARK    3  A    between atoms: C_14  and  N_20
REMARK                            x       y       z     vdW  Elec       q    Type
REMARK                         _______ _______ _______ _____ _____    ______ ____
ROOT
ATOM      1  C   UNL     1      -0.017   1.382   0.010  0.00  0.00    +0.034 A 
ATOM      2  C   UNL     1       1.172   2.086   0.002  0.00  0.00    -0.006 A 
ATOM      3  C   UNL     1       2.382   1.413  -0.013  0.00  0.00    +0.025 A 
ATOM      4  C   UNL     1       2.410   0.031  -0.021  0.00  0.00    +0.043 A 
ATOM      5  C   UNL     1       1.222  -0.683  -0.013  0.00  0.00    +0.068 A 
ATOM      6  C   UNL     1       0.002  -0.004   0.002  0.00  0.00    +0.067 A 
ATOM      7  N   UNL     1      -0.998  -0.974   0.006  0.00  0.00    -0.306 N 
ATOM      8  H   UNL     1      -1.953  -0.804   0.016  0.00  0.00    +0.170 HD
ATOM      9  C   UNL     1      -0.413  -2.186  -0.006  0.00  0.00    +0.325 A 
ATOM     10  O   UNL     1      -1.005  -3.250  -0.005  0.00  0.00    -0.247 OA
ATOM     11  N   UNL     1       0.925  -2.044  -0.018  0.00  0.00    -0.306 N 
ATOM     12  H   UNL     1       1.573  -2.767  -0.028  0.00  0.00    +0.170 HD
ATOM     13 BR   UNL     1       4.002   2.388  -0.024  0.00  0.00    -0.050 Br
ENDROOT
BRANCH   2  14
ATOM     14  C   UNL     1       1.151   3.593   0.010  0.00  0.00    +0.188 C 
BRANCH  14  15
ATOM     15  C   UNL     1       1.257   4.112  -1.426  0.00  0.00    +0.409 C 
ATOM     16  F   UNL     1       0.176   3.635  -2.175  0.00  0.00    -0.169 F 
ATOM     17  F   UNL     1       1.238   5.511  -1.418  0.00  0.00    -0.169 F 
ATOM     18  F   UNL     1       2.453   3.664  -1.996  0.00  0.00    -0.169 F 
ENDBRANCH  14  15
BRANCH  14  19
ATOM     19  N   UNL     1      -0.105   4.062   0.609  0.00  0.00    -0.317 NA
ATOM     20  H   UNL     1      -0.115   5.069   0.685  0.00  0.00    +0.119 HD
ATOM     21  H   UNL     1      -0.901   3.731   0.086  0.00  0.00    +0.119 HD
ENDBRANCH  14  19
ENDBRANCH   2  14
TORSDOF 3
