REMARK  Name = ZINC20548928
REMARK  11 active torsions:
REMARK  status: ('A' for Active; 'I' for Inactive)
REMARK    1  A    between atoms: C_1  and  C_2
REMARK    2  A    between atoms: C_2  and  O_3
REMARK    3  A    between atoms: O_3  and  C_4
REMARK    4  A    between atoms: C_4  and  C_6
REMARK    5  A    between atoms: C_7  and  C_33
REMARK    6  A    between atoms: C_14  and  C_18
REMARK    7  A    between atoms: C_18  and  N_19
REMARK    8  A    between atoms: C_24  and  O_31
REMARK    9  A    between atoms: C_25  and  O_29
REMARK   10  A    between atoms: O_29  and  C_30
REMARK   11  A    between atoms: O_31  and  C_32
REMARK                            x       y       z     vdW  Elec       q    Type
REMARK                         _______ _______ _______ _____ _____    ______ ____
ROOT
ATOM      1  C   UNL     1      -4.393   7.119  -5.472  0.00  0.00    +0.094 C 
ATOM      2  C   UNL     1      -5.566   6.874  -4.841  0.00  0.00    -0.038 C 
ATOM      3  C   UNL     1      -5.527   5.956  -3.663  0.00  0.00    +0.137 C 
ATOM      4  C   UNL     1      -4.124   6.136  -2.984  0.00  0.00    +0.185 C 
ATOM      5  S   UNL     1      -3.152   6.243  -4.512  0.00  0.00    -0.090 S 
ATOM      6  N   UNL     1      -3.949   5.072  -2.061  0.00  0.00    -0.256 NA
ATOM      7  C   UNL     1      -4.977   4.877  -1.259  0.00  0.00    +0.111 C 
ATOM      8  N   UNL     1      -6.092   5.688  -1.344  0.00  0.00    -0.272 N 
ATOM      9  C   UNL     1      -6.479   6.249  -2.527  0.00  0.00    +0.228 C 
ATOM     10  O   UNL     1      -7.487   6.911  -2.655  0.00  0.00    -0.275 OA
ATOM     11  C   UNL     1      -6.856   7.500  -5.307  0.00  0.00    +0.041 C 
ATOM     12  H   UNL     1      -6.692   5.895  -0.445  0.00  0.00    +0.156 HD
ENDROOT
BRANCH   1  13
ATOM     13  C   UNL     1      -4.180   7.929  -6.686  0.00  0.00    +0.346 C 
ATOM     14  O   UNL     1      -5.124   8.465  -7.232  0.00  0.00    -0.244 OA
BRANCH  13  15
ATOM     15  O   UNL     1      -2.939   8.075  -7.190  0.00  0.00    -0.461 OA
BRANCH  15  17
ATOM     16  C   UNL     1      -1.334   8.935  -8.807  0.00  0.00    +0.048 C 
ATOM     17  C   UNL     1      -2.805   8.886  -8.387  0.00  0.00    +0.229 C 
ENDBRANCH  15  17
ENDBRANCH  13  15
ENDBRANCH   1  13
BRANCH   7  18
ATOM     18  C   UNL     1      -4.937   3.760  -0.248  0.00  0.00    +0.156 C 
BRANCH  18  19
ATOM     19  N   UNL     1      -3.659   3.045  -0.358  0.00  0.00    -0.291 NA
ATOM     20  C   UNL     1      -3.675   1.809   0.441  0.00  0.00    +0.090 C 
ATOM     21  C   UNL     1      -2.496   0.937   0.009  0.00  0.00    +0.051 C 
ATOM     22  C   UNL     1      -1.226   1.749   0.017  0.00  0.00    -0.038 A 
ATOM     23  C   UNL     1      -0.013   1.076   0.008  0.00  0.00    +0.053 A 
ATOM     24  C   UNL     1       1.178   1.780   0.000  0.00  0.00    +0.162 A 
ATOM     25  C   UNL     1       1.156   3.171   0.008  0.00  0.00    +0.162 A 
ATOM     26  C   UNL     1      -0.056   3.838   0.025  0.00  0.00    +0.054 A 
ATOM     27  C   UNL     1      -1.248   3.127   0.035  0.00  0.00    -0.026 A 
ATOM     28  C   UNL     1      -2.541   3.900   0.064  0.00  0.00    +0.120 C 
BRANCH  25  29
ATOM     29  O   UNL     1       2.321   3.873  -0.002  0.00  0.00    -0.491 OA
ATOM     30  C   UNL     1       2.220   5.299   0.006  0.00  0.00    +0.277 C 
ENDBRANCH  25  29
BRANCH  24  31
ATOM     31  O   UNL     1       2.365   1.115  -0.014  0.00  0.00    -0.491 OA
ATOM     32  C   UNL     1       2.309  -0.313  -0.020  0.00  0.00    +0.277 C 
ENDBRANCH  24  31
ENDBRANCH  18  19
ENDBRANCH   7  18
TORSDOF 7
