REMARK  Name = ZINC42265952
REMARK  6 active torsions:
REMARK  status: ('A' for Active; 'I' for Inactive)
REMARK    1  A    between atoms: C_1  and  C_2
REMARK    2  A    between atoms: C_2  and  C_4
REMARK    3  A    between atoms: C_2  and  N_6
REMARK    4  A    between atoms: N_6  and  C_7
REMARK    5  A    between atoms: C_12  and  O_13
REMARK    6  A    between atoms: O_13  and  C_14
REMARK                            x       y       z     vdW  Elec       q    Type
REMARK                         _______ _______ _______ _____ _____    ______ ____
ROOT
ATOM      1  C   UNL     1       2.106  -0.604   1.173  0.00  0.00    +0.071 A 
ATOM      2  C   UNL     1       2.819  -0.253   0.036  0.00  0.00    +0.042 A 
ATOM      3  C   UNL     1       4.197  -0.368   0.023  0.00  0.00    +0.020 A 
ATOM      4  C   UNL     1       4.867  -0.831   1.142  0.00  0.00    +0.019 A 
ATOM      5  C   UNL     1       4.161  -1.183   2.278  0.00  0.00    +0.048 A 
ATOM      6  C   UNL     1       2.781  -1.065   2.301  0.00  0.00    +0.141 A 
ATOM      7 BR   UNL     1       5.169   0.110  -1.527  0.00  0.00    -0.050 Br
ENDROOT
BRANCH   1   8
ATOM      8  N   UNL     1       0.711  -0.489   1.189  0.00  0.00    -0.326 N 
ATOM      9  H   UNL     1       0.213  -0.731   1.986  0.00  0.00    +0.147 HD
BRANCH   8  11
ATOM     10  C   UNL     1      -0.019   1.526   0.010  0.00  0.00    +0.044 C 
ATOM     11  C   UNL     1       0.002  -0.004   0.002  0.00  0.00    +0.171 C 
BRANCH  11  12
ATOM     12  C   UNL     1      -1.379  -0.514   0.013  0.00  0.00    +0.085 C 
ATOM     13  N   UNL     1      -2.445  -0.907   0.021  0.00  0.00    -0.195 NA
ENDBRANCH  11  12
ENDBRANCH   8  11
ENDBRANCH   1   8
BRANCH   6  14
ATOM     14  O   UNL     1       2.087  -1.405   3.420  0.00  0.00    -0.493 OA
ATOM     15  C   UNL     1       2.845  -1.870   4.538  0.00  0.00    +0.277 C 
ENDBRANCH   6  14
TORSDOF 4
