REMARK  Name = ZINC44674953
REMARK  3 active torsions:
REMARK  status: ('A' for Active; 'I' for Inactive)
REMARK    1  A    between atoms: C_3  and  O_9
REMARK    2  A    between atoms: O_9  and  C_10
REMARK    3  A    between atoms: C_10  and  C_12
REMARK                            x       y       z     vdW  Elec       q    Type
REMARK                         _______ _______ _______ _____ _____    ______ ____
ROOT
ATOM      1  C   UNL     1       3.484   3.451  -0.117  0.00  0.00    +0.346 C 
ATOM      2  O   UNL     1       2.405   4.011  -0.102  0.00  0.00    -0.244 OA
ENDROOT
BRANCH   1   3
ATOM      3  C   UNL     1       4.721   4.241  -0.241  0.00  0.00    +0.076 A 
ATOM      4  C   UNL     1       5.981   3.595  -0.265  0.00  0.00    +0.022 A 
ATOM      5  C   UNL     1       7.107   4.348  -0.380  0.00  0.00    +0.071 A 
ATOM      6  C   UNL     1       6.997   5.749  -0.472  0.00  0.00    +0.249 A 
ATOM      7  O   UNL     1       8.004   6.429  -0.575  0.00  0.00    -0.268 OA
ATOM      8  N   UNL     1       5.790   6.342  -0.447  0.00  0.00    -0.328 N 
ATOM      9  H   UNL     1       5.732   7.309  -0.512  0.00  0.00    +0.168 HD
ATOM     10  C   UNL     1       4.662   5.617  -0.340  0.00  0.00    +0.101 A 
ENDBRANCH   1   3
BRANCH   1  11
ATOM     11  O   UNL     1       3.548   2.109  -0.021  0.00  0.00    -0.419 OA
BRANCH  11  14
ATOM     12  C   UNL     1       0.643   0.271   1.174  0.00  0.00    +0.019 A 
ATOM     13  C   UNL     1       1.831   0.979   1.176  0.00  0.00    +0.050 A 
ATOM     14  C   UNL     1       2.381   1.412  -0.021  0.00  0.00    +0.167 A 
ATOM     15  C   UNL     1       1.736   1.134  -1.220  0.00  0.00    +0.167 A 
ATOM     16  C   UNL     1       0.548   0.426  -1.217  0.00  0.00    +0.057 A 
ATOM     17  C   UNL     1       0.003  -0.005  -0.020  0.00  0.00    +0.021 A 
ATOM     18 BR   UNL     1      -1.621  -0.974  -0.018  0.00  0.00    -0.050 Br
ATOM     19  F   UNL     1       2.269   1.555  -2.388  0.00  0.00    -0.202 F 
ENDBRANCH  11  14
ENDBRANCH   1  11
TORSDOF 3
