REMARK  Name = ZINC07684287
REMARK  13 active torsions:
REMARK  status: ('A' for Active; 'I' for Inactive)
REMARK    1  A    between atoms: C_1  and  C_2
REMARK    2  A    between atoms: C_2  and  N_52
REMARK    3  A    between atoms: C_3  and  C_4
REMARK    4  A    between atoms: C_3  and  N_52
REMARK    5  A    between atoms: N_6  and  C_7
REMARK    6  A    between atoms: C_7  and  C_9
REMARK    7  A    between atoms: C_7  and  C_10
REMARK    8  A    between atoms: C_17  and  C_18
REMARK    9  A    between atoms: C_17  and  N_52
REMARK   10  A    between atoms: N_20  and  C_21
REMARK   11  A    between atoms: C_21  and  C_22
REMARK   12  A    between atoms: C_21  and  C_23
REMARK   13  A    between atoms: C_21  and  C_24
REMARK                            x       y       z     vdW  Elec       q    Type
REMARK                         _______ _______ _______ _____ _____    ______ ____
ROOT
ATOM      1  C   UNL     1       6.019   2.466   1.637  0.00  0.00    +0.019 C 
ENDROOT
BRANCH   1   2
ATOM      2  C   UNL     1       4.973   2.228   2.695  0.00  0.00    +0.197 C 
ATOM      3  O   UNL     1       5.152   2.628   3.826  0.00  0.00    -0.278 OA
ATOM      4  N   UNL     1       3.838   1.570   2.385  0.00  0.00    -0.310 N 
ATOM      5  H   UNL     1       3.694   1.250   1.481  0.00  0.00    +0.149 HD
BRANCH   4   6
ATOM      6  C   UNL     1       2.821   1.339   3.414  0.00  0.00    +0.101 C 
ATOM      7  C   UNL     1       1.861   2.530   3.460  0.00  0.00    +0.033 C 
BRANCH   6   8
ATOM      8  C   UNL     1       2.051   0.086   3.087  0.00  0.00    -0.009 A 
ATOM      9  C   UNL     1       1.922  -0.323   1.773  0.00  0.00    +0.007 A 
ATOM     10  C   UNL     1       1.215  -1.472   1.472  0.00  0.00    +0.000 A 
ATOM     11  C   UNL     1       0.632  -2.211   2.486  0.00  0.00    +0.001 A 
ATOM     12  C   UNL     1       0.765  -1.806   3.800  0.00  0.00    +0.020 A 
ATOM     13  C   UNL     1       1.472  -0.656   4.102  0.00  0.00    +0.046 A 
ATOM     14 CL   UNL     1       1.635  -0.144   5.753  0.00  0.00    -0.083 Cl
ENDBRANCH   6   8
ENDBRANCH   4   6
ENDBRANCH   1   2
BRANCH   1  15
ATOM     15  N   UNL     1       7.188   3.116   2.265  0.00  0.00    +0.391 N 
ATOM     16  H   UNL     1       6.858   3.826   2.929  0.00  0.00    -0.080 HD
BRANCH  15  18
ATOM     17  C   UNL     1       7.343   5.087   0.827  0.00  0.00    -0.017 C 
ATOM     18  C   UNL     1       8.015   3.774   1.231  0.00  0.00    -0.081 C 
ENDBRANCH  15  18
BRANCH  15  19
ATOM     19  C   UNL     1       7.992   2.114   2.994  0.00  0.00    +0.019 C 
BRANCH  19  20
ATOM     20  C   UNL     1       9.045   2.830   3.801  0.00  0.00    +0.197 C 
ATOM     21  O   UNL     1       9.124   4.039   3.757  0.00  0.00    -0.278 OA
ATOM     22  N   UNL     1       9.898   2.126   4.572  0.00  0.00    -0.312 N 
ATOM     23  H   UNL     1       9.834   1.158   4.606  0.00  0.00    +0.149 HD
BRANCH  22  24
ATOM     24  C   UNL     1      10.921   2.821   5.356  0.00  0.00    +0.026 C 
ATOM     25  C   UNL     1      10.246   3.783   6.336  0.00  0.00    +0.031 C 
ATOM     26  C   UNL     1      11.749   1.798   6.135  0.00  0.00    +0.031 C 
ATOM     27  C   UNL     1      11.836   3.609   4.417  0.00  0.00    +0.031 C 
ENDBRANCH  22  24
ENDBRANCH  19  20
ENDBRANCH  15  19
ENDBRANCH   1  15
TORSDOF 8
