REMARK  Name = ZINC66966849
REMARK  9 active torsions:
REMARK  status: ('A' for Active; 'I' for Inactive)
REMARK    1  A    between atoms: C_1  and  C_2
REMARK    2  A    between atoms: C_2  and  O_3
REMARK    3  A    between atoms: O_3  and  C_4
REMARK    4  A    between atoms: C_9  and  N_10
REMARK    5  A    between atoms: N_10  and  C_11
REMARK    6  A    between atoms: C_11  and  C_13
REMARK    7  A    between atoms: C_11  and  C_14
REMARK    8  A    between atoms: C_17  and  C_19
REMARK    9  A    between atoms: C_22  and  N_25
REMARK                            x       y       z     vdW  Elec       q    Type
REMARK                         _______ _______ _______ _____ _____    ______ ____
ROOT
ATOM      1  C   UNL     1      -5.246  -2.148   0.041  0.00  0.00    +0.155 C 
ATOM      2  C   UNL     1      -5.650  -2.473   1.480  0.00  0.00    +0.038 C 
ENDROOT
BRANCH   1   3
ATOM      3  C   UNL     1      -6.223  -1.162  -0.545  0.00  0.00    +0.237 A 
ATOM      4  N   UNL     1      -6.284   0.113  -0.279  0.00  0.00    -0.110 NA
ATOM      5  N   UNL     1      -7.237   0.649  -0.957  0.00  0.00    -0.107 NA
ATOM      6  C   UNL     1      -7.822  -0.273  -1.685  0.00  0.00    +0.248 A 
ATOM      7  O   UNL     1      -7.187  -1.437  -1.441  0.00  0.00    -0.418 OA
BRANCH   6   8
ATOM      8  C   UNL     1      -8.962  -0.072  -2.605  0.00  0.00    +0.039 A 
ATOM      9  C   UNL     1      -9.489  -1.152  -3.314  0.00  0.00    +0.015 A 
ATOM     10  C   UNL     1     -10.553  -0.958  -4.171  0.00  0.00    +0.033 A 
ATOM     11  C   UNL     1     -11.097   0.305  -4.328  0.00  0.00    +0.126 A 
ATOM     12  C   UNL     1     -10.579   1.380  -3.627  0.00  0.00    +0.033 A 
ATOM     13  C   UNL     1      -9.519   1.198  -2.763  0.00  0.00    +0.015 A 
BRANCH  11  14
ATOM     14  N   UNL     1     -12.237   0.506  -5.250  0.00  0.00    +0.056 N 
ATOM     15  O   UNL     1     -12.692  -0.431  -5.863  0.00  0.00    -0.126 OA
ATOM     16  O   UNL     1     -12.714   1.609  -5.389  0.00  0.00    -0.126 OA
ENDBRANCH  11  14
ENDBRANCH   6   8
ENDBRANCH   1   3
BRANCH   1  17
ATOM     17  N   UNL     1      -3.901  -1.566   0.031  0.00  0.00    -0.330 N 
ATOM     18  H   UNL     1      -3.789  -0.603   0.035  0.00  0.00    +0.147 HD
BRANCH  17  24
ATOM     19  C   UNL     1      -1.498  -1.850   0.006  0.00  0.00    +0.141 A 
ATOM     20  C   UNL     1      -0.390  -2.679  -0.003  0.00  0.00    +0.050 A 
ATOM     21  C   UNL     1      -0.553  -4.053  -0.009  0.00  0.00    +0.042 A 
ATOM     22  C   UNL     1      -1.823  -4.602  -0.006  0.00  0.00    +0.125 A 
ATOM     23  C   UNL     1      -2.936  -3.779   0.004  0.00  0.00    +0.065 A 
ATOM     24  C   UNL     1      -2.778  -2.401   0.016  0.00  0.00    +0.073 A 
ATOM     25  F   UNL     1      -1.978  -5.944  -0.013  0.00  0.00    -0.205 F 
BRANCH  19  26
ATOM     26  O   UNL     1      -1.339  -0.499   0.012  0.00  0.00    -0.490 OA
BRANCH  26  28
ATOM     27  C   UNL     1      -0.019   1.526   0.010  0.00  0.00    +0.048 C 
ATOM     28  C   UNL     1       0.002  -0.004   0.002  0.00  0.00    +0.226 C 
ENDBRANCH  26  28
ENDBRANCH  19  26
ENDBRANCH  17  24
ENDBRANCH   1  17
TORSDOF 7
