REMARK  Name = ZINC27263271
REMARK  10 active torsions:
REMARK  status: ('A' for Active; 'I' for Inactive)
REMARK    1  A    between atoms: C_1  and  C_2
REMARK    2  A    between atoms: C_5  and  C_7
REMARK    3  A    between atoms: N_9  and  C_10
REMARK    4  A    between atoms: C_10  and  C_11
REMARK    5  A    between atoms: N_13  and  N_14
REMARK    6  A    between atoms: N_14  and  C_15
REMARK    7  A    between atoms: C_15  and  N_17
REMARK    8  A    between atoms: N_17  and  C_18
REMARK    9  A    between atoms: C_23  and  C_28
REMARK   10  A    between atoms: C_25  and  C_27
REMARK                            x       y       z     vdW  Elec       q    Type
REMARK                         _______ _______ _______ _____ _____    ______ ____
ROOT
ATOM      1  C   UNL     1       5.167   3.037  -0.004  0.00  0.00    +0.246 C 
ATOM      2  O   UNL     1       6.028   2.443  -0.618  0.00  0.00    -0.273 OA
ATOM      3  N   UNL     1       3.903   2.570   0.005  0.00  0.00    -0.234 N 
ATOM      4  H   UNL     1       3.122   3.109   0.562  0.00  0.00    +0.173 HD
ENDROOT
BRANCH   3   5
ATOM      5  N   UNL     1       3.583   1.399  -0.694  0.00  0.00    -0.246 N 
ATOM      6  H   UNL     1       4.364   0.861  -1.251  0.00  0.00    +0.172 HD
BRANCH   5   7
ATOM      7  C   UNL     1       2.318   0.933  -0.685  0.00  0.00    +0.147 C 
ATOM      8  S   UNL     1       1.927  -0.498  -1.539  0.00  0.00    -0.017 S 
BRANCH   7   9
ATOM      9  N   UNL     1       1.362   1.593  -0.002  0.00  0.00    -0.322 N 
ATOM     10  H   UNL     1       1.613   2.513   0.547  0.00  0.00    +0.148 HD
BRANCH   9  11
ATOM     11  C   UNL     1      -0.013   1.086   0.008  0.00  0.00    +0.075 C 
ATOM     12  C   UNL     1      -0.753   1.593  -1.232  0.00  0.00    +0.022 C 
ATOM     13  C   UNL     1      -2.188   1.063  -1.221  0.00  0.00    +0.002 C 
ATOM     14  C   UNL     1      -2.904   1.556   0.038  0.00  0.00    +0.003 C 
ATOM     15  C   UNL     1      -2.164   1.050   1.278  0.00  0.00    -0.009 C 
ATOM     16  C   UNL     1      -0.729   1.579   1.267  0.00  0.00    +0.009 C 
ATOM     17  C   UNL     1       0.011   1.072   2.506  0.00  0.00    +0.009 C 
ATOM     18  C   UNL     1      -2.880   1.543   2.537  0.00  0.00    +0.008 C 
ENDBRANCH   9  11
ENDBRANCH   7   9
ENDBRANCH   5   7
ENDBRANCH   3   5
BRANCH   1  19
ATOM     19  C   UNL     1       5.511   4.297   0.748  0.00  0.00    +0.202 C 
BRANCH  19  22
ATOM     20  C   UNL     1       7.474   5.678   1.170  0.00  0.00    +0.251 C 
ATOM     21  O   UNL     1       6.774   6.415   1.839  0.00  0.00    -0.270 OA
ATOM     22  N   UNL     1       6.937   4.590   0.582  0.00  0.00    -0.302 N 
ATOM     23  H   UNL     1       7.569   3.923  -0.022  0.00  0.00    +0.150 HD
BRANCH  20  28
ATOM     24  C   UNL     1      12.924   5.921  -0.048  0.00  0.00    +0.051 C 
ATOM     25  C   UNL     1      11.501   6.083   0.420  0.00  0.00    -0.013 A 
ATOM     26  C   UNL     1      10.977   7.061   1.205  0.00  0.00    +0.011 A 
ATOM     27  C   UNL     1       9.640   7.027   1.514  0.00  0.00    +0.021 A 
ATOM     28  C   UNL     1       8.900   5.971   1.005  0.00  0.00    +0.074 A 
ATOM     29  S   UNL     1      10.136   5.067   0.088  0.00  0.00    -0.089 S 
ENDBRANCH  20  28
ENDBRANCH  19  22
ENDBRANCH   1  19
TORSDOF 7
