REMARK  Name = ZINC04090395
REMARK  2 active torsions:
REMARK  status: ('A' for Active; 'I' for Inactive)
REMARK    1  A    between atoms: C_1  and  C_2
REMARK    2  A    between atoms: C_23  and  O_33
REMARK                            x       y       z     vdW  Elec       q    Type
REMARK                         _______ _______ _______ _____ _____    ______ ____
ROOT
ATOM      1  C   UNL     1       2.725   5.997   0.638  0.00  0.00    +0.038 C 
ATOM      2  C   UNL     1       3.654   4.850   0.235  0.00  0.00    +0.163 C 
ATOM      3  C   UNL     1       4.647   4.573   1.339  0.00  0.00    +0.241 C 
ATOM      4  O   UNL     1       5.170   5.509   1.905  0.00  0.00    -0.273 OA
ATOM      5  N   UNL     1       4.968   3.331   1.713  0.00  0.00    -0.262 N 
ATOM      6  C   UNL     1       4.499   2.090   1.112  0.00  0.00    +0.141 C 
ATOM      7  C   UNL     1       5.706   1.281   0.615  0.00  0.00    +0.063 C 
ATOM      8  C   UNL     1       6.779   1.188   1.663  0.00  0.00    -0.033 A 
ATOM      9  C   UNL     1       7.722   0.177   1.572  0.00  0.00    +0.053 A 
ATOM     10  C   UNL     1       8.737   0.085   2.510  0.00  0.00    +0.162 A 
ATOM     11  C   UNL     1       8.813   0.998   3.556  0.00  0.00    +0.163 A 
ATOM     12  C   UNL     1       7.875   2.007   3.661  0.00  0.00    +0.059 A 
ATOM     13  C   UNL     1       6.858   2.102   2.711  0.00  0.00    +0.003 A 
ATOM     14  C   UNL     1       5.849   3.186   2.817  0.00  0.00    +0.037 C 
ATOM     15  C   UNL     1       5.774   3.977   3.887  0.00  0.00    +0.034 C 
ATOM     16  O   UNL     1       9.817   0.894   4.473  0.00  0.00    -0.488 OA
ATOM     17  C   UNL     1      11.132   1.185   3.995  0.00  0.00    +0.232 C 
ATOM     18  C   UNL     1      11.750  -0.042   3.342  0.00  0.00    +0.082 C 
ATOM     19  C   UNL     1      11.000  -0.469   2.090  0.00  0.00    +0.232 C 
ATOM     20  O   UNL     1       9.676  -0.900   2.411  0.00  0.00    -0.488 OA
ATOM     21  C   UNL     1       3.532   2.293  -0.044  0.00  0.00    +0.183 C 
ATOM     22  N   UNL     1       2.884   3.611   0.066  0.00  0.00    -0.253 N 
ATOM     23  C   UNL     1       1.553   3.457   0.019  0.00  0.00    +0.250 C 
ATOM     24  O   UNL     1       0.744   4.364  -0.006  0.00  0.00    -0.270 OA
ATOM     25  C   UNL     1       1.221   2.030   0.001  0.00  0.00    +0.045 A 
ATOM     26  C   UNL     1       2.422   1.293  -0.023  0.00  0.00    +0.016 A 
ATOM     27  C   UNL     1       2.423  -0.084  -0.028  0.00  0.00    +0.009 A 
ATOM     28  C   UNL     1       1.183  -0.718  -0.014  0.00  0.00    +0.000 A 
ATOM     29  C   UNL     1       0.002  -0.004   0.002  0.00  0.00    +0.001 A 
ATOM     30  C   UNL     1      -0.017   1.383   0.010  0.00  0.00    +0.013 A 
ENDROOT
BRANCH  21  31
ATOM     31  O   UNL     1       4.238   2.205  -1.283  0.00  0.00    -0.366 OA
ATOM     32  H   UNL     1       3.687   2.365  -2.062  0.00  0.00    +0.212 HD
ENDBRANCH  21  31
TORSDOF 1
