REMARK  Name = ZINC48604807
REMARK  3 active torsions:
REMARK  status: ('A' for Active; 'I' for Inactive)
REMARK    1  A    between atoms: C_3  and  O_9
REMARK    2  A    between atoms: C_6  and  N_7
REMARK    3  A    between atoms: O_9  and  C_10
REMARK                            x       y       z     vdW  Elec       q    Type
REMARK                         _______ _______ _______ _____ _____    ______ ____
ROOT
ATOM      1  C   UNL     1      -0.008   1.367  -0.221  0.00  0.00    +0.026 A 
ATOM      2  C   UNL     1       1.179   2.075  -0.224  0.00  0.00    +0.049 A 
ATOM      3  C   UNL     1       2.381   1.415  -0.018  0.00  0.00    +0.139 A 
ATOM      4  C   UNL     1       2.393   0.043   0.193  0.00  0.00    +0.084 A 
ATOM      5  C   UNL     1       1.206  -0.666   0.197  0.00  0.00    +0.046 A 
ATOM      6  C   UNL     1       0.003  -0.005  -0.010  0.00  0.00    +0.026 A 
ATOM      7 CL   UNL     1       3.898  -0.783   0.451  0.00  0.00    -0.080 Cl
ENDROOT
BRANCH   6   8
ATOM      8  N   UNL     1      -1.199  -0.722  -0.007  0.00  0.00    -0.358 N 
ATOM      9  H   UNL     1      -2.040  -0.260  -0.152  0.00  0.00    +0.142 HD
ATOM     10  H   UNL     1      -1.192  -1.681   0.140  0.00  0.00    +0.142 HD
ENDBRANCH   6   8
BRANCH   3  11
ATOM     11  O   UNL     1       3.549   2.112  -0.021  0.00  0.00    -0.487 OA
BRANCH  11  12
ATOM     12  C   UNL     1       3.455   3.534  -0.124  0.00  0.00    +0.178 C 
ATOM     13  C   UNL     1       3.357   3.937  -1.599  0.00  0.00    +0.072 C 
ATOM     14  C   UNL     1       3.336   5.464  -1.703  0.00  0.00    +0.163 C 
ATOM     15  O   UNL     1       4.511   5.998  -1.089  0.00  0.00    -0.380 OA
ATOM     16  C   UNL     1       4.631   5.694   0.302  0.00  0.00    +0.163 C 
ATOM     17  C   UNL     1       4.704   4.176   0.487  0.00  0.00    +0.072 C 
ENDBRANCH  11  12
ENDBRANCH   3  11
TORSDOF 3
