REMARK  Name = ZINC65531809
REMARK  9 active torsions:
REMARK  status: ('A' for Active; 'I' for Inactive)
REMARK    1  A    between atoms: C_1  and  C_2
REMARK    2  A    between atoms: C_7  and  N_8
REMARK    3  A    between atoms: C_9  and  C_19
REMARK    4  A    between atoms: C_12  and  C_15
REMARK    5  A    between atoms: C_15  and  C_16
REMARK    6  A    between atoms: C_16  and  C_17
REMARK    7  A    between atoms: C_16  and  C_18
REMARK    8  A    between atoms: C_19  and  C_20
REMARK    9  A    between atoms: C_22  and  C_29
REMARK                            x       y       z     vdW  Elec       q    Type
REMARK                         _______ _______ _______ _____ _____    ______ ____
ROOT
ATOM      1  N   UNL     1      -0.339  -0.059   2.364  0.00  0.00    -0.248 N 
ATOM      2  C   UNL     1      -1.182  -0.499   3.487  0.00  0.00    +0.163 C 
ATOM      3  N   UNL     1      -0.788   0.335   4.649  0.00  0.00    -0.281 NA
ATOM      4  C   UNL     1       0.576   0.796   4.269  0.00  0.00    +0.141 C 
ATOM      5  N   UNL     1       0.461   0.969   2.801  0.00  0.00    -0.221 NA
ATOM      6  H   UNL     1      -1.415   1.117   4.762  0.00  0.00    +0.125 HD
ATOM      7  H   UNL     1       1.367   0.935   2.360  0.00  0.00    +0.146 HD
ENDROOT
BRANCH   1  14
ATOM      8  C   UNL     1      -0.757   1.705   0.172  0.00  0.00    +0.046 C 
ATOM      9  C   UNL     1      -0.546   0.226  -0.024  0.00  0.00    -0.027 A 
ATOM     10  C   UNL     1      -0.547  -0.310  -1.298  0.00  0.00    +0.025 A 
ATOM     11  C   UNL     1      -0.353  -1.668  -1.478  0.00  0.00    +0.041 A 
ATOM     12  C   UNL     1      -0.159  -2.493  -0.385  0.00  0.00    +0.022 A 
ATOM     13  C   UNL     1      -0.158  -1.963   0.890  0.00  0.00    +0.026 A 
ATOM     14  C   UNL     1      -0.346  -0.599   1.075  0.00  0.00    +0.049 A 
ATOM     15 CL   UNL     1      -0.354  -2.337  -3.080  0.00  0.00    -0.084 Cl
ENDBRANCH   1  14
BRANCH   4  16
ATOM     16  C   UNL     1       0.912   2.121   4.955  0.00  0.00    +0.039 C 
BRANCH  16  17
ATOM     17  C   UNL     1       0.872   1.935   6.473  0.00  0.00    -0.014 C 
ATOM     18  C   UNL     1       1.983   0.972   6.898  0.00  0.00    +0.007 C 
ATOM     19  C   UNL     1       1.079   3.287   7.159  0.00  0.00    +0.007 C 
ENDBRANCH  16  17
ENDBRANCH   4  16
BRANCH   2  20
ATOM     20  C   UNL     1      -2.659  -0.277   3.155  0.00  0.00    +0.082 C 
BRANCH  20  21
ATOM     21  C   UNL     1      -3.513  -0.837   4.263  0.00  0.00    +0.039 A 
ATOM     22  H   UNL     1      -5.097  -3.501   5.155  0.00  0.00    +0.170 HD
ATOM     23  C   UNL     1      -3.984  -2.100   4.191  0.00  0.00    +0.026 A 
ATOM     24  N   UNL     1      -4.758  -2.593   5.206  0.00  0.00    -0.311 N 
ATOM     25  C   UNL     1      -5.054  -1.831   6.275  0.00  0.00    +0.327 A 
ATOM     26  O   UNL     1      -5.744  -2.289   7.165  0.00  0.00    -0.247 OA
ATOM     27  N   UNL     1      -4.597  -0.569   6.372  0.00  0.00    -0.275 N 
ATOM     28  C   UNL     1      -3.827  -0.048   5.395  0.00  0.00    +0.257 A 
ATOM     29  O   UNL     1      -3.409   1.092   5.485  0.00  0.00    -0.267 OA
ATOM     30  C   UNL     1      -3.660  -2.963   2.999  0.00  0.00    +0.064 C 
ATOM     31  H   UNL     1      -4.820  -0.033   7.149  0.00  0.00    +0.173 HD
ENDBRANCH  20  21
ENDBRANCH   2  20
TORSDOF 5
