REMARK  Name = ZINC59830075
REMARK  8 active torsions:
REMARK  status: ('A' for Active; 'I' for Inactive)
REMARK    1  A    between atoms: C_2  and  C_3
REMARK    2  A    between atoms: C_3  and  N_4
REMARK    3  A    between atoms: C_6  and  C_9
REMARK    4  A    between atoms: N_10  and  N_11
REMARK    5  A    between atoms: C_15  and  S_18
REMARK    6  A    between atoms: N_16  and  N_17
REMARK    7  A    between atoms: S_18  and  C_19
REMARK    8  A    between atoms: C_19  and  C_20
REMARK                            x       y       z     vdW  Elec       q    Type
REMARK                         _______ _______ _______ _____ _____    ______ ____
ROOT
ATOM      1  N   UNL     1       1.908  -6.598   4.315  0.00  0.00    -0.204 N 
ATOM      2  C   UNL     1       1.837  -6.966   5.651  0.00  0.00    +0.254 A 
ATOM      3  N   UNL     1       1.587  -6.166   6.659  0.00  0.00    -0.109 NA
ATOM      4  N   UNL     1       1.604  -6.930   7.833  0.00  0.00    -0.119 NA
ATOM      5  C   UNL     1       1.863  -8.173   7.504  0.00  0.00    +0.210 A 
ATOM      6  N   UNL     1       2.009  -8.229   6.146  0.00  0.00    -0.211 N 
ATOM      7  H   UNL     1       2.095  -7.266   3.637  0.00  0.00    +0.177 HD
ENDROOT
BRANCH   6   8
ATOM      8  N   UNL     1       2.280  -9.349   5.414  0.00  0.00    -0.294 N 
ATOM      9  H   UNL     1       3.276  -9.483   5.314  0.00  0.00    +0.163 HD
ATOM     10  H   UNL     1       1.845 -10.163   5.822  0.00  0.00    +0.163 HD
ENDBRANCH   6   8
BRANCH   1  12
ATOM     11  C   UNL     1       1.777  -4.917   2.696  0.00  0.00    +0.141 C 
ATOM     12  N   UNL     1       1.710  -5.261   3.946  0.00  0.00    -0.187 NA
BRANCH  11  15
ATOM     13  N   UNL     1       1.367  -1.676   1.111  0.00  0.00    -0.267 N 
ATOM     14  C   UNL     1       1.610  -3.000   1.027  0.00  0.00    +0.118 A 
ATOM     15  C   UNL     1       1.569  -3.508   2.307  0.00  0.00    +0.032 A 
ATOM     16  C   UNL     1       1.290  -2.432   3.177  0.00  0.00    +0.143 A 
ATOM     17  N   UNL     1       1.178  -1.347   2.459  0.00  0.00    -0.179 NA
BRANCH  13  18
ATOM     18  C   UNL     1       1.317  -0.740  -0.015  0.00  0.00    +0.170 C 
BRANCH  18  20
ATOM     19  C   UNL     1      -0.016   1.306   0.009  0.00  0.00    +0.006 C 
ATOM     20  C   UNL     1       0.002  -0.004   0.002  0.00  0.00    -0.012 C 
ENDBRANCH  18  20
ENDBRANCH  13  18
ENDBRANCH  11  15
ENDBRANCH   1  12
BRANCH   5  21
ATOM     21  S   UNL     1       1.995  -9.533   8.616  0.00  0.00    -0.080 S 
BRANCH  21  22
ATOM     22  C   UNL     1       1.692  -8.797  10.247  0.00  0.00    +0.112 C 
BRANCH  22  23
ATOM     23  C   UNL     1       1.777  -9.867  11.304  0.00  0.00    -0.037 A 
ATOM     24  C   UNL     1       0.645 -10.575  11.664  0.00  0.00    +0.004 A 
ATOM     25  C   UNL     1       0.723 -11.556  12.634  0.00  0.00    +0.000 A 
ATOM     26  C   UNL     1       1.933 -11.831  13.245  0.00  0.00    +0.000 A 
ATOM     27  C   UNL     1       3.064 -11.124  12.884  0.00  0.00    +0.000 A 
ATOM     28  C   UNL     1       2.988 -10.145  11.911  0.00  0.00    +0.004 A 
ENDBRANCH  22  23
ENDBRANCH  21  22
ENDBRANCH   5  21
TORSDOF 8
