REMARK  Name = ZINC10154386
REMARK  15 active torsions:
REMARK  status: ('A' for Active; 'I' for Inactive)
REMARK    1  A    between atoms: C_1  and  C_2
REMARK    2  A    between atoms: C_5  and  O_9
REMARK    3  A    between atoms: C_7  and  C_8
REMARK    4  A    between atoms: O_9  and  C_10
REMARK    5  A    between atoms: C_10  and  C_12
REMARK    6  A    between atoms: C_10  and  C_13
REMARK    7  A    between atoms: N_15  and  N_16
REMARK    8  A    between atoms: N_16  and  C_17
REMARK    9  A    between atoms: C_17  and  N_19
REMARK   10  A    between atoms: C_20  and  C_22
REMARK   11  A    between atoms: C_27  and  O_28
REMARK   12  A    between atoms: O_28  and  C_29
REMARK   13  A    between atoms: C_29  and  C_30
REMARK   14  A    between atoms: C_30  and  C_31
REMARK   15  A    between atoms: C_30  and  C_32
REMARK                            x       y       z     vdW  Elec       q    Type
REMARK                         _______ _______ _______ _____ _____    ______ ____
ROOT
ATOM      1  C   UNL     1       3.942   6.193   0.463  0.00  0.00    +0.153 C 
ATOM      2  S   UNL     1       5.494   5.474   0.393  0.00  0.00    -0.017 S 
ENDROOT
BRANCH   1   3
ATOM      3  N   UNL     1       2.855   5.428   0.684  0.00  0.00    -0.263 N 
ATOM      4  C   UNL     1       2.989   4.097   0.849  0.00  0.00    +0.253 C 
ATOM      5  O   UNL     1       4.091   3.587   0.799  0.00  0.00    -0.270 OA
ATOM      6  H   UNL     1       1.975   5.835   0.724  0.00  0.00    +0.157 HD
BRANCH   4   7
ATOM      7  C   UNL     1       1.799   3.260   1.090  0.00  0.00    +0.080 A 
ATOM      8  C   UNL     1       0.530   3.843   1.148  0.00  0.00    +0.032 A 
ATOM      9  C   UNL     1      -0.578   3.055   1.373  0.00  0.00    +0.019 A 
ATOM     10  C   UNL     1      -0.440   1.685   1.538  0.00  0.00    +0.019 A 
ATOM     11  C   UNL     1       0.808   1.098   1.488  0.00  0.00    +0.047 A 
ATOM     12  C   UNL     1       1.934   1.876   1.262  0.00  0.00    +0.133 A 
ATOM     13 BR   UNL     1      -2.295   3.844   1.451  0.00  0.00    -0.050 Br
BRANCH  12  14
ATOM     14  O   UNL     1       3.161   1.299   1.208  0.00  0.00    -0.491 OA
BRANCH  14  15
ATOM     15  C   UNL     1       3.221  -0.117   1.391  0.00  0.00    +0.232 C 
BRANCH  15  16
ATOM     16  C   UNL     1       4.675  -0.582   1.297  0.00  0.00    +0.020 C 
ATOM     17  C   UNL     1       4.754  -2.076   1.617  0.00  0.00    +0.010 C 
ATOM     18  C   UNL     1       5.199  -0.336  -0.119  0.00  0.00    +0.010 C 
ENDBRANCH  15  16
ENDBRANCH  14  15
ENDBRANCH  12  14
ENDBRANCH   4   7
ENDBRANCH   1   3
BRANCH   1  19
ATOM     19  N   UNL     1       3.808   7.524   0.298  0.00  0.00    -0.245 N 
ATOM     20  H   UNL     1       4.591   8.074   0.140  0.00  0.00    +0.172 HD
BRANCH  19  23
ATOM     21  C   UNL     1       2.403   9.443   0.191  0.00  0.00    +0.270 C 
ATOM     22  O   UNL     1       3.382  10.131  -0.007  0.00  0.00    -0.270 OA
ATOM     23  N   UNL     1       2.538   8.112   0.356  0.00  0.00    -0.232 N 
ATOM     24  H   UNL     1       1.755   7.561   0.515  0.00  0.00    +0.173 HD
BRANCH  21  25
ATOM     25  C   UNL     1       1.037  10.076   0.253  0.00  0.00    +0.257 C 
ATOM     26  C   UNL     1       0.187   9.569  -0.913  0.00  0.00    +0.062 C 
BRANCH  25  27
ATOM     27  O   UNL     1       1.166  11.496   0.167  0.00  0.00    -0.480 OA
BRANCH  27  32
ATOM     28  C   UNL     1      -2.977  14.580   2.414  0.00  0.00    +0.044 C 
ATOM     29  C   UNL     1      -1.869  13.755   1.813  0.00  0.00    -0.047 A 
ATOM     30  C   UNL     1      -1.984  12.378   1.760  0.00  0.00    +0.007 A 
ATOM     31  C   UNL     1      -0.969  11.620   1.210  0.00  0.00    +0.046 A 
ATOM     32  C   UNL     1       0.166  12.240   0.709  0.00  0.00    +0.122 A 
ATOM     33  C   UNL     1       0.281  13.621   0.768  0.00  0.00    +0.049 A 
ATOM     34  C   UNL     1      -0.738  14.376   1.315  0.00  0.00    -0.044 A 
ATOM     35  C   UNL     1      -0.616  15.877   1.374  0.00  0.00    +0.044 C 
ENDBRANCH  27  32
ENDBRANCH  25  27
ENDBRANCH  21  25
ENDBRANCH  19  23
ENDBRANCH   1  19
TORSDOF 10
