REMARK  Name = ZINC39915919
REMARK  15 active torsions:
REMARK  status: ('A' for Active; 'I' for Inactive)
REMARK    1  A    between atoms: C_1  and  C_2
REMARK    2  A    between atoms: C_2  and  C_3
REMARK    3  A    between atoms: C_3  and  C_4
REMARK    4  A    between atoms: C_4  and  C_5
REMARK    5  A    between atoms: C_5  and  O_6
REMARK    6  A    between atoms: O_6  and  C_7
REMARK    7  A    between atoms: C_10  and  C_13
REMARK    8  A    between atoms: C_13  and  N_14
REMARK    9  A    between atoms: C_22  and  S_23
REMARK   10  A    between atoms: S_23  and  C_24
REMARK   11  A    between atoms: C_26  and  O_39
REMARK   12  A    between atoms: C_28  and  O_38
REMARK   13  A    between atoms: C_30  and  O_37
REMARK   14  A    between atoms: C_32  and  C_35
REMARK   15  A    between atoms: C_35  and  O_36
REMARK                            x       y       z     vdW  Elec       q    Type
REMARK                         _______ _______ _______ _____ _____    ______ ____
ROOT
ATOM      1  N   UNL     1      -8.581  -6.811  -1.431  0.00  0.00    -0.314 N 
ATOM      2  C   UNL     1      -9.363  -6.001  -2.239  0.00  0.00    +0.070 A 
ATOM      3  C   UNL     1      -9.989  -4.778  -2.056  0.00  0.00    +0.028 A 
ATOM      4  C   UNL     1     -10.716  -4.217  -3.086  0.00  0.00    +0.002 A 
ATOM      5  C   UNL     1     -10.824  -4.869  -4.305  0.00  0.00    +0.002 A 
ATOM      6  C   UNL     1     -10.209  -6.085  -4.505  0.00  0.00    +0.030 A 
ATOM      7  C   UNL     1      -9.469  -6.666  -3.472  0.00  0.00    +0.090 A 
ATOM      8  N   UNL     1      -8.765  -7.823  -3.365  0.00  0.00    -0.222 NA
ATOM      9  C   UNL     1      -8.238  -7.908  -2.168  0.00  0.00    +0.173 A 
ENDROOT
BRANCH   1  10
ATOM     10  C   UNL     1      -8.191  -6.537  -0.045  0.00  0.00    +0.159 C 
BRANCH  10  14
ATOM     11  C   UNL     1      -4.512  -4.364  -0.003  0.00  0.00    +0.121 A 
ATOM     12  C   UNL     1      -5.721  -3.683  -0.042  0.00  0.00    +0.046 A 
ATOM     13  C   UNL     1      -6.909  -4.388  -0.056  0.00  0.00    +0.009 A 
ATOM     14  C   UNL     1      -6.894  -5.771  -0.030  0.00  0.00    -0.027 A 
ATOM     15  C   UNL     1      -5.691  -6.451   0.008  0.00  0.00    +0.009 A 
ATOM     16  C   UNL     1      -4.500  -5.751   0.016  0.00  0.00    +0.046 A 
BRANCH  11  17
ATOM     17  O   UNL     1      -3.342  -3.672   0.010  0.00  0.00    -0.492 OA
BRANCH  17  18
ATOM     18  C   UNL     1      -3.431  -2.246  -0.011  0.00  0.00    +0.229 C 
BRANCH  18  19
ATOM     19  C   UNL     1      -2.023  -1.647   0.008  0.00  0.00    +0.041 C 
BRANCH  19  20
ATOM     20  C   UNL     1      -2.118  -0.120  -0.015  0.00  0.00    +0.003 C 
BRANCH  20  22
ATOM     21  C   UNL     1      -0.806   2.006  -0.019  0.00  0.00    +0.004 C 
ATOM     22  C   UNL     1      -0.711   0.479   0.004  0.00  0.00    -0.003 C 
ENDBRANCH  20  22
ENDBRANCH  19  20
ENDBRANCH  18  19
ENDBRANCH  17  18
ENDBRANCH  11  17
ENDBRANCH  10  14
ENDBRANCH   1  10
BRANCH   9  23
ATOM     23  S   UNL     1      -7.239  -9.241  -1.594  0.00  0.00    -0.054 S 
BRANCH  23  24
ATOM     24  C   UNL     1      -7.150 -10.366  -3.015  0.00  0.00    +0.214 C 
ATOM     25  C   UNL     1      -6.200 -11.522  -2.692  0.00  0.00    +0.185 C 
ATOM     26  C   UNL     1      -6.176 -12.498  -3.872  0.00  0.00    +0.177 C 
ATOM     27  C   UNL     1      -7.604 -12.979  -4.151  0.00  0.00    +0.176 C 
ATOM     28  C   UNL     1      -8.499 -11.767  -4.417  0.00  0.00    +0.176 C 
ATOM     29  O   UNL     1      -8.452 -10.885  -3.294  0.00  0.00    -0.355 OA
BRANCH  27  30
ATOM     30  O   UNL     1      -7.604 -13.836  -5.295  0.00  0.00    -0.386 OA
ATOM     31  H   UNL     1      -7.052 -14.624  -5.197  0.00  0.00    +0.210 HD
ENDBRANCH  27  30
BRANCH  26  32
ATOM     32  O   UNL     1      -5.658 -11.838  -5.029  0.00  0.00    -0.386 OA
ATOM     33  H   UNL     1      -4.758 -11.502  -4.919  0.00  0.00    +0.210 HD
ENDBRANCH  26  32
BRANCH  25  34
ATOM     34  O   UNL     1      -6.654 -12.200  -1.519  0.00  0.00    -0.386 OA
ATOM     35  H   UNL     1      -6.697 -11.639  -0.732  0.00  0.00    +0.210 HD
ENDBRANCH  25  34
BRANCH  28  36
ATOM     36  C   UNL     1      -8.005 -11.032  -5.665  0.00  0.00    +0.190 C 
BRANCH  36  37
ATOM     37  O   UNL     1      -8.927  -9.994  -6.002  0.00  0.00    -0.392 OA
ATOM     38  H   UNL     1      -8.677  -9.485  -6.786  0.00  0.00    +0.210 HD
ENDBRANCH  36  37
ENDBRANCH  28  36
ENDBRANCH  23  24
ENDBRANCH   9  23
TORSDOF 14
