REMARK  Name = ZINC48122218
REMARK  9 active torsions:
REMARK  status: ('A' for Active; 'I' for Inactive)
REMARK    1  A    between atoms: C_1  and  C_2
REMARK    2  A    between atoms: C_4  and  O_19
REMARK    3  A    between atoms: C_7  and  N_8
REMARK    4  A    between atoms: N_11  and  C_12
REMARK    5  A    between atoms: C_12  and  C_13
REMARK    6  A    between atoms: C_16  and  C_18
REMARK    7  A    between atoms: O_19  and  C_20
REMARK    8  A    between atoms: C_20  and  C_21
REMARK    9  A    between atoms: C_20  and  C_22
REMARK                            x       y       z     vdW  Elec       q    Type
REMARK                         _______ _______ _______ _____ _____    ______ ____
ROOT
ATOM      1  C   UNL     1      -0.143   2.017  -0.209  0.00  0.00    +0.046 C 
ATOM      2  C   UNL     1       0.170   0.554  -0.032  0.00  0.00    -0.026 A 
ATOM      3  C   UNL     1      -0.006  -0.323  -1.085  0.00  0.00    +0.050 A 
ATOM      4  C   UNL     1       0.282  -1.669  -0.923  0.00  0.00    +0.121 A 
ATOM      5  C   UNL     1       0.746  -2.138   0.298  0.00  0.00    +0.047 A 
ATOM      6  C   UNL     1       0.922  -1.263   1.351  0.00  0.00    +0.027 A 
ATOM      7  C   UNL     1       0.641   0.086   1.187  0.00  0.00    +0.038 A 
ENDROOT
BRANCH   7   8
ATOM      8  N   UNL     1       0.825   0.976   2.255  0.00  0.00    -0.269 N 
ATOM      9  C   UNL     1       0.693   0.542   3.524  0.00  0.00    +0.304 C 
ATOM     10  O   UNL     1       0.480  -0.634   3.745  0.00  0.00    -0.253 OA
ATOM     11  N   UNL     1       0.796   1.412   4.548  0.00  0.00    -0.299 N 
ATOM     12  H   UNL     1       1.048   1.904   2.080  0.00  0.00    +0.156 HD
ATOM     13  H   UNL     1       0.966   2.351   4.371  0.00  0.00    +0.150 HD
BRANCH  11  14
ATOM     14  C   UNL     1       0.652   0.941   5.927  0.00  0.00    +0.109 C 
BRANCH  14  15
ATOM     15  C   UNL     1       0.811   2.120   6.889  0.00  0.00    +0.009 C 
ATOM     16  C   UNL     1       1.999   2.090   7.853  0.00  0.00    +0.009 C 
ATOM     17  C   UNL     1       0.580   1.854   8.378  0.00  0.00    -0.009 C 
ATOM     18  C   UNL     1       0.207   0.429   8.791  0.00  0.00    +0.008 C 
ENDBRANCH  14  15
ENDBRANCH  11  14
ENDBRANCH   7   8
BRANCH   4  19
ATOM     19  O   UNL     1       0.108  -2.531  -1.960  0.00  0.00    -0.489 OA
BRANCH  19  20
ATOM     20  C   UNL     1       0.310  -3.920  -1.690  0.00  0.00    +0.167 C 
ATOM     21  C   UNL     1      -0.490  -4.756  -2.692  0.00  0.00    +0.051 C 
ATOM     22  C   UNL     1       1.797  -4.254  -1.820  0.00  0.00    +0.051 C 
ENDBRANCH  19  20
ENDBRANCH   4  19
TORSDOF 5
