REMARK  Name = ZINC59323962
REMARK  8 active torsions:
REMARK  status: ('A' for Active; 'I' for Inactive)
REMARK    1  A    between atoms: C_1  and  C_2
REMARK    2  A    between atoms: C_2  and  C_3
REMARK    3  A    between atoms: C_3  and  S_4
REMARK    4  A    between atoms: S_4  and  C_5
REMARK    5  A    between atoms: C_10  and  C_11
REMARK    6  A    between atoms: N_13  and  C_14
REMARK    7  A    between atoms: C_16  and  N_21
REMARK    8  A    between atoms: C_19  and  C_20
REMARK                            x       y       z     vdW  Elec       q    Type
REMARK                         _______ _______ _______ _____ _____    ______ ____
ROOT
ATOM      1  C   UNL     1      -2.455  -5.204  -0.005  0.00  0.00    +0.249 C 
ATOM      2  O   UNL     1      -1.277  -4.902  -0.008  0.00  0.00    -0.270 OA
ATOM      3  N   UNL     1      -2.818  -6.502  -0.006  0.00  0.00    -0.281 N 
ATOM      4  H   UNL     1      -3.753  -6.744   0.077  0.00  0.00    +0.155 HD
ENDROOT
BRANCH   3   5
ATOM      5  C   UNL     1      -1.845  -7.500  -0.126  0.00  0.00    +0.039 A 
ATOM      6  C   UNL     1      -0.632  -7.219  -0.742  0.00  0.00    +0.056 A 
ATOM      7  C   UNL     1       0.326  -8.206  -0.859  0.00  0.00    +0.128 A 
ATOM      8  C   UNL     1       0.079  -9.474  -0.364  0.00  0.00    +0.033 A 
ATOM      9  C   UNL     1      -1.127  -9.757   0.249  0.00  0.00    +0.007 A 
ATOM     10  C   UNL     1      -2.088  -8.772   0.375  0.00  0.00    -0.029 A 
ATOM     11  C   UNL     1      -3.400  -9.079   1.050  0.00  0.00    +0.045 C 
BRANCH   7  12
ATOM     12  N   UNL     1       1.618  -7.908  -1.516  0.00  0.00    +0.056 N 
ATOM     13  O   UNL     1       1.835  -6.800  -1.950  0.00  0.00    -0.126 OA
ATOM     14  O   UNL     1       2.458  -8.772  -1.619  0.00  0.00    -0.126 OA
ENDBRANCH   7  12
ENDBRANCH   3   5
BRANCH   1  20
ATOM     15  C   UNL     1      -3.113  -2.797  -0.001  0.00  0.00    +0.020 A 
ATOM     16  C   UNL     1      -4.096  -1.813  -0.004  0.00  0.00    +0.015 A 
ATOM     17  C   UNL     1      -5.429  -2.168  -0.001  0.00  0.00    +0.001 A 
ATOM     18  C   UNL     1      -5.800  -3.504   0.004  0.00  0.00    +0.001 A 
ATOM     19  C   UNL     1      -4.841  -4.493   0.007  0.00  0.00    +0.014 A 
ATOM     20  C   UNL     1      -3.486  -4.151  -0.002  0.00  0.00    +0.050 A 
BRANCH  15  21
ATOM     21  S   UNL     1      -1.410  -2.347  -0.005  0.00  0.00    -0.124 S 
BRANCH  21  22
ATOM     22  C   UNL     1      -1.435  -0.533  -0.003  0.00  0.00    +0.074 C 
BRANCH  22  24
ATOM     23  C   UNL     1      -0.020   1.526  -0.004  0.00  0.00    +0.004 C 
ATOM     24  C   UNL     1       0.001  -0.004  -0.006  0.00  0.00    +0.008 C 
ENDBRANCH  22  24
ENDBRANCH  21  22
ENDBRANCH  15  21
ENDBRANCH   1  20
TORSDOF 6
