REMARK  Name = ZINC19736541
REMARK  10 active torsions:
REMARK  status: ('A' for Active; 'I' for Inactive)
REMARK    1  A    between atoms: C_1  and  C_2
REMARK    2  A    between atoms: C_2  and  C_4
REMARK    3  A    between atoms: C_2  and  O_15
REMARK    4  A    between atoms: N_6  and  C_7
REMARK    5  A    between atoms: C_11  and  N_13
REMARK    6  A    between atoms: O_15  and  C_16
REMARK    7  A    between atoms: C_19  and  C_22
REMARK    8  A    between atoms: C_22  and  C_23
REMARK    9  A    between atoms: C_22  and  C_24
REMARK   10  A    between atoms: C_22  and  C_25
REMARK                            x       y       z     vdW  Elec       q    Type
REMARK                         _______ _______ _______ _____ _____    ______ ____
ROOT
ATOM      1  C   UNL     1       0.085   1.097  -0.404  0.00  0.00    +0.258 C 
ATOM      2  O   UNL     1       0.282   0.042  -0.971  0.00  0.00    -0.271 OA
ATOM      3  N   UNL     1      -1.176   1.508  -0.164  0.00  0.00    -0.282 N 
ATOM      4  H   UNL     1      -1.354   2.426   0.414  0.00  0.00    +0.155 HD
ENDROOT
BRANCH   3   5
ATOM      5  C   UNL     1      -2.258   0.766  -0.651  0.00  0.00    +0.035 A 
ATOM      6  C   UNL     1      -3.397   1.416  -1.108  0.00  0.00    +0.025 A 
ATOM      7  C   UNL     1      -4.465   0.685  -1.593  0.00  0.00    +0.023 A 
ATOM      8  C   UNL     1      -4.407  -0.696  -1.616  0.00  0.00    +0.062 A 
ATOM      9  C   UNL     1      -3.271  -1.353  -1.155  0.00  0.00    +0.045 A 
ATOM     10  C   UNL     1      -2.196  -0.620  -0.672  0.00  0.00    +0.047 A 
ATOM     11 CL   UNL     1      -5.752  -1.611  -2.221  0.00  0.00    -0.082 Cl
BRANCH   9  12
ATOM     12  N   UNL     1      -3.213  -2.749  -1.179  0.00  0.00    -0.357 N 
ATOM     13  H   UNL     1      -2.314  -3.268  -0.814  0.00  0.00    +0.142 HD
ATOM     14  H   UNL     1      -4.065  -3.329  -1.562  0.00  0.00    +0.142 HD
ENDBRANCH   9  12
ENDBRANCH   3   5
BRANCH   1  16
ATOM     15  C   UNL     1       1.165   3.314  -0.658  0.00  0.00    +0.062 C 
ATOM     16  C   UNL     1       1.251   1.949   0.027  0.00  0.00    +0.256 C 
BRANCH  16  17
ATOM     17  O   UNL     1       2.473   1.307  -0.341  0.00  0.00    -0.480 OA
BRANCH  17  18
ATOM     18  C   UNL     1       3.581   1.631   0.377  0.00  0.00    +0.122 A 
ATOM     19  C   UNL     1       4.774   0.961   0.152  0.00  0.00    +0.046 A 
ATOM     20  C   UNL     1       5.901   1.296   0.879  0.00  0.00    +0.008 A 
ATOM     21  C   UNL     1       5.836   2.291   1.837  0.00  0.00    -0.042 A 
ATOM     22  C   UNL     1       4.646   2.957   2.066  0.00  0.00    +0.008 A 
ATOM     23  C   UNL     1       3.518   2.629   1.338  0.00  0.00    +0.046 A 
BRANCH  21  24
ATOM     24  C   UNL     1       7.064   2.651   2.632  0.00  0.00    -0.013 C 
ATOM     25  C   UNL     1       6.793   2.422   4.121  0.00  0.00    +0.015 C 
ATOM     26  C   UNL     1       8.235   1.772   2.187  0.00  0.00    +0.015 C 
ATOM     27  C   UNL     1       7.412   4.122   2.397  0.00  0.00    +0.015 C 
ENDBRANCH  21  24
ENDBRANCH  17  18
ENDBRANCH  16  17
ENDBRANCH   1  16
TORSDOF 6
