REMARK  Name = ZINC66160273
REMARK  10 active torsions:
REMARK  status: ('A' for Active; 'I' for Inactive)
REMARK    1  A    between atoms: C_1  and  C_2
REMARK    2  A    between atoms: C_2  and  C_3
REMARK    3  A    between atoms: C_3  and  C_4
REMARK    4  A    between atoms: C_3  and  C_5
REMARK    5  A    between atoms: C_3  and  O_26
REMARK    6  A    between atoms: C_5  and  N_6
REMARK    7  A    between atoms: N_9  and  C_10
REMARK    8  A    between atoms: C_13  and  C_17
REMARK    9  A    between atoms: C_15  and  C_16
REMARK   10  A    between atoms: C_22  and  C_25
REMARK                            x       y       z     vdW  Elec       q    Type
REMARK                         _______ _______ _______ _____ _____    ______ ____
ROOT
ATOM      1  C   UNL     1       2.635  -5.630  -3.741  0.00  0.00    +0.038 A 
ATOM      2  C   UNL     1       2.216  -6.500  -2.739  0.00  0.00    +0.024 A 
ATOM      3  C   UNL     1       2.416  -7.855  -2.874  0.00  0.00    +0.015 A 
ATOM      4  C   UNL     1       3.041  -8.357  -4.019  0.00  0.00    +0.037 A 
ATOM      5  C   UNL     1       3.461  -7.480  -5.024  0.00  0.00    +0.018 A 
ATOM      6  C   UNL     1       3.253  -6.126  -4.885  0.00  0.00    -0.028 A 
ATOM      7  C   UNL     1       3.700  -5.181  -5.970  0.00  0.00    +0.045 C 
ENDROOT
BRANCH   4   8
ATOM      8  C   UNL     1       3.258  -9.809  -4.167  0.00  0.00    +0.247 C 
ATOM      9  O   UNL     1       4.336 -10.227  -4.543  0.00  0.00    -0.270 OA
ATOM     10  N   UNL     1       2.261 -10.671  -3.885  0.00  0.00    -0.298 N 
ATOM     11  C   UNL     1       2.434 -12.113  -4.109  0.00  0.00    +0.108 C 
ATOM     12  C   UNL     1       1.281 -12.618  -4.983  0.00  0.00    +0.022 C 
ATOM     13  C   UNL     1      -0.051 -12.237  -4.334  0.00  0.00    -0.011 C 
ATOM     14  C   UNL     1      -0.154 -10.713  -4.231  0.00  0.00    +0.022 C 
ATOM     15  C   UNL     1       0.984 -10.188  -3.343  0.00  0.00    +0.108 C 
ATOM     16  C   UNL     1      -1.204 -12.769  -5.187  0.00  0.00    +0.007 C 
ENDBRANCH   4   8
BRANCH   1  20
ATOM     17  N   UNL     1       1.316  -2.478  -2.581  0.00  0.00    -0.296 N 
ATOM     18  C   UNL     1       1.444  -3.801  -2.805  0.00  0.00    +0.304 C 
ATOM     19  O   UNL     1       0.668  -4.582  -2.290  0.00  0.00    -0.253 OA
ATOM     20  N   UNL     1       2.431  -4.257  -3.601  0.00  0.00    -0.269 N 
ATOM     21  H   UNL     1       1.935  -1.855  -2.992  0.00  0.00    +0.150 HD
ATOM     22  H   UNL     1       2.999  -3.631  -4.077  0.00  0.00    +0.156 HD
BRANCH  17  23
ATOM     23  C   UNL     1       0.243  -1.982  -1.716  0.00  0.00    +0.140 C 
BRANCH  23  24
ATOM     24  C   UNL     1       0.322  -0.456  -1.629  0.00  0.00    +0.078 C 
ATOM     25  C   UNL     1       1.720  -0.044  -1.165  0.00  0.00    +0.043 C 
BRANCH  24  27
ATOM     26  C   UNL     1      -0.639   1.578  -0.543  0.00  0.00    +0.007 C 
ATOM     27  C   UNL     1      -0.718   0.052  -0.629  0.00  0.00    +0.032 C 
ENDBRANCH  24  27
BRANCH  24  28
ATOM     28  O   UNL     1       0.061   0.108  -2.916  0.00  0.00    -0.387 OA
ATOM     29  H   UNL     1      -0.809  -0.113  -3.273  0.00  0.00    +0.210 HD
ENDBRANCH  24  28
ENDBRANCH  23  24
ENDBRANCH  17  23
ENDBRANCH   1  20
TORSDOF 6
