REMARK  Name = ZINC51886372
REMARK  5 active torsions:
REMARK  status: ('A' for Active; 'I' for Inactive)
REMARK    1  A    between atoms: C_1  and  C_2
REMARK    2  A    between atoms: C_4  and  N_16
REMARK    3  A    between atoms: C_7  and  N_8
REMARK    4  A    between atoms: C_11  and  C_14
REMARK    5  A    between atoms: C_14  and  O_15
REMARK                            x       y       z     vdW  Elec       q    Type
REMARK                         _______ _______ _______ _____ _____    ______ ____
ROOT
ATOM      1  C   UNL     1      -0.018   1.503   0.010  0.00  0.00    +0.046 C 
ATOM      2  C   UNL     1       0.002  -0.004   0.002  0.00  0.00    -0.027 A 
ATOM      3  C   UNL     1       0.006  -0.689  -1.198  0.00  0.00    +0.038 A 
ATOM      4  C   UNL     1       0.025  -2.071  -1.206  0.00  0.00    +0.127 A 
ATOM      5  C   UNL     1       0.040  -2.773  -0.014  0.00  0.00    +0.034 A 
ATOM      6  C   UNL     1       0.036  -2.095   1.188  0.00  0.00    +0.025 A 
ATOM      7  C   UNL     1       0.023  -0.706   1.200  0.00  0.00    +0.033 A 
ENDROOT
BRANCH   7   8
ATOM      8  N   UNL     1       0.025  -0.016   2.415  0.00  0.00    -0.329 N 
ATOM      9  C   UNL     1      -1.171   0.386   3.177  0.00  0.00    +0.105 C 
ATOM     10  C   UNL     1      -0.682   0.524   4.640  0.00  0.00    +0.026 C 
ATOM     11  C   UNL     1       0.737   1.117   4.439  0.00  0.00    +0.033 C 
ATOM     12  C   UNL     1       1.221   0.423   3.149  0.00  0.00    +0.111 C 
BRANCH  11  13
ATOM     13  C   UNL     1       1.645   0.762   5.619  0.00  0.00    +0.161 C 
BRANCH  13  14
ATOM     14  O   UNL     1       1.172   1.416   6.798  0.00  0.00    -0.395 OA
ATOM     15  H   UNL     1       1.701   1.235   7.587  0.00  0.00    +0.209 HD
ENDBRANCH  13  14
ENDBRANCH  11  13
ENDBRANCH   7   8
BRANCH   4  16
ATOM     16  N   UNL     1       0.028  -2.802  -2.493  0.00  0.00    +0.056 N 
ATOM     17  O   UNL     1       0.014  -2.190  -3.536  0.00  0.00    -0.126 OA
ATOM     18  O   UNL     1       0.044  -4.011  -2.502  0.00  0.00    -0.126 OA
ENDBRANCH   4  16
TORSDOF 4
