REMARK  Name = ZINC39102502
REMARK  6 active torsions:
REMARK  status: ('A' for Active; 'I' for Inactive)
REMARK    1  A    between atoms: C_1  and  C_2
REMARK    2  A    between atoms: C_2  and  C_3
REMARK    3  A    between atoms: C_6  and  C_13
REMARK    4  A    between atoms: C_13  and  C_14
REMARK    5  A    between atoms: C_14  and  C_15
REMARK    6  A    between atoms: C_14  and  C_16
REMARK                            x       y       z     vdW  Elec       q    Type
REMARK                         _______ _______ _______ _____ _____    ______ ____
ROOT
ATOM      1  C   UNL     1      -1.456  -1.048   0.165  0.00  0.00    +0.101 C 
ATOM      2  C   UNL     1      -1.671  -2.508  -0.263  0.00  0.00    +0.047 C 
ATOM      3  C   UNL     1      -3.165  -2.839  -0.279  0.00  0.00    +0.029 C 
ATOM      4  C   UNL     1      -3.973  -1.596   0.141  0.00  0.00    +0.123 C 
ATOM      5  C   UNL     1      -3.432  -1.178   1.508  0.00  0.00    +0.230 C 
ATOM      6  O   UNL     1      -4.119  -1.113   2.506  0.00  0.00    -0.275 OA
ATOM      7  N   UNL     1      -2.093  -0.885   1.494  0.00  0.00    -0.294 N 
ATOM      8  C   UNL     1      -3.562  -0.477  -0.817  0.00  0.00    +0.230 C 
ATOM      9  O   UNL     1      -4.345   0.106  -1.537  0.00  0.00    -0.275 OA
ATOM     10  N   UNL     1      -2.212  -0.189  -0.778  0.00  0.00    -0.294 N 
ATOM     11  H   UNL     1      -1.605  -0.604   2.284  0.00  0.00    +0.151 HD
ATOM     12  H   UNL     1      -1.793   0.499  -1.318  0.00  0.00    +0.151 HD
ENDROOT
BRANCH   1  14
ATOM     13  C   UNL     1       0.184   0.779   0.631  0.00  0.00    +0.007 C 
ATOM     14  C   UNL     1       0.029  -0.681   0.200  0.00  0.00    +0.042 C 
ENDBRANCH   1  14
BRANCH   4  15
ATOM     15  C   UNL     1      -5.481  -1.854   0.158  0.00  0.00    +0.028 C 
BRANCH  15  16
ATOM     16  C   UNL     1      -6.226  -0.518   0.216  0.00  0.00    -0.016 C 
ATOM     17  C   UNL     1      -7.733  -0.773   0.166  0.00  0.00    +0.007 C 
ATOM     18  C   UNL     1      -5.873   0.205   1.517  0.00  0.00    +0.007 C 
ENDBRANCH  15  16
ENDBRANCH   4  15
TORSDOF 3
