REMARK  Name = ZINC66571468
REMARK  8 active torsions:
REMARK  status: ('A' for Active; 'I' for Inactive)
REMARK    1  A    between atoms: C_1  and  C_2
REMARK    2  A    between atoms: C_3  and  C_14
REMARK    3  A    between atoms: N_8  and  C_11
REMARK    4  A    between atoms: C_11  and  C_12
REMARK    5  A    between atoms: C_11  and  C_13
REMARK    6  A    between atoms: N_16  and  N_17
REMARK    7  A    between atoms: C_18  and  C_20
REMARK    8  A    between atoms: C_20  and  C_21
REMARK                            x       y       z     vdW  Elec       q    Type
REMARK                         _______ _______ _______ _____ _____    ______ ____
ROOT
ATOM      1  C   UNL     1      -0.229   0.065  -2.485  0.00  0.00    +0.262 C 
ATOM      2  O   UNL     1      -0.154   1.278  -2.483  0.00  0.00    -0.269 OA
ATOM      3  N   UNL     1      -0.429  -0.596  -3.642  0.00  0.00    -0.230 N 
ATOM      4  H   UNL     1      -0.488  -1.564  -3.644  0.00  0.00    +0.173 HD
ENDROOT
BRANCH   1   7
ATOM      5  C   UNL     1      -0.075   1.501   0.015  0.00  0.00    +0.066 C 
ATOM      6  C   UNL     1      -0.025  -0.005   0.004  0.00  0.00    +0.053 A 
ATOM      7  C   UNL     1      -0.101  -0.685  -1.219  0.00  0.00    +0.060 A 
ATOM      8  C   UNL     1      -0.055  -2.079  -1.226  0.00  0.00    +0.028 A 
ATOM      9  C   UNL     1       0.066  -2.736   0.001  0.00  0.00    +0.039 A 
ATOM     10  C   UNL     1       0.145  -4.138   0.399  0.00  0.00    +0.144 A 
ATOM     11  N   UNL     1       0.251  -4.173   1.696  0.00  0.00    -0.177 NA
ATOM     12  N   UNL     1       0.249  -2.875   2.215  0.00  0.00    -0.244 N 
ATOM     13  C   UNL     1       0.137  -1.979   1.189  0.00  0.00    +0.159 A 
ATOM     14  N   UNL     1       0.093  -0.652   1.139  0.00  0.00    -0.232 NA
BRANCH  12  15
ATOM     15  C   UNL     1       0.351  -2.529   3.634  0.00  0.00    +0.103 C 
ATOM     16  C   UNL     1      -0.821  -3.151   4.396  0.00  0.00    +0.032 C 
ATOM     17  C   UNL     1       1.668  -3.068   4.197  0.00  0.00    +0.032 C 
ENDBRANCH  12  15
ENDBRANCH   1   7
BRANCH   3  18
ATOM     18  N   UNL     1      -0.550   0.115  -4.843  0.00  0.00    -0.234 N 
ATOM     19  C   UNL     1      -0.750  -0.546  -6.001  0.00  0.00    +0.229 C 
ATOM     20  O   UNL     1      -0.824  -1.756  -6.003  0.00  0.00    -0.274 OA
ATOM     21  H   UNL     1      -0.490   1.083  -4.841  0.00  0.00    +0.173 HD
BRANCH  19  22
ATOM     22  C   UNL     1      -0.880   0.220  -7.292  0.00  0.00    +0.101 C 
BRANCH  22  23
ATOM     23  C   UNL     1      -1.099  -0.761  -8.446  0.00  0.00    -0.002 C 
ATOM     24  C   UNL     1       0.146  -1.634  -8.617  0.00  0.00    +0.004 C 
ATOM     25  C   UNL     1      -0.073  -2.615  -9.771  0.00  0.00    +0.000 C 
ATOM     26  C   UNL     1      -0.330  -1.834 -11.062  0.00  0.00    +0.000 C 
ATOM     27  C   UNL     1      -1.575  -0.961 -10.891  0.00  0.00    +0.000 C 
ATOM     28  C   UNL     1      -1.356   0.019  -9.737  0.00  0.00    +0.004 C 
ENDBRANCH  22  23
ENDBRANCH  19  22
ENDBRANCH   3  18
TORSDOF 5
