REMARK  Name = ZINC40025599
REMARK  7 active torsions:
REMARK  status: ('A' for Active; 'I' for Inactive)
REMARK    1  A    between atoms: C_1  and  C_2
REMARK    2  A    between atoms: C_5  and  C_8
REMARK    3  A    between atoms: C_8  and  C_10
REMARK    4  A    between atoms: N_14  and  C_24
REMARK    5  A    between atoms: C_15  and  C_17
REMARK    6  A    between atoms: C_20  and  O_23
REMARK    7  A    between atoms: C_24  and  C_25
REMARK                            x       y       z     vdW  Elec       q    Type
REMARK                         _______ _______ _______ _____ _____    ______ ____
ROOT
ATOM      1  C   UNL     1       0.151  -4.934   1.302  0.00  0.00    +0.076 C 
ATOM      2  C   UNL     1       0.249  -6.258   1.564  0.00  0.00    +0.249 C 
ATOM      3  C   UNL     1       0.268  -6.464   3.027  0.00  0.00    +0.288 C 
ATOM      4  O   UNL     1       0.349  -7.544   3.579  0.00  0.00    -0.266 OA
ATOM      5  N   UNL     1       0.183  -5.279   3.659  0.00  0.00    -0.280 N 
ATOM      6  C   UNL     1       0.110  -4.228   2.638  0.00  0.00    +0.145 C 
ATOM      7  O   UNL     1       0.318  -7.238   0.633  0.00  0.00    -0.282 OA
ENDROOT
BRANCH   6   8
ATOM      8  C   UNL     1       1.285  -3.293   2.766  0.00  0.00    -0.022 A 
ATOM      9  C   UNL     1       2.557  -3.804   2.947  0.00  0.00    +0.009 A 
ATOM     10  C   UNL     1       3.635  -2.950   3.066  0.00  0.00    +0.046 A 
ATOM     11  C   UNL     1       3.442  -1.577   3.003  0.00  0.00    +0.117 A 
ATOM     12  C   UNL     1       2.165  -1.067   2.821  0.00  0.00    +0.046 A 
ATOM     13  C   UNL     1       1.090  -1.926   2.698  0.00  0.00    +0.009 A 
BRANCH  11  14
ATOM     14  O   UNL     1       4.501  -0.734   3.120  0.00  0.00    -0.507 OA
ATOM     15  H   UNL     1       4.923  -0.514   2.279  0.00  0.00    +0.292 HD
ENDBRANCH  11  14
ENDBRANCH   6   8
BRANCH   1  16
ATOM     16  C   UNL     1       0.101  -4.305  -0.021  0.00  0.00    +0.195 C 
ATOM     17  O   UNL     1       1.071  -4.354  -0.754  0.00  0.00    -0.287 OA
BRANCH  16  22
ATOM     18  C   UNL     1      -4.679  -1.605  -1.746  0.00  0.00    +0.044 C 
ATOM     19  C   UNL     1      -3.427  -2.312  -1.294  0.00  0.00    -0.050 A 
ATOM     20  C   UNL     1      -2.304  -2.307  -2.102  0.00  0.00    +0.004 A 
ATOM     21  C   UNL     1      -1.154  -2.951  -1.695  0.00  0.00    +0.012 A 
ATOM     22  C   UNL     1      -1.127  -3.611  -0.464  0.00  0.00    +0.022 A 
ATOM     23  C   UNL     1      -2.264  -3.612   0.346  0.00  0.00    +0.012 A 
ATOM     24  C   UNL     1      -3.405  -2.959  -0.071  0.00  0.00    +0.004 A 
ENDBRANCH  16  22
ENDBRANCH   1  16
BRANCH   5  25
ATOM     25  C   UNL     1       0.172  -5.074   5.109  0.00  0.00    +0.136 C 
BRANCH  25  26
ATOM     26  C   UNL     1       1.585  -4.899   5.603  0.00  0.00    -0.016 C 
ATOM     27  C   UNL     1       1.910  -3.836   6.295  0.00  0.00    +0.005 C 
ENDBRANCH  25  26
ENDBRANCH   5  25
TORSDOF 6
