REMARK  Name = ZINC66456615
REMARK  9 active torsions:
REMARK  status: ('A' for Active; 'I' for Inactive)
REMARK    1  A    between atoms: C_1  and  C_2
REMARK    2  A    between atoms: C_2  and  C_4
REMARK    3  A    between atoms: C_2  and  N_21
REMARK    4  A    between atoms: N_6  and  C_7
REMARK    5  A    between atoms: C_7  and  C_8
REMARK    6  A    between atoms: C_8  and  C_10
REMARK    7  A    between atoms: C_8  and  C_18
REMARK    8  A    between atoms: C_10  and  C_11
REMARK    9  A    between atoms: C_22  and  C_24
REMARK                            x       y       z     vdW  Elec       q    Type
REMARK                         _______ _______ _______ _____ _____    ______ ____
ROOT
ATOM      1  C   UNL     1       1.249   0.648  -0.850  0.00  0.00    +0.233 C 
ATOM      2  O   UNL     1       0.411  -0.059  -1.367  0.00  0.00    -0.274 OA
ATOM      3  N   UNL     1       2.512   0.651  -1.319  0.00  0.00    -0.313 N 
ATOM      4  H   UNL     1       3.182   1.217  -0.905  0.00  0.00    +0.149 HD
ENDROOT
BRANCH   1   6
ATOM      5  C   UNL     1       1.135   2.989  -0.039  0.00  0.00    +0.038 C 
ATOM      6  C   UNL     1       0.878   1.524   0.319  0.00  0.00    +0.156 C 
BRANCH   6   7
ATOM      7  N   UNL     1      -0.541   1.341   0.636  0.00  0.00    -0.300 N 
ATOM      8  C   UNL     1      -0.991   1.590   1.881  0.00  0.00    +0.251 C 
ATOM      9  O   UNL     1      -0.219   1.968   2.743  0.00  0.00    -0.270 OA
ATOM     10  H   UNL     1      -1.156   1.040  -0.051  0.00  0.00    +0.150 HD
BRANCH   8  11
ATOM     11  C   UNL     1      -2.411   1.407   2.198  0.00  0.00    +0.074 A 
ATOM     12  C   UNL     1      -3.071   1.611   3.400  0.00  0.00    +0.021 A 
ATOM     13  C   UNL     1      -4.421   1.352   3.391  0.00  0.00    +0.008 A 
ATOM     14  C   UNL     1      -5.003   0.926   2.242  0.00  0.00    +0.046 A 
ATOM     15  S   UNL     1      -3.739   0.872   1.137  0.00  0.00    -0.092 S 
ENDBRANCH   8  11
ENDBRANCH   6   7
ENDBRANCH   1   6
BRANCH   3  16
ATOM     16  C   UNL     1       2.872  -0.200  -2.456  0.00  0.00    +0.117 C 
BRANCH  16  17
ATOM     17  C   UNL     1       4.354  -0.009  -2.786  0.00  0.00    +0.096 C 
BRANCH  17  18
ATOM     18  C   UNL     1       5.193  -0.503  -1.636  0.00  0.00    +0.215 C 
ATOM     19  O   UNL     1       4.693  -1.193  -0.773  0.00  0.00    -0.276 OA
ATOM     20  N   UNL     1       6.499  -0.178  -1.566  0.00  0.00    -0.329 N 
ATOM     21  H   UNL     1       6.915   0.318  -2.289  0.00  0.00    +0.145 HD
ATOM     22  H   UNL     1       7.024  -0.439  -0.793  0.00  0.00    +0.145 HD
ENDBRANCH  17  18
BRANCH  17  23
ATOM     23  C   UNL     1       4.702  -0.802  -4.048  0.00  0.00    +0.049 C 
BRANCH  23  24
ATOM     24  C   UNL     1       3.960  -0.223  -5.225  0.00  0.00    -0.046 A 
ATOM     25  C   UNL     1       2.763  -0.782  -5.631  0.00  0.00    +0.006 A 
ATOM     26  C   UNL     1       2.082  -0.252  -6.710  0.00  0.00    +0.038 A 
ATOM     27  C   UNL     1       2.599   0.841  -7.385  0.00  0.00    +0.123 A 
ATOM     28  C   UNL     1       3.798   1.401  -6.978  0.00  0.00    +0.038 A 
ATOM     29  C   UNL     1       4.474   0.872  -5.895  0.00  0.00    +0.006 A 
ATOM     30  F   UNL     1       1.934   1.360  -8.440  0.00  0.00    -0.205 F 
ENDBRANCH  23  24
ENDBRANCH  17  23
ENDBRANCH  16  17
ENDBRANCH   3  16
TORSDOF 8
