REMARK  Name = ZINC01846044
REMARK  3 active torsions:
REMARK  status: ('A' for Active; 'I' for Inactive)
REMARK    1  A    between atoms: C_4  and  N_7
REMARK    2  A    between atoms: N_15  and  C_18
REMARK    3  A    between atoms: C_18  and  C_19
REMARK                            x       y       z     vdW  Elec       q    Type
REMARK                         _______ _______ _______ _____ _____    ______ ____
ROOT
ATOM      1  N   UNL     1       3.620  -0.649  -0.036  0.00  0.00    -0.300 N 
ATOM      2  C   UNL     1       4.964  -0.057  -0.040  0.00  0.00    +0.214 C 
ATOM      3  N   UNL     1       5.939  -1.147  -0.057  0.00  0.00    -0.298 N 
ATOM      4  C   UNL     1       5.310  -2.334  -0.064  0.00  0.00    +0.238 C 
ATOM      5  O   UNL     1       5.853  -3.419  -0.078  0.00  0.00    -0.273 OA
ATOM      6  C   UNL     1       3.822  -2.103  -0.046  0.00  0.00    +0.109 C 
ATOM      7  C   UNL     1       3.182  -2.711  -1.294  0.00  0.00    +0.017 C 
ATOM      8  C   UNL     1       3.348  -4.233  -1.255  0.00  0.00    -0.076 C 
ATOM      9  N   UNL     1       2.702  -4.767  -0.050  0.00  0.00    +0.382 N 
ATOM     10  C   UNL     1       3.370  -4.246   1.148  0.00  0.00    -0.076 C 
ATOM     11  C   UNL     1       3.205  -2.725   1.207  0.00  0.00    +0.017 C 
ATOM     12  H   UNL     1       6.902  -1.030  -0.063  0.00  0.00    +0.150 HD
ATOM     13  H   UNL     1       1.732  -4.491  -0.040  0.00  0.00    -0.082 HD
ENDROOT
BRANCH   1  17
ATOM     14  C   UNL     1      -0.017   1.379   0.010  0.00  0.00    +0.000 A 
ATOM     15  C   UNL     1       1.169   2.089   0.002  0.00  0.00    +0.002 A 
ATOM     16  C   UNL     1       2.377   1.420  -0.013  0.00  0.00    +0.023 A 
ATOM     17  C   UNL     1       2.400   0.031  -0.021  0.00  0.00    +0.032 A 
ATOM     18  C   UNL     1       1.206  -0.680  -0.013  0.00  0.00    +0.023 A 
ATOM     19  C   UNL     1       0.002  -0.004   0.002  0.00  0.00    +0.002 A 
ENDBRANCH   1  17
BRANCH   9  20
ATOM     20  C   UNL     1       2.791  -6.234  -0.059  0.00  0.00    -0.030 C 
BRANCH  20  21
ATOM     21  C   UNL     1       2.011  -6.799   1.130  0.00  0.00    +0.194 C 
ATOM     22  C   UNL     1       2.191  -8.322   1.190  0.00  0.00    +0.271 C 
ATOM     23  O   UNL     1       1.439  -8.818   2.302  0.00  0.00    -0.485 OA
ATOM     24  C   UNL     1       0.168  -8.351   2.439  0.00  0.00    +0.162 A 
ATOM     25  C   UNL     1      -0.726  -9.036   3.248  0.00  0.00    +0.049 A 
ATOM     26  C   UNL     1      -2.019  -8.572   3.399  0.00  0.00    +0.004 A 
ATOM     27  C   UNL     1      -2.425  -7.425   2.744  0.00  0.00    +0.004 A 
ATOM     28  C   UNL     1      -1.540  -6.738   1.935  0.00  0.00    +0.049 A 
ATOM     29  C   UNL     1      -0.242  -7.199   1.777  0.00  0.00    +0.162 A 
ATOM     30  O   UNL     1       0.616  -6.517   0.971  0.00  0.00    -0.484 OA
ENDBRANCH  20  21
ENDBRANCH   9  20
TORSDOF 3
