REMARK  Name = ZINC37773629
REMARK  5 active torsions:
REMARK  status: ('A' for Active; 'I' for Inactive)
REMARK    1  A    between atoms: C_1  and  C_2
REMARK    2  A    between atoms: C_2  and  C_4
REMARK    3  A    between atoms: C_2  and  N_10
REMARK    4  A    between atoms: N_10  and  C_11
REMARK    5  A    between atoms: C_13  and  N_18
REMARK                            x       y       z     vdW  Elec       q    Type
REMARK                         _______ _______ _______ _____ _____    ______ ____
ROOT
ATOM      1  C   UNL     1      -0.019  -0.613  -2.402  0.00  0.00    +0.065 A 
ATOM      2  C   UNL     1      -1.369  -0.296  -2.452  0.00  0.00    +0.053 A 
ATOM      3  C   UNL     1      -2.067  -0.432  -3.643  0.00  0.00    +0.071 A 
ATOM      4  C   UNL     1      -1.415  -0.885  -4.782  0.00  0.00    +0.031 A 
ATOM      5  C   UNL     1      -0.070  -1.201  -4.731  0.00  0.00    +0.042 A 
ATOM      6  C   UNL     1       0.631  -1.062  -3.547  0.00  0.00    +0.144 A 
ATOM      7  F   UNL     1       1.946  -1.366  -3.501  0.00  0.00    -0.204 F 
ENDROOT
BRANCH   3   8
ATOM      8  N   UNL     1      -3.432  -0.113  -3.697  0.00  0.00    -0.200 N 
ATOM      9  C   UNL     1      -4.252  -0.194  -4.767  0.00  0.00    +0.250 A 
ATOM     10  N   UNL     1      -5.438   0.198  -4.379  0.00  0.00    -0.116 NA
ATOM     11  N   UNL     1      -5.423   0.521  -3.136  0.00  0.00    -0.023 NA
ATOM     12  N   UNL     1      -4.242   0.355  -2.646  0.00  0.00    -0.039 NA
ENDBRANCH   3   8
BRANCH   1  13
ATOM     13  N   UNL     1       0.688  -0.476  -1.203  0.00  0.00    -0.335 N 
ATOM     14  H   UNL     1       1.632  -0.695  -1.170  0.00  0.00    +0.147 HD
BRANCH  13  16
ATOM     15  C   UNL     1      -0.019   1.526   0.010  0.00  0.00    +0.033 C 
ATOM     16  C   UNL     1       0.002  -0.004   0.002  0.00  0.00    +0.104 C 
BRANCH  16  17
ATOM     17  C   UNL     1       0.731  -0.503   1.223  0.00  0.00    +0.011 A 
ATOM     18  C   UNL     1       0.222  -0.979   2.385  0.00  0.00    +0.014 A 
ATOM     19  C   UNL     1       1.091  -1.386   3.381  0.00  0.00    +0.028 A 
ATOM     20  C   UNL     1       2.427  -1.297   3.164  0.00  0.00    +0.078 A 
ATOM     21  S   UNL     1       2.489  -0.629   1.510  0.00  0.00    -0.080 S 
ATOM     22 CL   UNL     1       3.737  -1.728   4.219  0.00  0.00    -0.076 Cl
ENDBRANCH  16  17
ENDBRANCH  13  16
ENDBRANCH   1  13
TORSDOF 4
