REMARK  Name = ZINC35617517
REMARK  14 active torsions:
REMARK  status: ('A' for Active; 'I' for Inactive)
REMARK    1  A    between atoms: C_1  and  C_2
REMARK    2  A    between atoms: C_2  and  C_3
REMARK    3  A    between atoms: C_3  and  N_4
REMARK    4  A    between atoms: N_8  and  C_20
REMARK    5  A    between atoms: C_11  and  C_16
REMARK    6  A    between atoms: C_16  and  C_17
REMARK    7  A    between atoms: C_16  and  C_18
REMARK    8  A    between atoms: C_16  and  C_19
REMARK    9  A    between atoms: C_20  and  C_21
REMARK   10  A    between atoms: N_23  and  C_24
REMARK   11  A    between atoms: C_24  and  C_25
REMARK   12  A    between atoms: C_25  and  N_26
REMARK   13  A    between atoms: N_26  and  C_27
REMARK   14  A    between atoms: N_26  and  C_28
REMARK                            x       y       z     vdW  Elec       q    Type
REMARK                         _______ _______ _______ _____ _____    ______ ____
ROOT
ATOM      1  N   UNL     1      -1.413  -1.998   0.005  0.00  0.00    -0.292 N 
ATOM      2  C   UNL     1      -1.407  -2.854  -1.188  0.00  0.00    +0.151 C 
ATOM      3  C   UNL     1      -1.385  -4.276  -0.684  0.00  0.00    +0.065 A 
ATOM      4  C   UNL     1      -1.379  -4.216   0.675  0.00  0.00    +0.116 A 
ATOM      5  N   UNL     1      -1.359  -5.382   1.400  0.00  0.00    -0.312 N 
ATOM      6  C   UNL     1      -1.345  -6.601   0.753  0.00  0.00    +0.142 A 
ATOM      7  C   UNL     1      -1.325  -7.883   1.216  0.00  0.00    +0.072 A 
ATOM      8  C   UNL     1      -1.319  -8.738   0.113  0.00  0.00    +0.071 A 
ATOM      9  N   UNL     1      -1.334  -8.013  -0.978  0.00  0.00    -0.166 NA
ATOM     10  N   UNL     1      -1.351  -6.662  -0.612  0.00  0.00    -0.179 N 
ATOM     11  C   UNL     1      -1.370  -5.527  -1.340  0.00  0.00    +0.280 A 
ATOM     12  O   UNL     1      -1.375  -5.580  -2.556  0.00  0.00    -0.265 OA
ATOM     13  C   UNL     1      -1.392  -2.795   1.089  0.00  0.00    +0.264 C 
ATOM     14  O   UNL     1      -1.386  -2.404   2.240  0.00  0.00    -0.268 OA
ENDROOT
BRANCH   8  15
ATOM     15  C   UNL     1      -1.297 -10.244   0.168  0.00  0.00    +0.006 C 
ATOM     16  C   UNL     1      -2.681 -10.759   0.567  0.00  0.00    +0.017 C 
ATOM     17  C   UNL     1      -0.922 -10.799  -1.208  0.00  0.00    +0.017 C 
ATOM     18  C   UNL     1      -0.265 -10.701   1.201  0.00  0.00    +0.017 C 
ENDBRANCH   8  15
BRANCH   1  19
ATOM     19  C   UNL     1      -1.433  -0.534   0.013  0.00  0.00    +0.108 C 
BRANCH  19  21
ATOM     20  C   UNL     1      -0.019   1.526   0.010  0.00  0.00    +0.005 C 
ATOM     21  C   UNL     1       0.002  -0.004   0.002  0.00  0.00    +0.016 C 
ENDBRANCH  19  21
ENDBRANCH   1  19
BRANCH   5  22
ATOM     22  C   UNL     1      -1.353  -5.332   2.864  0.00  0.00    +0.219 C 
BRANCH  22  23
ATOM     23  C   UNL     1      -2.771  -5.335   3.373  0.00  0.00    +0.233 C 
ATOM     24  O   UNL     1      -3.696  -5.374   2.590  0.00  0.00    -0.274 OA
ATOM     25  N   UNL     1      -3.011  -5.293   4.698  0.00  0.00    -0.316 N 
ATOM     26  H   UNL     1      -2.271  -5.261   5.325  0.00  0.00    +0.149 HD
BRANCH  25  27
ATOM     27  C   UNL     1      -4.390  -5.295   5.193  0.00  0.00    +0.085 C 
BRANCH  27  28
ATOM     28  C   UNL     1      -4.383  -5.243   6.722  0.00  0.00    -0.061 C 
BRANCH  28  29
ATOM     29  N   UNL     1      -5.766  -5.245   7.219  0.00  0.00    +0.377 N 
ATOM     30  C   UNL     1      -5.760  -5.316   8.686  0.00  0.00    -0.097 C 
ATOM     31  C   UNL     1      -6.442  -4.013   6.791  0.00  0.00    -0.097 C 
ATOM     32  H   UNL     1      -6.256  -6.045   6.846  0.00  0.00    -0.083 HD
ENDBRANCH  28  29
ENDBRANCH  27  28
ENDBRANCH  25  27
ENDBRANCH  22  23
ENDBRANCH   5  22
TORSDOF 8
