REMARK  Name = ZINC45091504
REMARK  6 active torsions:
REMARK  status: ('A' for Active; 'I' for Inactive)
REMARK    1  A    between atoms: C_1  and  C_2
REMARK    2  A    between atoms: C_2  and  C_3
REMARK    3  A    between atoms: C_3  and  C_5
REMARK    4  A    between atoms: C_3  and  C_9
REMARK    5  A    between atoms: N_6  and  O_7
REMARK    6  A    between atoms: C_15  and  C_17
REMARK                            x       y       z     vdW  Elec       q    Type
REMARK                         _______ _______ _______ _____ _____    ______ ____
ROOT
ATOM      1  C   UNL     1       1.700   0.400  -1.543  0.00  0.00    +0.226 C 
ATOM      2  O   UNL     1       2.442  -0.528  -1.787  0.00  0.00    -0.275 OA
ATOM      3  N   UNL     1       2.210   1.604  -1.216  0.00  0.00    -0.298 N 
ATOM      4  C   UNL     1       1.429   2.827  -0.959  0.00  0.00    +0.108 C 
ATOM      5  C   UNL     1       2.340   3.697  -0.058  0.00  0.00    +0.021 C 
ATOM      6  C   UNL     1       3.742   3.400  -0.652  0.00  0.00    +0.024 C 
ATOM      7  C   UNL     1       3.638   1.912  -1.049  0.00  0.00    +0.079 C 
ENDROOT
BRANCH   7   8
ATOM      8  C   UNL     1       4.379   1.675  -2.366  0.00  0.00    +0.010 C 
ATOM      9  C   UNL     1       4.464   0.163  -2.660  0.00  0.00    +0.005 C 
ATOM     10  C   UNL     1       5.864  -0.022  -3.297  0.00  0.00    +0.000 C 
ATOM     11  C   UNL     1       6.742   0.963  -2.486  0.00  0.00    +0.000 C 
ATOM     12  C   UNL     1       5.827   2.184  -2.256  0.00  0.00    +0.005 C 
ENDBRANCH   7   8
BRANCH   1  13
ATOM     13  C   UNL     1       0.206   0.207  -1.608  0.00  0.00    +0.141 C 
BRANCH  13  14
ATOM     14  C   UNL     1      -0.263   0.387  -3.028  0.00  0.00    +0.144 C 
ATOM     15  N   UNL     1      -0.407  -0.641  -3.796  0.00  0.00    -0.076 NA
ATOM     16  N   UNL     1      -0.538   1.649  -3.508  0.00  0.00    -0.343 N 
ATOM     17  H   UNL     1      -0.430   2.421  -2.931  0.00  0.00    +0.144 HD
ATOM     18  H   UNL     1      -0.840   1.765  -4.422  0.00  0.00    +0.144 HD
BRANCH  15  19
ATOM     19  O   UNL     1      -0.848  -0.472  -5.131  0.00  0.00    -0.408 OA
ATOM     20  H   UNL     1      -0.925  -1.298  -5.628  0.00  0.00    +0.328 HD
ENDBRANCH  15  19
ENDBRANCH  13  14
BRANCH  13  22
ATOM     21  C   UNL     1       0.201  -1.339   0.355  0.00  0.00    +0.005 C 
ATOM     22  C   UNL     1      -0.147  -1.203  -1.129  0.00  0.00    +0.017 C 
ENDBRANCH  13  22
ENDBRANCH   1  13
TORSDOF 5
