REMARK  Name = ZINC40363779
REMARK  5 active torsions:
REMARK  status: ('A' for Active; 'I' for Inactive)
REMARK    1  A    between atoms: C_2  and  S_7
REMARK    2  A    between atoms: S_7  and  N_10
REMARK    3  A    between atoms: N_10  and  C_11
REMARK    4  A    between atoms: C_11  and  C_16
REMARK    5  A    between atoms: C_16  and  N_18
REMARK                            x       y       z     vdW  Elec       q    Type
REMARK                         _______ _______ _______ _____ _____    ______ ____
ROOT
ATOM      1  N   UNL     1       1.889   3.896   1.461  0.00  0.00    -0.178 NA
ATOM      2  H   UNL     1       1.194   3.409   0.991  0.00  0.00    +0.149 HD
ENDROOT
BRANCH   1   3
ATOM      3  C   UNL     1       2.823   3.179   2.333  0.00  0.00    +0.084 C 
ATOM      4  C   UNL     1       2.522   1.659   2.317  0.00  0.00    +0.030 C 
ATOM      5  C   UNL     1       1.335   1.536   3.304  0.00  0.00    +0.002 C 
ATOM      6  C   UNL     1       1.666   2.546   4.422  0.00  0.00    +0.002 C 
ATOM      7  C   UNL     1       2.612   3.591   3.805  0.00  0.00    +0.030 C 
BRANCH   3   8
ATOM      8  C   UNL     1       4.246   3.442   1.911  0.00  0.00    +0.068 C 
ATOM      9  S   UNL     1       5.308   3.987   2.975  0.00  0.00    -0.039 S 
BRANCH   8  10
ATOM     10  N   UNL     1       4.622   3.218   0.636  0.00  0.00    -0.354 N 
ATOM     11  H   UNL     1       3.963   2.958  -0.026  0.00  0.00    +0.143 HD
ATOM     12  H   UNL     1       5.553   3.318   0.381  0.00  0.00    +0.143 HD
ENDBRANCH   8  10
ENDBRANCH   3   8
ENDBRANCH   1   3
BRANCH   1  13
ATOM     13  S   UNL     1       2.021   5.536   1.278  0.00  0.00    +0.062 S 
ATOM     14  O   UNL     1       2.174   6.079   2.582  0.00  0.00    -0.153 OA
ATOM     15  O   UNL     1       0.972   5.933   0.406  0.00  0.00    -0.153 OA
BRANCH  13  17
ATOM     16  C   UNL     1       3.713   5.788  -0.916  0.00  0.00    +0.133 A 
ATOM     17  C   UNL     1       3.530   5.846   0.423  0.00  0.00    +0.142 A 
ATOM     18  C   UNL     1       4.751   6.195   1.009  0.00  0.00    +0.162 A 
ATOM     19  N   UNL     1       5.635   6.341   0.056  0.00  0.00    -0.180 NA
ATOM     20  N   UNL     1       5.004   6.090  -1.169  0.00  0.00    -0.283 N 
ATOM     21  H   UNL     1       5.421   6.126  -2.044  0.00  0.00    +0.188 HD
ENDBRANCH  13  17
ENDBRANCH   1  13
TORSDOF 5
