REMARK  Name = ZINC39668870
REMARK  8 active torsions:
REMARK  status: ('A' for Active; 'I' for Inactive)
REMARK    1  A    between atoms: C_1  and  C_2
REMARK    2  A    between atoms: C_2  and  C_3
REMARK    3  A    between atoms: C_3  and  C_4
REMARK    4  A    between atoms: C_4  and  C_6
REMARK    5  A    between atoms: C_4  and  C_7
REMARK    6  A    between atoms: C_11  and  C_20
REMARK    7  A    between atoms: N_22  and  C_23
REMARK    8  A    between atoms: C_23  and  C_24
REMARK                            x       y       z     vdW  Elec       q    Type
REMARK                         _______ _______ _______ _____ _____    ______ ____
ROOT
ATOM      1  C   UNL     1       1.777  -2.439  -2.209  0.00  0.00    +0.218 C 
ATOM      2  O   UNL     1       2.457  -1.707  -2.897  0.00  0.00    -0.275 OA
ATOM      3  N   UNL     1       1.728  -3.760  -2.475  0.00  0.00    -0.300 N 
ATOM      4  C   UNL     1       0.876  -4.785  -1.829  0.00  0.00    +0.121 C 
ATOM      5  C   UNL     1       0.438  -5.714  -2.984  0.00  0.00    +0.100 C 
ATOM      6  C   UNL     1       1.518  -5.532  -4.064  0.00  0.00    -0.004 C 
ATOM      7  C   UNL     1       2.509  -4.513  -3.485  0.00  0.00    +0.115 C 
ATOM      8  C   UNL     1       0.896  -4.986  -5.346  0.00  0.00    -0.010 C 
ATOM      9  C   UNL     1       1.979  -4.869  -6.422  0.00  0.00    -0.082 C 
ATOM     10  N   UNL     1       2.574  -6.188  -6.666  0.00  0.00    +0.379 N 
ATOM     11  C   UNL     1       3.250  -6.665  -5.454  0.00  0.00    -0.082 C 
ATOM     12  C   UNL     1       2.221  -6.859  -4.336  0.00  0.00    -0.010 C 
ATOM     13  H   UNL     1       1.848  -6.840  -6.924  0.00  0.00    -0.086 HD
ATOM     14  H   UNL     1       3.244  -6.120  -7.418  0.00  0.00    -0.086 HD
ENDROOT
BRANCH   5  15
ATOM     15  C   UNL     1      -0.910  -5.295  -3.511  0.00  0.00    +0.218 C 
ATOM     16  O   UNL     1      -1.278  -4.146  -3.390  0.00  0.00    -0.275 OA
ATOM     17  N   UNL     1      -1.707  -6.198  -4.117  0.00  0.00    -0.312 N 
ATOM     18  H   UNL     1      -1.413  -7.117  -4.213  0.00  0.00    +0.149 HD
BRANCH  17  19
ATOM     19  C   UNL     1      -3.018  -5.791  -4.629  0.00  0.00    +0.140 C 
BRANCH  19  20
ATOM     20  C   UNL     1      -3.713  -6.996  -5.265  0.00  0.00    +0.165 C 
ATOM     21  C   UNL     1      -5.001  -6.548  -5.905  0.00  0.00    -0.014 A 
ATOM     22  C   UNL     1      -5.003  -5.379  -6.651  0.00  0.00    +0.006 A 
ATOM     23  C   UNL     1      -6.164  -4.941  -7.256  0.00  0.00    +0.000 A 
ATOM     24  C   UNL     1      -7.330  -5.670  -7.119  0.00  0.00    +0.000 A 
ATOM     25  C   UNL     1      -7.330  -6.834  -6.376  0.00  0.00    +0.004 A 
ATOM     26  C   UNL     1      -6.166  -7.273  -5.765  0.00  0.00    -0.040 A 
ATOM     27  C   UNL     1      -6.208  -8.541  -4.951  0.00  0.00    +0.063 C 
ATOM     28  C   UNL     1      -4.786  -9.059  -4.728  0.00  0.00    +0.165 C 
ATOM     29  O   UNL     1      -3.979  -7.973  -4.259  0.00  0.00    -0.370 OA
ENDBRANCH  19  20
ENDBRANCH  17  19
ENDBRANCH   5  15
BRANCH   1  30
ATOM     30  C   UNL     1       0.987  -1.873  -1.058  0.00  0.00    +0.072 C 
ATOM     31  C   UNL     1       0.493  -0.470  -1.419  0.00  0.00    +0.017 C 
BRANCH  30  32
ATOM     32  C   UNL     1       1.879  -1.795   0.183  0.00  0.00    +0.012 C 
BRANCH  32  34
ATOM     33  C   UNL     1       1.938  -1.260   2.623  0.00  0.00    +0.004 C 
ATOM     34  C   UNL     1       1.046  -1.338   1.382  0.00  0.00    -0.003 C 
ENDBRANCH  32  34
ENDBRANCH  30  32
ENDBRANCH   1  30
TORSDOF 6
