REMARK  Name = ZINC02109563
REMARK  9 active torsions:
REMARK  status: ('A' for Active; 'I' for Inactive)
REMARK    1  A    between atoms: C_1  and  C_2
REMARK    2  A    between atoms: C_2  and  C_29
REMARK    3  A    between atoms: C_10  and  C_15
REMARK    4  A    between atoms: C_16  and  C_17
REMARK    5  A    between atoms: C_20  and  O_25
REMARK    6  A    between atoms: C_21  and  O_23
REMARK    7  A    between atoms: O_23  and  C_24
REMARK    8  A    between atoms: O_25  and  C_26
REMARK    9  A    between atoms: C_26  and  C_27
REMARK                            x       y       z     vdW  Elec       q    Type
REMARK                         _______ _______ _______ _____ _____    ______ ____
ROOT
ATOM      1  C   UNL     1      -1.053   5.227   1.308  0.00  0.00    +0.020 C 
ATOM      2  C   UNL     1      -0.376   3.912   0.916  0.00  0.00    +0.034 C 
ATOM      3  C   UNL     1       0.436   3.362   2.072  0.00  0.00    -0.017 A 
ATOM      4  C   UNL     1       1.318   3.971   2.941  0.00  0.00    +0.006 A 
ATOM      5  C   UNL     1       1.935   3.231   3.934  0.00  0.00    +0.000 A 
ATOM      6  C   UNL     1       1.666   1.879   4.053  0.00  0.00    +0.002 A 
ATOM      7  C   UNL     1       0.788   1.266   3.184  0.00  0.00    +0.023 A 
ATOM      8  C   UNL     1       0.165   2.004   2.179  0.00  0.00    +0.036 A 
ATOM      9  N   UNL     1      -0.748   1.585   1.194  0.00  0.00    -0.296 N 
ATOM     10  C   UNL     1      -1.427   2.806   0.677  0.00  0.00    +0.131 C 
ATOM     11  N   UNL     1      -1.598   2.600  -0.764  0.00  0.00    -0.289 N 
ATOM     12  C   UNL     1      -0.786   1.608  -1.182  0.00  0.00    +0.232 C 
ATOM     13  O   UNL     1      -0.692   1.202  -2.321  0.00  0.00    -0.274 OA
ATOM     14  C   UNL     1      -0.013   1.086   0.008  0.00  0.00    +0.203 C 
ATOM     15  C   UNL     1       0.503   4.101  -0.322  0.00  0.00    +0.020 C 
ATOM     16  H   UNL     1      -2.203   3.102  -1.332  0.00  0.00    +0.151 HD
ENDROOT
BRANCH  10  17
ATOM     17  C   UNL     1      -2.732   3.087   1.377  0.00  0.00    +0.020 C 
ATOM     18  C   UNL     1      -3.857   3.156   0.679  0.00  0.00    +0.007 C 
BRANCH  18  19
ATOM     19  C   UNL     1      -5.137   3.431   1.366  0.00  0.00    -0.022 A 
ATOM     20  C   UNL     1      -5.162   3.619   2.749  0.00  0.00    +0.012 A 
ATOM     21  C   UNL     1      -6.357   3.876   3.388  0.00  0.00    +0.050 A 
ATOM     22  C   UNL     1      -7.535   3.948   2.660  0.00  0.00    +0.162 A 
ATOM     23  C   UNL     1      -7.517   3.762   1.280  0.00  0.00    +0.162 A 
ATOM     24  C   UNL     1      -6.321   3.510   0.632  0.00  0.00    +0.057 A 
BRANCH  23  25
ATOM     25  O   UNL     1      -8.673   3.834   0.568  0.00  0.00    -0.491 OA
ATOM     26  C   UNL     1      -8.580   3.633  -0.844  0.00  0.00    +0.277 C 
ENDBRANCH  23  25
BRANCH  22  27
ATOM     27  O   UNL     1      -8.711   4.201   3.294  0.00  0.00    -0.484 OA
BRANCH  27  28
ATOM     28  C   UNL     1      -8.657   4.382   4.711  0.00  0.00    +0.256 C 
BRANCH  28  29
ATOM     29  C   UNL     1     -10.044   4.651   5.236  0.00  0.00    +0.006 C 
ATOM     30  C   UNL     1     -10.467   4.037   6.313  0.00  0.00    +0.007 C 
ENDBRANCH  28  29
ENDBRANCH  27  28
ENDBRANCH  22  27
ENDBRANCH  18  19
ENDBRANCH  10  17
TORSDOF 6
