REMARK  Name = ZINC27987271
REMARK  8 active torsions:
REMARK  status: ('A' for Active; 'I' for Inactive)
REMARK    1  A    between atoms: C_4  and  C_7
REMARK    2  A    between atoms: C_7  and  N_8
REMARK    3  A    between atoms: N_8  and  C_9
REMARK    4  A    between atoms: C_9  and  C_11
REMARK    5  A    between atoms: C_9  and  P_34
REMARK    6  A    between atoms: N_13  and  C_28
REMARK    7  A    between atoms: C_15  and  C_16
REMARK    8  A    between atoms: C_19  and  C_22
REMARK                            x       y       z     vdW  Elec       q    Type
REMARK                         _______ _______ _______ _____ _____    ______ ____
ROOT
ATOM      1  C   UNL     1       5.218  -3.045  -2.369  0.00  0.00    -0.004 A 
ATOM      2  C   UNL     1       4.277  -3.246  -3.317  0.00  0.00    +0.117 A 
ATOM      3  N   UNL     1       4.758  -4.167  -4.193  0.00  0.00    -0.239 N 
ATOM      4  N   UNL     1       6.039  -4.542  -3.767  0.00  0.00    -0.166 NA
ATOM      5  C   UNL     1       6.322  -3.866  -2.673  0.00  0.00    +0.095 A 
ENDROOT
BRANCH   5   6
ATOM      6  C   UNL     1       7.581  -3.955  -1.895  0.00  0.00    +0.002 A 
ATOM      7  C   UNL     1       8.197  -2.794  -1.430  0.00  0.00    +0.011 A 
ATOM      8  C   UNL     1       9.364  -2.877  -0.702  0.00  0.00    +0.009 A 
ATOM      9  C   UNL     1       9.935  -4.122  -0.441  0.00  0.00    -0.018 A 
ATOM     10  C   UNL     1       9.322  -5.283  -0.910  0.00  0.00    +0.009 A 
ATOM     11  C   UNL     1       8.152  -5.200  -1.633  0.00  0.00    +0.011 A 
BRANCH   9  12
ATOM     12  C   UNL     1      11.195  -4.212   0.337  0.00  0.00    -0.018 A 
ATOM     13  C   UNL     1      11.764  -5.455   0.605  0.00  0.00    +0.008 A 
ATOM     14  C   UNL     1      12.939  -5.532   1.326  0.00  0.00    +0.001 A 
ATOM     15  C   UNL     1      13.546  -4.379   1.790  0.00  0.00    +0.000 A 
ATOM     16  C   UNL     1      12.982  -3.142   1.531  0.00  0.00    +0.001 A 
ATOM     17  C   UNL     1      11.810  -3.053   0.807  0.00  0.00    +0.008 A 
ENDBRANCH   9  12
ENDBRANCH   5   6
BRANCH   3  18
ATOM     18  C   UNL     1       4.090  -4.655  -5.323  0.00  0.00    +0.065 A 
ATOM     19  C   UNL     1       2.814  -4.201  -5.628  0.00  0.00    +0.028 A 
ATOM     20  C   UNL     1       2.161  -4.680  -6.747  0.00  0.00    +0.002 A 
ATOM     21  C   UNL     1       2.772  -5.620  -7.556  0.00  0.00    +0.000 A 
ATOM     22  C   UNL     1       4.040  -6.080  -7.252  0.00  0.00    +0.002 A 
ATOM     23  C   UNL     1       4.701  -5.600  -6.138  0.00  0.00    +0.028 A 
ENDBRANCH   3  18
BRANCH   1  24
ATOM     24  C   UNL     1       5.108  -2.103  -1.197  0.00  0.00    +0.084 C 
BRANCH  24  25
ATOM     25  P   UNL     1       3.922  -0.776  -1.592  0.00  0.00    +0.378 P 
ATOM     26  O   UNL     1       2.603  -1.370  -1.904  0.00  0.00    -0.255 OA
ATOM     27  O   UNL     1       3.781   0.211  -0.328  0.00  0.00    -0.140 OA
ATOM     28  O   UNL     1       4.451   0.055  -2.866  0.00  0.00    -0.140 OA
ENDBRANCH  24  25
BRANCH  24  29
ATOM     29  N   UNL     1       4.641  -2.842  -0.017  0.00  0.00    +0.394 N 
ATOM     30  H   UNL     1       4.740  -3.920  -0.214  0.00  0.00    -0.084 HD
ATOM     31  H   UNL     1       3.582  -2.598   0.156  0.00  0.00    -0.084 HD
BRANCH  29  32
ATOM     32  C   UNL     1       5.426  -2.487   1.172  0.00  0.00    -0.045 C 
BRANCH  32  36
ATOM     33  C   UNL     1       3.988  -4.687   4.539  0.00  0.00    +0.000 A 
ATOM     34  C   UNL     1       3.449  -3.450   4.241  0.00  0.00    +0.000 A 
ATOM     35  C   UNL     1       3.915  -2.738   3.151  0.00  0.00    +0.002 A 
ATOM     36  C   UNL     1       4.919  -3.263   2.360  0.00  0.00    -0.064 A 
ATOM     37  C   UNL     1       5.458  -4.501   2.659  0.00  0.00    +0.002 A 
ATOM     38  C   UNL     1       4.992  -5.213   3.748  0.00  0.00    +0.000 A 
ENDBRANCH  32  36
ENDBRANCH  29  32
ENDBRANCH  24  29
ENDBRANCH   1  24
TORSDOF 8
