REMARK  Name = ZINC51710586
REMARK  6 active torsions:
REMARK  status: ('A' for Active; 'I' for Inactive)
REMARK    1  A    between atoms: C_1  and  C_2
REMARK    2  A    between atoms: C_2  and  C_4
REMARK    3  A    between atoms: C_2  and  N_18
REMARK    4  A    between atoms: C_7  and  O_11
REMARK    5  A    between atoms: O_11  and  C_12
REMARK    6  A    between atoms: C_25  and  C_28
REMARK                            x       y       z     vdW  Elec       q    Type
REMARK                         _______ _______ _______ _____ _____    ______ ____
ROOT
ATOM      1  C   UNL     1      -0.243   1.627  -0.284  0.00  0.00    +0.033 C 
ATOM      2  C   UNL     1      -0.253   0.097  -0.239  0.00  0.00    +0.102 C 
ENDROOT
BRANCH   2   3
ATOM      3  N   UNL     1       0.374  -0.359   1.004  0.00  0.00    -0.293 N 
ATOM      4  C   UNL     1      -0.356  -0.450   2.133  0.00  0.00    +0.303 C 
ATOM      5  O   UNL     1      -1.555  -0.250   2.099  0.00  0.00    -0.253 OA
ATOM      6  N   UNL     1       0.243  -0.762   3.299  0.00  0.00    -0.280 N 
ATOM      7  C   UNL     1       1.673  -1.106   3.348  0.00  0.00    +0.137 C 
ATOM      8  C   UNL     1       2.337  -0.256   4.438  0.00  0.00    +0.180 C 
ATOM      9  O   UNL     1       1.607  -0.401   5.658  0.00  0.00    -0.364 OA
ATOM     10  C   UNL     1       0.257   0.065   5.591  0.00  0.00    +0.221 C 
ATOM     11  C   UNL     1      -0.512  -0.763   4.562  0.00  0.00    +0.150 C 
ATOM     12  H   UNL     1       1.315  -0.595   1.014  0.00  0.00    +0.151 HD
BRANCH  10  13
ATOM     13  C   UNL     1      -0.392  -0.079   6.944  0.00  0.00    +0.241 C 
ATOM     14  O   UNL     1       0.207  -0.617   7.850  0.00  0.00    -0.273 OA
ATOM     15  N   UNL     1      -1.639   0.392   7.146  0.00  0.00    -0.327 N 
ATOM     16  H   UNL     1      -2.118   0.823   6.421  0.00  0.00    +0.145 HD
ATOM     17  H   UNL     1      -2.057   0.300   8.016  0.00  0.00    +0.145 HD
ENDBRANCH  10  13
ENDBRANCH   2   3
BRANCH   2  18
ATOM     18  C   UNL     1       0.515  -0.445  -1.418  0.00  0.00    -0.024 A 
ATOM     19  C   UNL     1       1.896  -0.492  -1.379  0.00  0.00    +0.009 A 
ATOM     20  C   UNL     1       2.603  -0.988  -2.457  0.00  0.00    +0.049 A 
ATOM     21  C   UNL     1       1.927  -1.440  -3.580  0.00  0.00    +0.163 A 
ATOM     22  C   UNL     1       0.539  -1.392  -3.618  0.00  0.00    +0.166 A 
ATOM     23  C   UNL     1      -0.164  -0.899  -2.533  0.00  0.00    +0.047 A 
ATOM     24  F   UNL     1      -0.123  -1.831  -4.711  0.00  0.00    -0.202 F 
BRANCH  21  25
ATOM     25  O   UNL     1       2.621  -1.928  -4.643  0.00  0.00    -0.453 OA
BRANCH  25  26
ATOM     26  C   UNL     1       3.978  -1.871  -4.599  0.00  0.00    +0.129 A 
ATOM     27  C   UNL     1       4.687  -2.779  -3.827  0.00  0.00    +0.046 A 
ATOM     28  C   UNL     1       6.067  -2.719  -3.785  0.00  0.00    +0.004 A 
ATOM     29  C   UNL     1       6.740  -1.754  -4.511  0.00  0.00    +0.000 A 
ATOM     30  C   UNL     1       6.035  -0.848  -5.282  0.00  0.00    +0.004 A 
ATOM     31  C   UNL     1       4.656  -0.907  -5.332  0.00  0.00    +0.046 A 
ENDBRANCH  25  26
ENDBRANCH  21  25
ENDBRANCH   2  18
TORSDOF 5
