REMARK  Name = ZINC20132021
REMARK  7 active torsions:
REMARK  status: ('A' for Active; 'I' for Inactive)
REMARK    1  A    between atoms: C_1  and  C_2
REMARK    2  A    between atoms: C_7  and  N_8
REMARK    3  A    between atoms: C_10  and  C_22
REMARK    4  A    between atoms: C_13  and  C_20
REMARK    5  A    between atoms: C_16  and  C_19
REMARK    6  A    between atoms: C_20  and  O_21
REMARK    7  A    between atoms: C_22  and  N_24
REMARK                            x       y       z     vdW  Elec       q    Type
REMARK                         _______ _______ _______ _____ _____    ______ ____
ROOT
ATOM      1  N   UNL     1      -2.414   1.491   0.022  0.00  0.00    -0.325 N 
ATOM      2  C   UNL     1      -3.557   2.133   0.130  0.00  0.00    +0.209 A 
ATOM      3  C   UNL     1      -4.833   1.397   0.244  0.00  0.00    +0.064 A 
ATOM      4  C   UNL     1      -5.876   2.039   0.897  0.00  0.00    +0.027 A 
ATOM      5  C   UNL     1      -5.617   3.386   1.410  0.00  0.00    +0.027 A 
ATOM      6  C   UNL     1      -6.495   4.016   2.300  0.00  0.00    +0.007 A 
ATOM      7  C   UNL     1      -6.183   5.285   2.743  0.00  0.00    +0.117 A 
ATOM      8  N   UNL     1      -5.084   5.898   2.343  0.00  0.00    -0.256 NA
ATOM      9  C   UNL     1      -4.228   5.347   1.506  0.00  0.00    +0.081 A 
ATOM     10  C   UNL     1      -4.458   4.074   1.005  0.00  0.00    +0.159 A 
ATOM     11  O   UNL     1      -3.595   3.490   0.145  0.00  0.00    -0.437 OA
ATOM     12  C   UNL     1      -2.993   6.104   1.091  0.00  0.00    +0.069 C 
ATOM     13  H   UNL     1      -2.406   0.396  -0.081  0.00  0.00    +0.169 HD
ENDROOT
BRANCH   1  20
ATOM     14  C   UNL     1      -1.232   2.032   2.548  0.00  0.00    +0.046 C 
ATOM     15  C   UNL     1      -0.610   2.479   1.250  0.00  0.00    -0.027 A 
ATOM     16  C   UNL     1       0.582   3.174   1.258  0.00  0.00    +0.007 A 
ATOM     17  C   UNL     1       1.155   3.585   0.067  0.00  0.00    +0.020 A 
ATOM     18  C   UNL     1       0.537   3.301  -1.140  0.00  0.00    +0.043 A 
ATOM     19  C   UNL     1      -0.655   2.607  -1.162  0.00  0.00    +0.046 A 
ATOM     20  C   UNL     1      -1.236   2.185   0.036  0.00  0.00    +0.046 A 
ATOM     21 CL   UNL     1       1.265   3.821  -2.628  0.00  0.00    -0.083 Cl
ENDBRANCH   1  20
BRANCH   3  22
ATOM     22  C   UNL     1      -4.991   0.043  -0.310  0.00  0.00    +0.082 C 
ATOM     23  S   UNL     1      -6.487  -0.776  -0.156  0.00  0.00    -0.035 S 
BRANCH  22  24
ATOM     24  N   UNL     1      -3.958  -0.553  -0.938  0.00  0.00    -0.352 N 
ATOM     25  H   UNL     1      -4.076  -1.566  -1.352  0.00  0.00    +0.143 HD
ATOM     26  H   UNL     1      -2.997  -0.027  -1.036  0.00  0.00    +0.143 HD
ENDBRANCH  22  24
ENDBRANCH   3  22
BRANCH   6  27
ATOM     27  C   UNL     1      -7.751   3.325   2.763  0.00  0.00    +0.193 C 
BRANCH  27  28
ATOM     28  O   UNL     1      -8.463   4.181   3.660  0.00  0.00    -0.390 OA
ATOM     29  H   UNL     1      -9.411   3.845   4.104  0.00  0.00    +0.210 HD
ENDBRANCH  27  28
ENDBRANCH   6  27
TORSDOF 5
