REMARK  Name = ZINC54044259
REMARK  10 active torsions:
REMARK  status: ('A' for Active; 'I' for Inactive)
REMARK    1  A    between atoms: C_1  and  C_2
REMARK    2  A    between atoms: C_2  and  C_3
REMARK    3  A    between atoms: C_6  and  C_9
REMARK    4  A    between atoms: C_9  and  C_11
REMARK    5  A    between atoms: C_9  and  N_27
REMARK    6  A    between atoms: C_11  and  N_12
REMARK    7  A    between atoms: N_15  and  N_16
REMARK    8  A    between atoms: C_17  and  C_19
REMARK    9  A    between atoms: N_27  and  C_28
REMARK   10  A    between atoms: N_27  and  C_29
REMARK                            x       y       z     vdW  Elec       q    Type
REMARK                         _______ _______ _______ _____ _____    ______ ____
ROOT
ATOM      1  N   UNL     1       1.739  -0.176  -5.963  0.00  0.00    -0.299 N 
ATOM      2  C   UNL     1       1.855   0.932  -6.721  0.00  0.00    +0.316 C 
ATOM      3  O   UNL     1       2.953   1.399  -6.952  0.00  0.00    -0.251 OA
ATOM      4  N   UNL     1       0.752   1.523  -7.223  0.00  0.00    -0.218 N 
ATOM      5  H   UNL     1       0.863  -0.549  -5.779  0.00  0.00    +0.150 HD
ATOM      6  H   UNL     1       0.835   2.321  -7.769  0.00  0.00    +0.174 HD
ENDROOT
BRANCH   4   7
ATOM      7  N   UNL     1      -0.513   0.985  -6.958  0.00  0.00    -0.233 N 
ATOM      8  C   UNL     1      -1.616   1.575  -7.460  0.00  0.00    +0.234 C 
ATOM      9  O   UNL     1      -1.512   2.573  -8.142  0.00  0.00    -0.274 OA
ATOM     10  H   UNL     1      -0.597   0.187  -6.412  0.00  0.00    +0.173 HD
BRANCH   8  11
ATOM     11  C   UNL     1      -2.978   0.997  -7.174  0.00  0.00    +0.099 C 
ATOM     12  C   UNL     1      -3.224   0.997  -5.656  0.00  0.00    +0.037 C 
ATOM     13  C   UNL     1      -4.731   0.697  -5.410  0.00  0.00    +0.166 C 
ATOM     14  S   UNL     1      -5.498   1.701  -6.751  0.00  0.00    -0.030 S 
ATOM     15  O   UNL     1      -5.817   2.988  -6.240  0.00  0.00    -0.174 OA
ATOM     16  O   UNL     1      -6.510   0.930  -7.385  0.00  0.00    -0.174 OA
ATOM     17  C   UNL     1      -4.057   1.849  -7.884  0.00  0.00    +0.178 C 
ENDBRANCH   8  11
ENDBRANCH   4   7
BRANCH   1  18
ATOM     18  C   UNL     1       2.938  -0.818  -5.417  0.00  0.00    +0.095 C 
BRANCH  18  19
ATOM     19  C   UNL     1       2.539  -2.099  -4.681  0.00  0.00    -0.021 C 
BRANCH  19  23
ATOM     20  C   UNL     1       0.109  -1.110  -1.310  0.00  0.00    -0.048 A 
ATOM     21  C   UNL     1      -0.479  -1.556  -2.479  0.00  0.00    +0.004 A 
ATOM     22  C   UNL     1       0.308  -1.876  -3.570  0.00  0.00    +0.002 A 
ATOM     23  C   UNL     1       1.682  -1.749  -3.492  0.00  0.00    -0.059 A 
ATOM     24  C   UNL     1       2.270  -1.302  -2.324  0.00  0.00    +0.002 A 
ATOM     25  C   UNL     1       1.483  -0.978  -1.234  0.00  0.00    +0.004 A 
BRANCH  20  27
ATOM     26  C   UNL     1      -1.142   0.716  -0.192  0.00  0.00    +0.009 C 
ATOM     27  C   UNL     1      -0.748  -0.761  -0.121  0.00  0.00    +0.032 C 
ENDBRANCH  20  27
ENDBRANCH  19  23
BRANCH  19  28
ATOM     28  N   UNL     1       3.748  -2.797  -4.224  0.00  0.00    +0.382 N 
ATOM     29  C   UNL     1       3.365  -4.003  -3.478  0.00  0.00    -0.096 C 
ATOM     30  C   UNL     1       4.562  -3.179  -5.386  0.00  0.00    -0.096 C 
ATOM     31  H   UNL     1       4.283  -2.187  -3.625  0.00  0.00    -0.082 HD
ENDBRANCH  19  28
ENDBRANCH  18  19
ENDBRANCH   1  18
TORSDOF 7
