REMARK  Name = ZINC61373452
REMARK  5 active torsions:
REMARK  status: ('A' for Active; 'I' for Inactive)
REMARK    1  A    between atoms: C_1  and  C_2
REMARK    2  A    between atoms: C_2  and  C_4
REMARK    3  A    between atoms: C_2  and  N_9
REMARK    4  A    between atoms: N_9  and  S_10
REMARK    5  A    between atoms: S_10  and  C_13
REMARK                            x       y       z     vdW  Elec       q    Type
REMARK                         _______ _______ _______ _____ _____    ______ ____
ROOT
ATOM      1  S   UNL     1      -2.119  -0.907  -1.411  0.00  0.00    +0.062 S 
ATOM      2  O   UNL     1      -3.414  -1.386  -1.071  0.00  0.00    -0.153 OA
ATOM      3  O   UNL     1      -1.920   0.189  -2.293  0.00  0.00    -0.153 OA
ENDROOT
BRANCH   1   4
ATOM      4  C   UNL     1      -1.242  -2.272  -2.098  0.00  0.00    +0.141 A 
ATOM      5  C   UNL     1      -0.171  -2.068  -2.954  0.00  0.00    +0.144 A 
ATOM      6  N   UNL     1       0.466  -3.114  -3.452  0.00  0.00    -0.221 NA
ATOM      7  C   UNL     1       0.091  -4.346  -3.141  0.00  0.00    +0.213 A 
ATOM      8  N   UNL     1      -0.928  -4.577  -2.326  0.00  0.00    -0.221 NA
ATOM      9  C   UNL     1      -1.604  -3.574  -1.789  0.00  0.00    +0.144 A 
ATOM     10  N   UNL     1       0.780  -5.419  -3.680  0.00  0.00    -0.327 N 
ATOM     11  H   UNL     1       1.528  -5.263  -4.278  0.00  0.00    +0.145 HD
ATOM     12  H   UNL     1       0.515  -6.325  -3.461  0.00  0.00    +0.145 HD
ENDBRANCH   1   4
BRANCH   1  13
ATOM     13  N   UNL     1      -1.372  -0.511   0.012  0.00  0.00    -0.183 NA
ATOM     14  H   UNL     1      -1.845  -0.615   0.853  0.00  0.00    +0.149 HD
BRANCH  13  16
ATOM     15  C   UNL     1      -0.019   1.526   0.010  0.00  0.00    +0.031 C 
ATOM     16  C   UNL     1       0.002  -0.004   0.002  0.00  0.00    +0.104 C 
BRANCH  16  17
ATOM     17  C   UNL     1       0.731  -0.503   1.223  0.00  0.00    -0.022 A 
ATOM     18  C   UNL     1       2.050  -0.909   1.136  0.00  0.00    +0.013 A 
ATOM     19  C   UNL     1       2.676  -1.353   2.253  0.00  0.00    +0.045 A 
ATOM     20  S   UNL     1       1.389  -1.205   3.481  0.00  0.00    -0.105 S 
ATOM     21  C   UNL     1       0.105  -0.556   2.424  0.00  0.00    +0.050 A 
ENDBRANCH  16  17
ENDBRANCH  13  16
ENDBRANCH   1  13
TORSDOF 4
