REMARK  Name = ZINC01221361
REMARK  3 active torsions:
REMARK  status: ('A' for Active; 'I' for Inactive)
REMARK    1  A    between atoms: C_14  and  C_33
REMARK    2  A    between atoms: N_21  and  C_24
REMARK    3  A    between atoms: C_28  and  N_30
REMARK                            x       y       z     vdW  Elec       q    Type
REMARK                         _______ _______ _______ _____ _____    ______ ____
ROOT
ATOM      1  C   UNL     1      -0.172   1.142   0.023  0.00  0.00    +0.000 A 
ATOM      2  C   UNL     1      -1.359   1.851   0.002  0.00  0.00    +0.000 A 
ATOM      3  C   UNL     1      -1.349   3.240   0.000  0.00  0.00    +0.005 A 
ATOM      4  C   UNL     1      -0.148   3.889   0.009  0.00  0.00    -0.022 A 
ATOM      5  C   UNL     1       1.048   3.175   0.024  0.00  0.00    -0.035 A 
ATOM      6  C   UNL     1       1.046   1.809   0.031  0.00  0.00    +0.004 A 
ATOM      7  C   UNL     1       2.297   4.042   0.032  0.00  0.00    +0.062 C 
ATOM      8  C   UNL     1       2.119   4.993   1.204  0.00  0.00    -0.035 A 
ATOM      9  C   UNL     1       3.024   5.168   2.212  0.00  0.00    +0.004 A 
ATOM     10  C   UNL     1       2.733   6.074   3.224  0.00  0.00    +0.000 A 
ATOM     11  C   UNL     1       1.545   6.782   3.209  0.00  0.00    +0.000 A 
ATOM     12  C   UNL     1       0.629   6.599   2.181  0.00  0.00    +0.005 A 
ATOM     13  C   UNL     1       0.923   5.707   1.189  0.00  0.00    -0.022 A 
ATOM     14  C   UNL     1       0.023   5.400   0.003  0.00  0.00    +0.134 C 
ATOM     15  C   UNL     1       0.872   5.713  -1.248  0.00  0.00    +0.114 C 
ATOM     16  C   UNL     1       2.193   4.923  -1.232  0.00  0.00    +0.101 C 
ATOM     17  C   UNL     1       2.085   4.023  -2.443  0.00  0.00    +0.231 C 
ATOM     18  O   UNL     1       2.924   3.225  -2.803  0.00  0.00    -0.274 OA
ATOM     19  N   UNL     1       0.914   4.247  -3.055  0.00  0.00    -0.210 N 
ATOM     20  C   UNL     1       0.152   5.179  -2.468  0.00  0.00    +0.232 C 
ATOM     21  O   UNL     1      -0.940   5.537  -2.853  0.00  0.00    -0.274 OA
ENDROOT
BRANCH  19  22
ATOM     22  C   UNL     1       0.520   3.563  -4.213  0.00  0.00    +0.046 A 
ATOM     23  C   UNL     1       1.196   3.772  -5.408  0.00  0.00    +0.024 A 
ATOM     24  C   UNL     1       0.809   3.093  -6.547  0.00  0.00    +0.004 A 
ATOM     25  C   UNL     1      -0.258   2.214  -6.500  0.00  0.00    +0.033 A 
ATOM     26  C   UNL     1      -0.936   2.009  -5.314  0.00  0.00    +0.128 A 
ATOM     27  C   UNL     1      -0.550   2.681  -4.170  0.00  0.00    +0.056 A 
BRANCH  26  28
ATOM     28  N   UNL     1      -2.078   1.068  -5.268  0.00  0.00    +0.056 N 
ATOM     29  O   UNL     1      -2.677   0.887  -4.223  0.00  0.00    -0.126 OA
ATOM     30  O   UNL     1      -2.419   0.475  -6.276  0.00  0.00    -0.126 OA
ENDBRANCH  26  28
ENDBRANCH  19  22
BRANCH  14  31
ATOM     31  C   UNL     1      -1.288   6.142   0.049  0.00  0.00    +0.371 C 
ATOM     32  O   UNL     1      -1.588   6.895  -0.847  0.00  0.00    -0.245 OA
ATOM     33  O   UNL     1      -2.123   5.966   1.086  0.00  0.00    -0.245 OA
ENDBRANCH  14  31
TORSDOF 3
