REMARK  Name = ZINC08740058
REMARK  11 active torsions:
REMARK  status: ('A' for Active; 'I' for Inactive)
REMARK    1  A    between atoms: C_1  and  C_2
REMARK    2  A    between atoms: C_3  and  C_32
REMARK    3  A    between atoms: C_4  and  C_8
REMARK    4  A    between atoms: C_11  and  O_15
REMARK    5  A    between atoms: C_13  and  O_14
REMARK    6  A    between atoms: O_15  and  C_16
REMARK    7  A    between atoms: C_18  and  O_31
REMARK    8  A    between atoms: C_20  and  O_30
REMARK    9  A    between atoms: C_22  and  O_29
REMARK   10  A    between atoms: C_24  and  C_27
REMARK   11  A    between atoms: C_27  and  O_28
REMARK                            x       y       z     vdW  Elec       q    Type
REMARK                         _______ _______ _______ _____ _____    ______ ____
ROOT
ATOM      1  C   UNL     1       0.248  -3.213  -1.685  0.00  0.00    +0.044 A 
ATOM      2  C   UNL     1       0.352  -2.964  -3.052  0.00  0.00    +0.017 A 
ATOM      3  C   UNL     1       0.470  -4.015  -3.937  0.00  0.00    +0.046 A 
ATOM      4  C   UNL     1       0.486  -5.323  -3.469  0.00  0.00    +0.127 A 
ATOM      5  C   UNL     1       0.382  -5.579  -2.110  0.00  0.00    +0.091 A 
ATOM      6  C   UNL     1       0.268  -4.530  -1.214  0.00  0.00    +0.130 A 
ENDROOT
BRANCH   1  10
ATOM      7  C   UNL     1      -1.287   1.114   0.515  0.00  0.00    +0.065 C 
ATOM      8  C   UNL     1      -0.565  -0.177   0.226  0.00  0.00    +0.041 A 
ATOM      9  C   UNL     1      -0.761  -0.982  -0.855  0.00  0.00    +0.030 A 
ATOM     10  C   UNL     1       0.121  -2.084  -0.732  0.00  0.00    +0.104 A 
ATOM     11  N   UNL     1       0.807  -1.929   0.380  0.00  0.00    -0.173 NA
ATOM     12  N   UNL     1       0.396  -0.738   0.990  0.00  0.00    -0.281 N 
ATOM     13  H   UNL     1       0.742  -0.378   1.822  0.00  0.00    +0.189 HD
BRANCH   9  14
ATOM     14  C   UNL     1      -1.724  -0.748  -1.960  0.00  0.00    -0.010 A 
ATOM     15  C   UNL     1      -2.814  -1.599  -2.128  0.00  0.00    +0.012 A 
ATOM     16  C   UNL     1      -3.708  -1.381  -3.156  0.00  0.00    +0.050 A 
ATOM     17  C   UNL     1      -3.526  -0.314  -4.026  0.00  0.00    +0.162 A 
ATOM     18  C   UNL     1      -2.441   0.540  -3.861  0.00  0.00    +0.163 A 
ATOM     19  C   UNL     1      -1.544   0.327  -2.827  0.00  0.00    +0.058 A 
ATOM     20  O   UNL     1      -2.252   1.596  -4.699  0.00  0.00    -0.485 OA
ATOM     21  C   UNL     1      -2.961   1.565  -5.942  0.00  0.00    +0.270 C 
ATOM     22  C   UNL     1      -4.417   1.171  -5.655  0.00  0.00    +0.270 C 
ATOM     23  O   UNL     1      -4.417  -0.119  -5.036  0.00  0.00    -0.485 OA
ENDBRANCH   9  14
ENDBRANCH   1  10
BRANCH   6  24
ATOM     24  O   UNL     1       0.172  -4.779   0.118  0.00  0.00    -0.506 OA
ATOM     25  H   UNL     1      -0.735  -4.890   0.433  0.00  0.00    +0.292 HD
ENDBRANCH   6  24
BRANCH   4  26
ATOM     26  O   UNL     1       0.602  -6.354  -4.346  0.00  0.00    -0.461 OA
BRANCH  26  27
ATOM     27  C   UNL     1       0.704  -6.020  -5.732  0.00  0.00    +0.339 C 
ATOM     28  C   UNL     1       0.576  -7.291  -6.575  0.00  0.00    +0.214 C 
ATOM     29  C   UNL     1       0.747  -6.933  -8.054  0.00  0.00    +0.180 C 
ATOM     30  C   UNL     1       2.099  -6.240  -8.248  0.00  0.00    +0.177 C 
ATOM     31  C   UNL     1       2.168  -5.010  -7.340  0.00  0.00    +0.179 C 
ATOM     32  O   UNL     1       1.971  -5.409  -5.982  0.00  0.00    -0.331 OA
BRANCH  30  33
ATOM     33  O   UNL     1       3.152  -7.145  -7.908  0.00  0.00    -0.386 OA
ATOM     34  H   UNL     1       3.165  -7.951  -8.443  0.00  0.00    +0.210 HD
ENDBRANCH  30  33
BRANCH  29  35
ATOM     35  O   UNL     1       0.700  -8.123  -8.843  0.00  0.00    -0.386 OA
ATOM     36  H   UNL     1      -0.129  -8.616  -8.763  0.00  0.00    +0.210 HD
ENDBRANCH  29  35
BRANCH  28  37
ATOM     37  O   UNL     1       1.587  -8.224  -6.189  0.00  0.00    -0.383 OA
ATOM     38  H   UNL     1       1.542  -8.492  -5.261  0.00  0.00    +0.210 HD
ENDBRANCH  28  37
BRANCH  31  39
ATOM     39  C   UNL     1       3.539  -4.346  -7.484  0.00  0.00    +0.190 C 
BRANCH  39  40
ATOM     40  O   UNL     1       3.563  -3.134  -6.727  0.00  0.00    -0.392 OA
ATOM     41  H   UNL     1       4.405  -2.659  -6.772  0.00  0.00    +0.210 HD
ENDBRANCH  39  40
ENDBRANCH  31  39
ENDBRANCH  26  27
ENDBRANCH   4  26
TORSDOF 10
