REMARK  Name = ZINC39667607
REMARK  8 active torsions:
REMARK  status: ('A' for Active; 'I' for Inactive)
REMARK    1  A    between atoms: C_1  and  C_2
REMARK    2  A    between atoms: C_6  and  C_9
REMARK    3  A    between atoms: C_7  and  C_8
REMARK    4  A    between atoms: C_9  and  N_10
REMARK    5  A    between atoms: C_11  and  C_13
REMARK    6  A    between atoms: C_24  and  C_26
REMARK    7  A    between atoms: C_31  and  O_32
REMARK    8  A    between atoms: O_32  and  C_33
REMARK                            x       y       z     vdW  Elec       q    Type
REMARK                         _______ _______ _______ _____ _____    ______ ____
ROOT
ATOM      1  C   UNL     1      -2.395  -3.785   4.709  0.00  0.00    +0.100 C 
ATOM      2  C   UNL     1      -3.495  -4.301   3.754  0.00  0.00    +0.121 C 
ATOM      3  N   UNL     1      -3.722  -5.705   4.170  0.00  0.00    -0.296 N 
ATOM      4  C   UNL     1      -3.644  -5.668   5.650  0.00  0.00    +0.115 C 
ATOM      5  C   UNL     1      -2.499  -4.682   5.953  0.00  0.00    -0.004 C 
ATOM      6  C   UNL     1      -2.836  -3.844   7.183  0.00  0.00    -0.010 C 
ATOM      7  C   UNL     1      -2.876  -4.749   8.417  0.00  0.00    -0.082 C 
ATOM      8  N   UNL     1      -1.574  -5.404   8.588  0.00  0.00    +0.379 N 
ATOM      9  C   UNL     1      -1.300  -6.281   7.444  0.00  0.00    -0.082 C 
ATOM     10  C   UNL     1      -1.193  -5.441   6.168  0.00  0.00    -0.010 C 
ATOM     11  C   UNL     1      -3.949  -6.774   3.381  0.00  0.00    +0.252 C 
ATOM     12  O   UNL     1      -4.212  -7.852   3.878  0.00  0.00    -0.270 OA
ATOM     13  H   UNL     1      -0.852  -4.702   8.653  0.00  0.00    -0.086 HD
ATOM     14  H   UNL     1      -1.584  -5.952   9.436  0.00  0.00    -0.086 HD
ENDROOT
BRANCH  11  15
ATOM     15  C   UNL     1      -3.878  -6.636   1.914  0.00  0.00    +0.099 A 
ATOM     16  C   UNL     1      -4.293  -5.455   1.288  0.00  0.00    +0.020 A 
ATOM     17  C   UNL     1      -4.206  -5.376  -0.090  0.00  0.00    +0.021 A 
ATOM     18  C   UNL     1      -3.717  -6.455  -0.804  0.00  0.00    +0.114 A 
ATOM     19  N   UNL     1      -3.332  -7.559  -0.194  0.00  0.00    -0.220 NA
ATOM     20  C   UNL     1      -3.388  -7.685   1.121  0.00  0.00    +0.233 A 
BRANCH  20  21
ATOM     21  O   UNL     1      -2.977  -8.835   1.706  0.00  0.00    -0.437 OA
BRANCH  21  22
ATOM     22  C   UNL     1      -2.602  -9.863   0.899  0.00  0.00    +0.130 A 
ATOM     23  C   UNL     1      -3.462 -10.931   0.689  0.00  0.00    +0.046 A 
ATOM     24  C   UNL     1      -3.079 -11.974  -0.132  0.00  0.00    +0.004 A 
ATOM     25  C   UNL     1      -1.840 -11.953  -0.745  0.00  0.00    +0.000 A 
ATOM     26  C   UNL     1      -0.981 -10.890  -0.537  0.00  0.00    +0.004 A 
ATOM     27  C   UNL     1      -1.361  -9.842   0.278  0.00  0.00    +0.046 A 
ENDBRANCH  21  22
ENDBRANCH  20  21
ENDBRANCH  11  15
BRANCH   1  29
ATOM     28  N   UNL     1      -0.045  -3.076   4.400  0.00  0.00    -0.311 N 
ATOM     29  C   UNL     1      -1.037  -3.927   4.071  0.00  0.00    +0.218 C 
ATOM     30  O   UNL     1      -0.837  -4.808   3.262  0.00  0.00    -0.275 OA
ATOM     31  H   UNL     1      -0.206  -2.371   5.047  0.00  0.00    +0.149 HD
BRANCH  28  32
ATOM     32  C   UNL     1       1.275  -3.214   3.780  0.00  0.00    +0.139 C 
BRANCH  32  38
ATOM     33  C   UNL     1       4.293  -1.506   7.388  0.00  0.00    +0.044 C 
ATOM     34  C   UNL     1       3.639  -1.330   6.042  0.00  0.00    -0.047 A 
ATOM     35  C   UNL     1       3.883  -0.191   5.298  0.00  0.00    +0.003 A 
ATOM     36  C   UNL     1       3.283  -0.030   4.063  0.00  0.00    +0.001 A 
ATOM     37  C   UNL     1       2.439  -1.008   3.572  0.00  0.00    +0.005 A 
ATOM     38  C   UNL     1       2.195  -2.148   4.315  0.00  0.00    -0.027 A 
ATOM     39  C   UNL     1       2.799  -2.311   5.548  0.00  0.00    -0.043 A 
ATOM     40  C   UNL     1       2.537  -3.555   6.357  0.00  0.00    +0.044 C 
ENDBRANCH  32  38
ENDBRANCH  28  32
ENDBRANCH   1  29
TORSDOF 6
