REMARK  Name = ZINC09449996
REMARK  6 active torsions:
REMARK  status: ('A' for Active; 'I' for Inactive)
REMARK    1  A    between atoms: C_1  and  C_2
REMARK    2  A    between atoms: C_2  and  C_3
REMARK    3  A    between atoms: C_3  and  C_5
REMARK    4  A    between atoms: C_3  and  O_14
REMARK    5  A    between atoms: C_10  and  C_13
REMARK    6  A    between atoms: O_14  and  C_15
REMARK                            x       y       z     vdW  Elec       q    Type
REMARK                         _______ _______ _______ _____ _____    ______ ____
ROOT
ATOM      1  C   UNL     1       1.620   5.454   0.028  0.00  0.00    +0.259 C 
ENDROOT
BRANCH   1   2
ATOM      2  C   UNL     1       1.054   4.061   0.133  0.00  0.00    +0.259 C 
ATOM      3  O   UNL     1      -0.145   3.898   0.203  0.00  0.00    -0.271 OA
ATOM      4  N   UNL     1       1.881   2.998   0.149  0.00  0.00    -0.265 N 
ATOM      5  C   UNL     1       1.357   1.708   0.247  0.00  0.00    +0.168 A 
ATOM      6  C   UNL     1      -0.014   1.350   0.336  0.00  0.00    +0.091 A 
ATOM      7  C   UNL     1       0.006  -0.001   0.409  0.00  0.00    +0.136 A 
ATOM      8  O   UNL     1       1.295  -0.368   0.363  0.00  0.00    -0.358 OA
ATOM      9  N   UNL     1       2.030   0.588   0.274  0.00  0.00    -0.063 NA
ATOM     10  C   UNL     1      -1.187  -0.914   0.519  0.00  0.00    +0.089 C 
ATOM     11  H   UNL     1       2.841   3.128   0.093  0.00  0.00    +0.156 HD
ENDBRANCH   1   2
BRANCH   1  13
ATOM     12  C   UNL     1       2.991   6.992  -1.386  0.00  0.00    +0.008 C 
ATOM     13  C   UNL     1       2.310   5.624  -1.327  0.00  0.00    +0.051 C 
ENDBRANCH   1  13
BRANCH   1  14
ATOM     14  O   UNL     1       0.563   6.408   0.147  0.00  0.00    -0.477 OA
BRANCH  14  15
ATOM     15  C   UNL     1       0.824   7.532   0.864  0.00  0.00    +0.147 A 
ATOM     16  C   UNL     1       2.085   7.769   1.334  0.00  0.00    +0.048 A 
ATOM     17  C   UNL     1       2.373   8.918   2.065  0.00  0.00    +0.004 A 
ATOM     18  C   UNL     1       1.403   9.833   2.342  0.00  0.00    +0.010 A 
ATOM     19  C   UNL     1       0.094   9.622   1.881  0.00  0.00    +0.004 A 
ATOM     20  C   UNL     1      -0.205   8.458   1.131  0.00  0.00    +0.112 A 
ATOM     21  N   UNL     1      -1.449   8.253   0.689  0.00  0.00    -0.251 NA
ATOM     22  C   UNL     1      -2.410   9.110   0.934  0.00  0.00    +0.111 A 
ATOM     23  C   UNL     1      -2.184  10.275   1.666  0.00  0.00    +0.020 A 
ATOM     24  C   UNL     1      -0.935  10.546   2.147  0.00  0.00    +0.011 A 
ENDBRANCH  14  15
ENDBRANCH   1  14
TORSDOF 4
