REMARK  Name = ZINC39934439
REMARK  9 active torsions:
REMARK  status: ('A' for Active; 'I' for Inactive)
REMARK    1  A    between atoms: C_1  and  C_2
REMARK    2  A    between atoms: C_3  and  C_32
REMARK    3  A    between atoms: C_4  and  C_29
REMARK    4  A    between atoms: C_5  and  S_9
REMARK    5  A    between atoms: C_7  and  C_8
REMARK    6  A    between atoms: S_9  and  C_10
REMARK    7  A    between atoms: C_10  and  C_12
REMARK    8  A    between atoms: C_10  and  C_18
REMARK    9  A    between atoms: C_18  and  C_20
REMARK                            x       y       z     vdW  Elec       q    Type
REMARK                         _______ _______ _______ _____ _____    ______ ____
ROOT
ATOM      1  C   UNL     1       0.079  -4.854   1.950  0.00  0.00    +0.153 C 
ENDROOT
BRANCH   1   2
ATOM      2  C   UNL     1       1.363  -4.347   2.554  0.00  0.00    -0.027 A 
ATOM      3  C   UNL     1       2.577  -4.829   2.102  0.00  0.00    +0.005 A 
ATOM      4  C   UNL     1       3.755  -4.364   2.657  0.00  0.00    +0.000 A 
ATOM      5  C   UNL     1       3.718  -3.417   3.663  0.00  0.00    +0.000 A 
ATOM      6  C   UNL     1       2.504  -2.934   4.114  0.00  0.00    +0.000 A 
ATOM      7  C   UNL     1       1.326  -3.396   3.557  0.00  0.00    +0.005 A 
ENDBRANCH   1   2
BRANCH   1   8
ATOM      8  C   UNL     1      -0.024  -6.343   2.163  0.00  0.00    +0.179 C 
ATOM      9  O   UNL     1       0.347  -7.107   1.296  0.00  0.00    -0.291 OA
BRANCH   8  10
ATOM     10  C   UNL     1      -0.551  -6.847   3.371  0.00  0.00    +0.025 C 
ATOM     11  C   UNL     1      -0.708  -8.175   3.725  0.00  0.00    +0.006 A 
ATOM     12  C   UNL     1      -0.419  -9.389   3.058  0.00  0.00    +0.010 A 
ATOM     13  C   UNL     1      -0.682 -10.574   3.655  0.00  0.00    +0.001 A 
ATOM     14  C   UNL     1      -1.242 -10.662   4.939  0.00  0.00    +0.002 A 
ATOM     15  C   UNL     1      -1.554  -9.564   5.660  0.00  0.00    +0.026 A 
ATOM     16  C   UNL     1      -1.300  -8.233   5.084  0.00  0.00    +0.043 A 
ATOM     17  N   UNL     1      -1.500  -7.032   5.546  0.00  0.00    -0.380 N 
ATOM     18  C   UNL     1      -1.058  -6.050   4.552  0.00  0.00    +0.152 C 
ATOM     19  H   UNL     1      -1.878  -6.821   6.415  0.00  0.00    +0.160 HD
ENDBRANCH   8  10
ENDBRANCH   1   8
BRANCH   1  20
ATOM     20  S   UNL     1       0.065  -4.496   0.171  0.00  0.00    -0.089 S 
BRANCH  20  25
ATOM     21  C   UNL     1      -0.018   1.503   0.010  0.00  0.00    +0.046 C 
ATOM     22  C   UNL     1       0.002  -0.004   0.002  0.00  0.00    -0.026 A 
ATOM     23  C   UNL     1       0.006  -0.694  -1.197  0.00  0.00    -0.031 A 
ATOM     24  C   UNL     1       0.026  -2.093  -1.159  0.00  0.00    +0.071 A 
ATOM     25  C   UNL     1       0.041  -2.736   0.091  0.00  0.00    +0.111 A 
ATOM     26  N   UNL     1       0.036  -2.026   1.209  0.00  0.00    -0.245 NA
ATOM     27  C   UNL     1       0.023  -0.707   1.194  0.00  0.00    +0.043 A 
ATOM     28  C   UNL     1       0.025   0.048   2.498  0.00  0.00    +0.066 C 
ATOM     29  C   UNL     1      -0.011   0.042  -2.512  0.00  0.00    +0.045 C 
BRANCH  24  30
ATOM     30  C   UNL     1       0.030  -2.878  -2.407  0.00  0.00    +0.244 C 
ATOM     31  O   UNL     1       1.085  -3.187  -2.927  0.00  0.00    -0.270 OA
ATOM     32  N   UNL     1      -1.135  -3.253  -2.971  0.00  0.00    -0.325 N 
ATOM     33  H   UNL     1      -1.976  -3.006  -2.557  0.00  0.00    +0.145 HD
ATOM     34  H   UNL     1      -1.132  -3.769  -3.793  0.00  0.00    +0.145 HD
ENDBRANCH  24  30
ENDBRANCH  20  25
ENDBRANCH   1  20
TORSDOF 6
