REMARK  Name = ZINC40688782
REMARK  8 active torsions:
REMARK  status: ('A' for Active; 'I' for Inactive)
REMARK    1  A    between atoms: C_1  and  C_2
REMARK    2  A    between atoms: C_10  and  N_35
REMARK    3  A    between atoms: C_11  and  N_15
REMARK    4  A    between atoms: N_15  and  C_16
REMARK    5  A    between atoms: C_19  and  C_23
REMARK    6  A    between atoms: C_21  and  C_22
REMARK    7  A    between atoms: C_23  and  C_25
REMARK    8  A    between atoms: C_23  and  C_27
REMARK                            x       y       z     vdW  Elec       q    Type
REMARK                         _______ _______ _______ _____ _____    ______ ____
ROOT
ATOM      1  N   UNL     1       0.125  -7.642  -2.667  0.00  0.00    -0.298 N 
ATOM      2  H   UNL     1      -0.319  -7.899  -1.844  0.00  0.00    +0.154 HD
ENDROOT
BRANCH   1  13
ATOM      3  C   UNL     1       4.345   1.386  -1.448  0.00  0.00    +0.045 C 
ATOM      4  C   UNL     1       3.610   0.091  -1.215  0.00  0.00    -0.032 A 
ATOM      5  C   UNL     1       2.898  -0.110  -0.040  0.00  0.00    +0.008 A 
ATOM      6  C   UNL     1       2.237  -1.313   0.134  0.00  0.00    +0.044 A 
ATOM      7  C   UNL     1       2.308  -2.275  -0.869  0.00  0.00    +0.124 A 
ATOM      8  N   UNL     1       2.997  -2.045  -1.976  0.00  0.00    -0.240 NA
ATOM      9  C   UNL     1       3.632  -0.905  -2.171  0.00  0.00    +0.116 A 
ATOM     10  N   UNL     1       1.648  -3.489  -0.707  0.00  0.00    -0.283 N 
ATOM     11  C   UNL     1       1.613  -4.406  -1.752  0.00  0.00    +0.150 A 
ATOM     12  C   UNL     1       0.859  -5.576  -1.644  0.00  0.00    +0.106 A 
ATOM     13  C   UNL     1       0.859  -6.463  -2.723  0.00  0.00    +0.149 A 
ATOM     14  N   UNL     1       1.572  -6.161  -3.805  0.00  0.00    -0.219 NA
ATOM     15  C   UNL     1       2.271  -5.046  -3.866  0.00  0.00    +0.225 A 
ATOM     16  N   UNL     1       2.294  -4.180  -2.873  0.00  0.00    -0.219 NA
ATOM     17  H   UNL     1       1.212  -3.696   0.135  0.00  0.00    +0.155 HD
BRANCH  12  18
ATOM     18  N   UNL     1       0.121  -5.854  -0.482  0.00  0.00    -0.353 N 
ATOM     19  H   UNL     1       0.131  -5.229   0.259  0.00  0.00    +0.143 HD
ATOM     20  H   UNL     1      -0.398  -6.670  -0.421  0.00  0.00    +0.143 HD
ENDBRANCH  12  18
ENDBRANCH   1  13
BRANCH   1  21
ATOM     21  C   UNL     1       0.026  -8.458  -3.797  0.00  0.00    +0.037 A 
ATOM     22  C   UNL     1       0.166  -7.909  -5.066  0.00  0.00    +0.043 A 
ATOM     23  C   UNL     1       0.069  -8.719  -6.182  0.00  0.00    +0.047 A 
ATOM     24  C   UNL     1      -0.168 -10.075  -6.035  0.00  0.00    -0.008 A 
ATOM     25  C   UNL     1      -0.308 -10.623  -4.774  0.00  0.00    +0.011 A 
ATOM     26  C   UNL     1      -0.206  -9.820  -3.655  0.00  0.00    -0.029 A 
ATOM     27  C   UNL     1      -0.352 -10.420  -2.280  0.00  0.00    +0.045 C 
ATOM     28 CL   UNL     1       0.243  -8.035  -7.768  0.00  0.00    -0.083 Cl
BRANCH  24  29
ATOM     29  C   UNL     1      -0.275 -10.955  -7.254  0.00  0.00    +0.153 C 
BRANCH  29  30
ATOM     30  C   UNL     1       0.890 -11.911  -7.287  0.00  0.00    -0.026 A 
ATOM     31  C   UNL     1       0.938 -12.972  -6.402  0.00  0.00    +0.006 A 
ATOM     32  C   UNL     1       2.006 -13.849  -6.432  0.00  0.00    +0.020 A 
ATOM     33  C   UNL     1       3.027 -13.664  -7.347  0.00  0.00    +0.041 A 
ATOM     34  C   UNL     1       2.979 -12.602  -8.232  0.00  0.00    +0.020 A 
ATOM     35  C   UNL     1       1.907 -11.729  -8.205  0.00  0.00    +0.006 A 
ATOM     36 CL   UNL     1       4.370 -14.765  -7.384  0.00  0.00    -0.084 Cl
ENDBRANCH  29  30
BRANCH  29  37
ATOM     37  C   UNL     1      -1.533 -11.717  -7.200  0.00  0.00    +0.075 C 
ATOM     38  N   UNL     1      -2.504 -12.305  -7.159  0.00  0.00    -0.196 NA
ENDBRANCH  29  37
ENDBRANCH  24  29
ENDBRANCH   1  21
TORSDOF 6
