REMARK  Name = ZINC24890696
REMARK  10 active torsions:
REMARK  status: ('A' for Active; 'I' for Inactive)
REMARK    1  A    between atoms: C_1  and  C_2
REMARK    2  A    between atoms: C_2  and  O_3
REMARK    3  A    between atoms: O_3  and  C_4
REMARK    4  A    between atoms: C_4  and  C_6
REMARK    5  A    between atoms: C_7  and  C_21
REMARK    6  A    between atoms: C_12  and  C_14
REMARK    7  A    between atoms: C_21  and  S_22
REMARK    8  A    between atoms: S_22  and  C_23
REMARK    9  A    between atoms: N_27  and  C_28
REMARK   10  A    between atoms: C_28  and  C_29
REMARK                            x       y       z     vdW  Elec       q    Type
REMARK                         _______ _______ _______ _____ _____    ______ ____
ROOT
ATOM      1  C   UNL     1      -6.049   2.743   3.016  0.00  0.00    +0.079 C 
ATOM      2  C   UNL     1      -4.711   2.753   3.199  0.00  0.00    +0.034 C 
ATOM      3  N   UNL     1      -4.028   3.927   3.338  0.00  0.00    -0.272 N 
ATOM      4  C   UNL     1      -4.609   5.132   3.313  0.00  0.00    +0.304 C 
ATOM      5  O   UNL     1      -3.917   6.122   3.447  0.00  0.00    -0.252 OA
ATOM      6  N   UNL     1      -5.938   5.284   3.145  0.00  0.00    -0.288 N 
ATOM      7  C   UNL     1      -6.767   4.077   2.984  0.00  0.00    +0.144 C 
ATOM      8  H   UNL     1      -2.937   3.914   3.481  0.00  0.00    +0.156 HD
ATOM      9  H   UNL     1      -6.406   6.279   3.126  0.00  0.00    +0.151 HD
ENDROOT
BRANCH   7  10
ATOM     10  C   UNL     1      -7.805   4.078   4.076  0.00  0.00    -0.022 A 
ATOM     11  C   UNL     1      -7.462   4.473   5.356  0.00  0.00    +0.007 A 
ATOM     12  C   UNL     1      -8.415   4.479   6.357  0.00  0.00    +0.020 A 
ATOM     13  C   UNL     1      -9.710   4.079   6.080  0.00  0.00    +0.041 A 
ATOM     14  C   UNL     1     -10.052   3.679   4.801  0.00  0.00    +0.020 A 
ATOM     15  C   UNL     1      -9.099   3.679   3.799  0.00  0.00    +0.007 A 
ATOM     16 CL   UNL     1     -10.906   4.080   7.338  0.00  0.00    -0.084 Cl
ENDBRANCH   7  10
BRANCH   1  17
ATOM     17  C   UNL     1      -6.758   1.528   2.866  0.00  0.00    +0.339 C 
ATOM     18  O   UNL     1      -6.191   0.467   3.044  0.00  0.00    -0.245 OA
BRANCH  17  19
ATOM     19  O   UNL     1      -8.063   1.546   2.524  0.00  0.00    -0.462 OA
BRANCH  19  21
ATOM     20  C   UNL     1     -10.180   0.503   2.001  0.00  0.00    +0.048 C 
ATOM     21  C   UNL     1      -8.716   0.282   2.389  0.00  0.00    +0.229 C 
ENDBRANCH  19  21
ENDBRANCH  17  19
ENDBRANCH   1  17
BRANCH   2  22
ATOM     22  C   UNL     1      -3.960   1.447   3.242  0.00  0.00    +0.128 C 
BRANCH  22  23
ATOM     23  S   UNL     1      -3.646   0.989   4.965  0.00  0.00    -0.080 S 
BRANCH  23  24
ATOM     24  C   UNL     1      -2.781  -0.527   4.726  0.00  0.00    +0.192 A 
ATOM     25  N   UNL     1      -2.493  -1.088   3.574  0.00  0.00    -0.123 NA
ATOM     26  N   UNL     1      -1.856  -2.187   3.771  0.00  0.00    -0.137 NA
ATOM     27  C   UNL     1      -1.697  -2.389   5.049  0.00  0.00    +0.226 A 
ATOM     28  N   UNL     1      -2.285  -1.341   5.703  0.00  0.00    -0.301 N 
BRANCH  28  29
ATOM     29  C   UNL     1      -2.360  -1.133   7.151  0.00  0.00    +0.199 C 
BRANCH  29  30
ATOM     30  C   UNL     1      -3.675  -1.660   7.666  0.00  0.00    +0.125 A 
ATOM     31  C   UNL     1      -3.905  -2.913   8.099  0.00  0.00    +0.046 A 
ATOM     32  C   UNL     1      -5.263  -2.968   8.488  0.00  0.00    +0.041 A 
ATOM     33  C   UNL     1      -5.782  -1.747   8.269  0.00  0.00    +0.195 A 
ATOM     34  O   UNL     1      -4.815  -0.958   7.771  0.00  0.00    -0.466 OA
ENDBRANCH  29  30
ENDBRANCH  28  29
ENDBRANCH  23  24
ENDBRANCH  22  23
ENDBRANCH   2  22
TORSDOF 9
