REMARK  Name = ZINC40424511
REMARK  4 active torsions:
REMARK  status: ('A' for Active; 'I' for Inactive)
REMARK    1  A    between atoms: C_1  and  C_2
REMARK    2  A    between atoms: C_2  and  C_3
REMARK    3  A    between atoms: C_2  and  N_4
REMARK    4  A    between atoms: C_15  and  C_18
REMARK                            x       y       z     vdW  Elec       q    Type
REMARK                         _______ _______ _______ _____ _____    ______ ____
ROOT
ATOM      1  N   UNL     1       0.516  -2.116   1.055  0.00  0.00    -0.312 N 
ATOM      2  C   UNL     1      -0.126  -2.008   2.265  0.00  0.00    +0.204 A 
ATOM      3  N   UNL     1      -1.429  -2.109   2.294  0.00  0.00    -0.215 NA
ATOM      4  C   UNL     1      -2.134  -2.013   3.449  0.00  0.00    +0.078 A 
ATOM      5  C   UNL     1      -3.527  -2.124   3.462  0.00  0.00    +0.028 A 
ATOM      6  C   UNL     1      -4.210  -2.022   4.653  0.00  0.00    +0.002 A 
ATOM      7  C   UNL     1      -3.532  -1.810   5.846  0.00  0.00    +0.001 A 
ATOM      8  C   UNL     1      -2.158  -1.698   5.859  0.00  0.00    +0.014 A 
ATOM      9  C   UNL     1      -1.448  -1.798   4.666  0.00  0.00    +0.045 A 
ATOM     10  C   UNL     1       0.014  -1.687   4.619  0.00  0.00    +0.173 A 
ATOM     11  N   UNL     1       0.625  -1.805   3.390  0.00  0.00    -0.246 N 
ATOM     12  C   UNL     1       1.967  -1.671   3.634  0.00  0.00    +0.171 A 
ATOM     13  N   UNL     1       2.110  -1.492   4.931  0.00  0.00    -0.128 NA
ATOM     14  N   UNL     1       0.960  -1.494   5.508  0.00  0.00    -0.128 NA
ATOM     15  H   UNL     1       1.485  -2.127   1.020  0.00  0.00    +0.149 HD
ENDROOT
BRANCH  12  16
ATOM     16  C   UNL     1       3.050  -1.719   2.630  0.00  0.00    +0.020 A 
ATOM     17  C   UNL     1       3.001  -0.892   1.506  0.00  0.00    +0.011 A 
ATOM     18  C   UNL     1       4.016  -0.941   0.573  0.00  0.00    +0.001 A 
ATOM     19  C   UNL     1       5.081  -1.807   0.749  0.00  0.00    +0.000 A 
ATOM     20  C   UNL     1       5.135  -2.630   1.860  0.00  0.00    +0.001 A 
ATOM     21  C   UNL     1       4.130  -2.587   2.804  0.00  0.00    +0.011 A 
ENDBRANCH  12  16
BRANCH   1  23
ATOM     22  C   UNL     1      -0.631  -0.812  -0.667  0.00  0.00    +0.027 C 
ATOM     23  C   UNL     1      -0.264  -2.216  -0.181  0.00  0.00    +0.067 C 
ATOM     24  C   UNL     1       0.567  -2.926  -1.252  0.00  0.00    +0.027 C 
ENDBRANCH   1  23
TORSDOF 2
