REMARK  Name = ZINC39587750
REMARK  8 active torsions:
REMARK  status: ('A' for Active; 'I' for Inactive)
REMARK    1  A    between atoms: C_1  and  C_2
REMARK    2  A    between atoms: C_2  and  N_3
REMARK    3  A    between atoms: C_7  and  C_9
REMARK    4  A    between atoms: C_9  and  C_11
REMARK    5  A    between atoms: C_9  and  O_12
REMARK    6  A    between atoms: O_12  and  C_13
REMARK    7  A    between atoms: C_13  and  C_15
REMARK    8  A    between atoms: C_20  and  O_21
REMARK                            x       y       z     vdW  Elec       q    Type
REMARK                         _______ _______ _______ _____ _____    ______ ____
ROOT
ATOM      1  C   UNL     1       2.302  -4.041  -3.995  0.00  0.00    +0.259 C 
ATOM      2  C   UNL     1       1.495  -3.641  -5.232  0.00  0.00    +0.062 C 
ENDROOT
BRANCH   1   7
ATOM      3  N   UNL     1       0.688  -0.476  -1.203  0.00  0.00    -0.299 N 
ATOM      4  C   UNL     1       0.827  -1.799  -1.425  0.00  0.00    +0.306 C 
ATOM      5  O   UNL     1       0.383  -2.599  -0.625  0.00  0.00    -0.252 OA
ATOM      6  N   UNL     1       1.458  -2.233  -2.534  0.00  0.00    -0.237 N 
ATOM      7  C   UNL     1       1.597  -3.555  -2.756  0.00  0.00    +0.261 C 
ATOM      8  O   UNL     1       1.154  -4.354  -1.958  0.00  0.00    -0.271 OA
ATOM      9  H   UNL     1       1.042   0.162  -1.842  0.00  0.00    +0.150 HD
ATOM     10  H   UNL     1       1.812  -1.595  -3.172  0.00  0.00    +0.159 HD
BRANCH   3  12
ATOM     11  C   UNL     1      -0.019   1.526   0.010  0.00  0.00    +0.024 C 
ATOM     12  C   UNL     1       0.002  -0.004   0.002  0.00  0.00    +0.102 C 
ENDBRANCH   3  12
ENDBRANCH   1   7
BRANCH   1  13
ATOM     13  O   UNL     1       2.425  -5.464  -3.947  0.00  0.00    -0.449 OA
BRANCH  13  14
ATOM     14  C   UNL     1       3.490  -6.008  -4.567  0.00  0.00    +0.343 C 
ATOM     15  O   UNL     1       4.294  -5.294  -5.133  0.00  0.00    -0.245 OA
BRANCH  14  16
ATOM     16  C   UNL     1       3.681  -7.470  -4.558  0.00  0.00    +0.102 A 
ATOM     17  C   UNL     1       2.757  -8.296  -3.913  0.00  0.00    +0.038 A 
ATOM     18  C   UNL     1       2.942  -9.662  -3.909  0.00  0.00    +0.042 A 
ATOM     19  C   UNL     1       4.042 -10.221  -4.542  0.00  0.00    +0.023 A 
ATOM     20  C   UNL     1       4.962  -9.416  -5.183  0.00  0.00    +0.047 A 
ATOM     21  C   UNL     1       4.789  -8.040  -5.202  0.00  0.00    +0.131 A 
ATOM     22 CL   UNL     1       1.793 -10.687  -3.107  0.00  0.00    -0.084 Cl
BRANCH  21  23
ATOM     23  O   UNL     1       5.690  -7.248  -5.836  0.00  0.00    -0.506 OA
ATOM     24  H   UNL     1       6.419  -6.953  -5.274  0.00  0.00    +0.292 HD
ENDBRANCH  21  23
ENDBRANCH  14  16
ENDBRANCH  13  14
ENDBRANCH   1  13
TORSDOF 6
