REMARK  Name = ZINC44784695
REMARK  5 active torsions:
REMARK  status: ('A' for Active; 'I' for Inactive)
REMARK    1  A    between atoms: C_1  and  C_2
REMARK    2  A    between atoms: C_7  and  N_8
REMARK    3  A    between atoms: C_9  and  C_11
REMARK    4  A    between atoms: C_11  and  C_17
REMARK    5  A    between atoms: N_18  and  O_19
REMARK                            x       y       z     vdW  Elec       q    Type
REMARK                         _______ _______ _______ _____ _____    ______ ____
ROOT
ATOM      1  C   UNL     1      -0.158   0.043   4.874  0.00  0.00    +0.105 C 
ATOM      2  C   UNL     1      -1.462   0.801   4.618  0.00  0.00    +0.024 C 
ATOM      3  C   UNL     1      -2.614  -0.196   4.487  0.00  0.00    +0.001 C 
ATOM      4  C   UNL     1      -2.740  -1.004   5.781  0.00  0.00    +0.000 C 
ATOM      5  C   UNL     1      -1.435  -1.762   6.037  0.00  0.00    +0.001 C 
ATOM      6  C   UNL     1      -0.283  -0.764   6.168  0.00  0.00    +0.024 C 
ENDROOT
BRANCH   1   7
ATOM      7  C   UNL     1       0.978   1.026   5.003  0.00  0.00    +0.147 C 
ATOM      8  N   UNL     1       1.741   0.998   6.045  0.00  0.00    -0.076 NA
ATOM      9  N   UNL     1       1.201   1.954   4.011  0.00  0.00    -0.343 N 
ATOM     10  H   UNL     1       0.580   2.030   3.269  0.00  0.00    +0.144 HD
ATOM     11  H   UNL     1       1.980   2.531   4.053  0.00  0.00    +0.144 HD
BRANCH   8  12
ATOM     12  O   UNL     1       2.807   1.921   6.167  0.00  0.00    -0.408 OA
ATOM     13  H   UNL     1       3.322   1.823   6.979  0.00  0.00    +0.328 HD
ENDBRANCH   8  12
ENDBRANCH   1   7
BRANCH   1  15
ATOM     14  N   UNL     1       0.097  -0.425   2.459  0.00  0.00    -0.284 N 
ATOM     15  C   UNL     1       0.115  -0.891   3.724  0.00  0.00    +0.231 C 
ATOM     16  O   UNL     1       0.350  -2.062   3.935  0.00  0.00    -0.274 OA
ATOM     17  H   UNL     1      -0.063   0.517   2.291  0.00  0.00    +0.155 HD
BRANCH  14  24
ATOM     18  C   UNL     1      -1.032   0.243  -0.066  0.00  0.00    +0.045 C 
ATOM     19  C   UNL     1      -0.224  -1.013   0.139  0.00  0.00    -0.029 A 
ATOM     20  C   UNL     1      -0.008  -1.875  -0.919  0.00  0.00    +0.006 A 
ATOM     21  C   UNL     1       0.733  -3.027  -0.733  0.00  0.00    +0.020 A 
ATOM     22  C   UNL     1       1.262  -3.320   0.513  0.00  0.00    +0.043 A 
ATOM     23  C   UNL     1       1.049  -2.460   1.574  0.00  0.00    +0.043 A 
ATOM     24  C   UNL     1       0.309  -1.300   1.388  0.00  0.00    +0.038 A 
ATOM     25 CL   UNL     1       2.192  -4.768   0.742  0.00  0.00    -0.083 Cl
ENDBRANCH  14  24
ENDBRANCH   1  15
TORSDOF 4
