REMARK  Name = ZINC08150724
REMARK  7 active torsions:
REMARK  status: ('A' for Active; 'I' for Inactive)
REMARK    1  A    between atoms: C_1  and  C_2
REMARK    2  A    between atoms: C_2  and  C_3
REMARK    3  A    between atoms: C_2  and  C_4
REMARK    4  A    between atoms: C_4  and  C_6
REMARK    5  A    between atoms: C_4  and  O_12
REMARK    6  A    between atoms: O_12  and  C_13
REMARK    7  A    between atoms: C_13  and  C_15
REMARK                            x       y       z     vdW  Elec       q    Type
REMARK                         _______ _______ _______ _____ _____    ______ ____
ROOT
ATOM      1  C   UNL     1      -1.385  -0.632  -0.056  0.00  0.00    +0.265 C 
ENDROOT
BRANCH   1   2
ATOM      2  C   UNL     1      -2.074  -0.231  -1.335  0.00  0.00    +0.261 C 
ATOM      3  O   UNL     1      -2.431  -1.080  -2.123  0.00  0.00    -0.271 OA
ATOM      4  N   UNL     1      -2.294   1.072  -1.601  0.00  0.00    -0.237 N 
ATOM      5  C   UNL     1      -2.812   1.438  -2.790  0.00  0.00    +0.303 C 
ATOM      6  O   UNL     1      -3.081   0.594  -3.622  0.00  0.00    -0.253 OA
ATOM      7  N   UNL     1      -3.032   2.741  -3.057  0.00  0.00    -0.313 N 
ATOM      8  H   UNL     1      -2.079   1.746  -0.938  0.00  0.00    +0.159 HD
ATOM      9  H   UNL     1      -2.817   3.415  -2.393  0.00  0.00    +0.146 HD
ATOM     10  H   UNL     1      -3.405   3.004  -3.913  0.00  0.00    +0.146 HD
ENDBRANCH   1   2
BRANCH   1  12
ATOM     11  C   UNL     1       0.719  -0.416   1.274  0.00  0.00    +0.011 C 
ATOM     12  C   UNL     1       0.063  -0.140  -0.081  0.00  0.00    +0.033 C 
ATOM     13  C   UNL     1       0.833  -0.876  -1.179  0.00  0.00    +0.011 C 
ENDBRANCH   1  12
BRANCH   1  14
ATOM     14  O   UNL     1      -1.403  -2.056   0.068  0.00  0.00    -0.448 OA
BRANCH  14  15
ATOM     15  C   UNL     1      -1.425  -2.562   1.319  0.00  0.00    +0.347 C 
ATOM     16  O   UNL     1      -1.430  -1.813   2.277  0.00  0.00    -0.244 OA
BRANCH  15  17
ATOM     17  C   UNL     1      -1.444  -4.011   1.521  0.00  0.00    +0.097 A 
ATOM     18  C   UNL     1      -1.474  -4.726   2.704  0.00  0.00    +0.026 A 
ATOM     19  C   UNL     1      -1.485  -6.114   2.603  0.00  0.00    -0.036 A 
ATOM     20  C   UNL     1      -1.464  -6.630   1.345  0.00  0.00    -0.006 A 
ATOM     21  S   UNL     1      -1.443  -5.317   0.309  0.00  0.00    -0.086 S 
ATOM     22  C   UNL     1      -1.462  -8.076   0.946  0.00  0.00    +0.043 C 
ATOM     23  C   UNL     1      -2.176  -8.904   2.020  0.00  0.00    +0.005 C 
ATOM     24  C   UNL     1      -1.150  -9.340   3.061  0.00  0.00    +0.001 C 
ATOM     25  C   UNL     1      -0.510  -8.125   3.726  0.00  0.00    +0.005 C 
ATOM     26  C   UNL     1      -1.521  -6.990   3.850  0.00  0.00    +0.036 C 
ENDBRANCH  15  17
ENDBRANCH  14  15
ENDBRANCH   1  14
TORSDOF 5
