REMARK  Name = ZINC14547913
REMARK  4 active torsions:
REMARK  status: ('A' for Active; 'I' for Inactive)
REMARK    1  A    between atoms: C_9  and  O_37
REMARK    2  A    between atoms: C_10  and  C_11
REMARK    3  A    between atoms: C_22  and  S_27
REMARK    4  A    between atoms: S_27  and  N_30
REMARK                            x       y       z     vdW  Elec       q    Type
REMARK                         _______ _______ _______ _____ _____    ______ ____
ROOT
ATOM      1  C   UNL     1      -2.522  -0.046   0.026  0.00  0.00    +0.109 C 
ATOM      2  C   UNL     1      -3.169  -0.143  -1.358  0.00  0.00    +0.029 C 
ATOM      3  C   UNL     1      -2.406   0.836  -2.297  0.00  0.00    +0.033 C 
ATOM      4  C   UNL     1      -3.046   2.178  -2.001  0.00  0.00    -0.030 C 
ATOM      5  C   UNL     1      -4.235   2.014  -1.475  0.00  0.00    -0.023 C 
ATOM      6  C   UNL     1      -4.549   0.542  -1.342  0.00  0.00    +0.049 C 
ATOM      7  C   UNL     1      -5.328   0.261  -0.097  0.00  0.00    -0.018 A 
ATOM      8  C   UNL     1      -6.672   0.607  -0.059  0.00  0.00    +0.034 A 
ATOM      9  C   UNL     1      -7.427   0.362   1.070  0.00  0.00    +0.106 A 
ATOM     10  C   UNL     1      -6.853  -0.231   2.179  0.00  0.00    +0.030 A 
ATOM     11  C   UNL     1      -5.517  -0.579   2.154  0.00  0.00    +0.025 A 
ATOM     12  C   UNL     1      -4.755  -0.332   1.018  0.00  0.00    +0.031 A 
ATOM     13  N   UNL     1      -3.402  -0.687   1.009  0.00  0.00    -0.336 N 
ATOM     14  H   UNL     1      -3.055  -1.340   1.636  0.00  0.00    +0.147 HD
ENDROOT
BRANCH   1  24
ATOM     15  C   UNL     1       2.380   1.424  -0.013  0.00  0.00    +0.001 A 
ATOM     16  C   UNL     1       1.156   2.091   0.002  0.00  0.00    +0.001 A 
ATOM     17  C   UNL     1      -0.017   1.402   0.010  0.00  0.00    +0.009 A 
ATOM     18  C   UNL     1       0.002  -0.004   0.002  0.00  0.00    -0.009 A 
ATOM     19  C   UNL     1       1.247  -0.682  -0.013  0.00  0.00    -0.017 A 
ATOM     20  C   UNL     1       2.438   0.065  -0.021  0.00  0.00    +0.008 A 
ATOM     21  C   UNL     1       1.269  -2.087  -0.021  0.00  0.00    +0.012 A 
ATOM     22  C   UNL     1       0.098  -2.780  -0.013  0.00  0.00    +0.046 A 
ATOM     23  C   UNL     1      -1.131  -2.114   0.003  0.00  0.00    +0.122 A 
ATOM     24  C   UNL     1      -1.188  -0.749   0.010  0.00  0.00    +0.022 A 
BRANCH  23  25
ATOM     25  O   UNL     1      -2.284  -2.833   0.011  0.00  0.00    -0.506 OA
ATOM     26  H   UNL     1      -2.608  -3.046   0.897  0.00  0.00    +0.292 HD
ENDBRANCH  23  25
ENDBRANCH   1  24
BRANCH   9  27
ATOM     27  S   UNL     1      -9.132   0.809   1.098  0.00  0.00    +0.061 S 
ATOM     28  O   UNL     1      -9.486   0.973   2.464  0.00  0.00    -0.153 OA
ATOM     29  O   UNL     1      -9.296   1.844   0.138  0.00  0.00    -0.153 OA
BRANCH  27  30
ATOM     30  N   UNL     1      -9.988  -0.494   0.540  0.00  0.00    -0.177 NA
ATOM     31  C   UNL     1     -10.255  -0.593  -0.877  0.00  0.00    +0.109 C 
ATOM     32  C   UNL     1     -11.579   0.126  -1.214  0.00  0.00    +0.017 C 
ATOM     33  C   UNL     1     -12.722  -0.642  -0.697  0.00  0.00    +0.001 C 
ATOM     34  C   UNL     1     -12.745  -0.789   0.821  0.00  0.00    +0.001 C 
ATOM     35  C   UNL     1     -11.893  -1.967   1.223  0.00  0.00    +0.017 C 
ATOM     36  C   UNL     1     -10.453  -1.504   1.511  0.00  0.00    +0.109 C 
ENDBRANCH  27  30
ENDBRANCH   9  27
TORSDOF 4
