REMARK  Name = ZINC36919693
REMARK  7 active torsions:
REMARK  status: ('A' for Active; 'I' for Inactive)
REMARK    1  A    between atoms: C_1  and  C_2
REMARK    2  A    between atoms: C_2  and  C_4
REMARK    3  A    between atoms: C_2  and  N_13
REMARK    4  A    between atoms: C_7  and  N_10
REMARK    5  A    between atoms: N_13  and  C_14
REMARK    6  A    between atoms: C_14  and  C_16
REMARK    7  A    between atoms: C_14  and  C_17
REMARK                            x       y       z     vdW  Elec       q    Type
REMARK                         _______ _______ _______ _____ _____    ______ ____
ROOT
ATOM      1  N   UNL     1       0.695  -0.384   1.260  0.00  0.00    +0.388 N 
ATOM      2  H   UNL     1       0.235  -0.042   2.090  0.00  0.00    -0.084 HD
ATOM      3  H   UNL     1       0.717  -1.392   1.278  0.00  0.00    -0.084 HD
ENDROOT
BRANCH   1   5
ATOM      4  C   UNL     1      -1.506  -0.355   0.186  0.00  0.00    -0.009 C 
ATOM      5  C   UNL     1      -0.041   0.069   0.071  0.00  0.00    -0.043 C 
BRANCH   5   6
ATOM      6  C   UNL     1       0.567  -0.550  -1.161  0.00  0.00    -0.061 A 
ATOM      7  C   UNL     1       0.981  -1.868  -1.140  0.00  0.00    +0.004 A 
ATOM      8  C   UNL     1       1.538  -2.436  -2.271  0.00  0.00    +0.033 A 
ATOM      9  C   UNL     1       1.680  -1.685  -3.423  0.00  0.00    +0.126 A 
ATOM     10  C   UNL     1       1.265  -0.367  -3.444  0.00  0.00    +0.033 A 
ATOM     11  C   UNL     1       0.704   0.200  -2.315  0.00  0.00    +0.004 A 
BRANCH   9  12
ATOM     12  N   UNL     1       2.277  -2.293  -4.633  0.00  0.00    +0.056 N 
ATOM     13  O   UNL     1       2.641  -3.446  -4.614  0.00  0.00    -0.126 OA
ATOM     14  O   UNL     1       2.402  -1.636  -5.641  0.00  0.00    -0.126 OA
ENDBRANCH   9  12
ENDBRANCH   5   6
ENDBRANCH   1   5
BRANCH   1  15
ATOM     15  C   UNL     1       2.069   0.135   1.212  0.00  0.00    -0.043 C 
ATOM     16  C   UNL     1       2.043   1.659   1.342  0.00  0.00    -0.009 C 
BRANCH  15  17
ATOM     17  C   UNL     1       2.867  -0.452   2.348  0.00  0.00    -0.061 A 
ATOM     18  C   UNL     1       2.286  -0.607   3.593  0.00  0.00    +0.002 A 
ATOM     19  C   UNL     1       3.017  -1.146   4.635  0.00  0.00    +0.001 A 
ATOM     20  C   UNL     1       4.330  -1.529   4.432  0.00  0.00    +0.015 A 
ATOM     21  C   UNL     1       4.911  -1.375   3.187  0.00  0.00    +0.018 A 
ATOM     22  C   UNL     1       4.177  -0.841   2.143  0.00  0.00    +0.017 A 
ATOM     23 BR   UNL     1       6.707  -1.898   2.909  0.00  0.00    -0.050 Br
ENDBRANCH  15  17
ENDBRANCH   1  15
TORSDOF 5
