REMARK  Name = ZINC39668578
REMARK  8 active torsions:
REMARK  status: ('A' for Active; 'I' for Inactive)
REMARK    1  A    between atoms: C_1  and  C_2
REMARK    2  A    between atoms: C_2  and  C_4
REMARK    3  A    between atoms: C_2  and  O_28
REMARK    4  A    between atoms: C_4  and  N_5
REMARK    5  A    between atoms: C_6  and  C_8
REMARK    6  A    between atoms: C_19  and  C_21
REMARK    7  A    between atoms: C_21  and  C_27
REMARK    8  A    between atoms: O_28  and  C_29
REMARK                            x       y       z     vdW  Elec       q    Type
REMARK                         _______ _______ _______ _____ _____    ______ ____
ROOT
ATOM      1  C   UNL     1       2.199  -4.418   1.464  0.00  0.00    +0.100 C 
ATOM      2  C   UNL     1       3.229  -4.745   0.359  0.00  0.00    +0.121 C 
ATOM      3  N   UNL     1       4.481  -5.048   1.093  0.00  0.00    -0.300 N 
ATOM      4  C   UNL     1       4.035  -5.818   2.279  0.00  0.00    +0.115 C 
ATOM      5  C   UNL     1       2.730  -5.127   2.721  0.00  0.00    -0.004 C 
ATOM      6  C   UNL     1       3.020  -4.108   3.820  0.00  0.00    -0.010 C 
ATOM      7  C   UNL     1       3.492  -4.841   5.078  0.00  0.00    -0.082 C 
ATOM      8  N   UNL     1       2.455  -5.782   5.517  0.00  0.00    +0.379 N 
ATOM      9  C   UNL     1       2.248  -6.813   4.492  0.00  0.00    -0.082 C 
ATOM     10  C   UNL     1       1.723  -6.163   3.209  0.00  0.00    -0.010 C 
ATOM     11  C   UNL     1       5.740  -4.704   0.757  0.00  0.00    +0.222 C 
ATOM     12  O   UNL     1       5.938  -4.000  -0.211  0.00  0.00    -0.275 OA
ATOM     13  H   UNL     1       2.742  -6.220   6.379  0.00  0.00    -0.086 HD
ATOM     14  H   UNL     1       1.591  -5.282   5.668  0.00  0.00    -0.086 HD
ENDROOT
BRANCH  11  15
ATOM     15  C   UNL     1       6.901  -5.192   1.584  0.00  0.00    +0.044 C 
ATOM     16  C   UNL     1       6.858  -4.532   2.963  0.00  0.00    +0.016 C 
ATOM     17  C   UNL     1       6.947  -3.013   2.805  0.00  0.00    +0.001 C 
ATOM     18  C   UNL     1       8.259  -2.649   2.106  0.00  0.00    +0.000 C 
ATOM     19  C   UNL     1       8.303  -3.309   0.727  0.00  0.00    +0.001 C 
ATOM     20  C   UNL     1       8.213  -4.828   0.885  0.00  0.00    +0.016 C 
ATOM     21  C   UNL     1       6.811  -6.711   1.742  0.00  0.00    +0.021 C 
ENDBRANCH  11  15
BRANCH   1  23
ATOM     22  N   UNL     1       1.040  -2.388   2.275  0.00  0.00    -0.312 N 
ATOM     23  C   UNL     1       2.128  -2.930   1.691  0.00  0.00    +0.218 C 
ATOM     24  O   UNL     1       3.049  -2.219   1.349  0.00  0.00    -0.275 OA
ATOM     25  H   UNL     1       0.304  -2.957   2.549  0.00  0.00    +0.149 HD
BRANCH  22  26
ATOM     26  C   UNL     1       0.971  -0.942   2.495  0.00  0.00    +0.148 C 
BRANCH  26  28
ATOM     27  C   UNL     1      -0.485   0.928   3.286  0.00  0.00    +0.053 C 
ATOM     28  C   UNL     1      -0.358  -0.592   3.168  0.00  0.00    +0.187 C 
BRANCH  28  29
ATOM     29  O   UNL     1      -0.400  -1.175   4.472  0.00  0.00    -0.486 OA
BRANCH  29  30
ATOM     30  C   UNL     1      -1.629  -1.411   5.003  0.00  0.00    +0.139 A 
ATOM     31  C   UNL     1      -2.777  -1.182   4.252  0.00  0.00    +0.049 A 
ATOM     32  C   UNL     1      -4.008  -1.436   4.837  0.00  0.00    +0.023 A 
ATOM     33  C   UNL     1      -4.053  -1.905   6.137  0.00  0.00    +0.111 A 
ATOM     34  N   UNL     1      -2.945  -2.111   6.821  0.00  0.00    -0.260 NA
ATOM     35  C   UNL     1      -1.755  -1.887   6.300  0.00  0.00    +0.156 A 
ENDBRANCH  29  30
ENDBRANCH  28  29
ENDBRANCH  26  28
ENDBRANCH  22  26
ENDBRANCH   1  23
TORSDOF 6
