REMARK  Name = ZINC12376640
REMARK  5 active torsions:
REMARK  status: ('A' for Active; 'I' for Inactive)
REMARK    1  A    between atoms: C_4  and  N_7
REMARK    2  A    between atoms: C_8  and  C_10
REMARK    3  A    between atoms: C_11  and  C_12
REMARK    4  A    between atoms: N_23  and  C_24
REMARK    5  A    between atoms: C_24  and  C_25
REMARK                            x       y       z     vdW  Elec       q    Type
REMARK                         _______ _______ _______ _____ _____    ______ ____
ROOT
ATOM      1  N   UNL     1      -3.585   1.663   0.131  0.00  0.00    -0.191 N 
ATOM      2  C   UNL     1      -2.524   0.995  -0.363  0.00  0.00    +0.251 C 
ATOM      3  O   UNL     1      -2.557  -0.218  -0.453  0.00  0.00    -0.270 OA
ATOM      4  C   UNL     1      -4.642   0.984   0.619  0.00  0.00    +0.314 C 
ATOM      5  O   UNL     1      -4.601  -0.228   0.700  0.00  0.00    -0.252 OA
ATOM      6  N   UNL     1      -5.746   1.648   1.016  0.00  0.00    -0.292 N 
ATOM      7  H   UNL     1      -5.809   2.607   0.883  0.00  0.00    +0.151 HD
ENDROOT
BRANCH   1  11
ATOM      8  C   UNL     1      -3.599   5.831   0.152  0.00  0.00    +0.000 A 
ATOM      9  C   UNL     1      -2.991   5.138   1.183  0.00  0.00    +0.002 A 
ATOM     10  C   UNL     1      -2.985   3.757   1.179  0.00  0.00    +0.024 A 
ATOM     11  C   UNL     1      -3.590   3.064   0.138  0.00  0.00    +0.046 A 
ATOM     12  C   UNL     1      -4.194   3.764  -0.898  0.00  0.00    +0.024 A 
ATOM     13  C   UNL     1      -4.202   5.145  -0.886  0.00  0.00    +0.002 A 
ENDBRANCH   1  11
BRANCH   2  14
ATOM     14  C   UNL     1      -1.369   1.706  -0.777  0.00  0.00    +0.069 C 
ATOM     15  C   UNL     1      -0.274   1.032  -1.192  0.00  0.00    +0.013 C 
BRANCH  15  16
ATOM     16  C   UNL     1       0.921   1.769  -1.627  0.00  0.00    -0.021 A 
ATOM     17  C   UNL     1       0.929   3.168  -1.607  0.00  0.00    +0.012 A 
ATOM     18  C   UNL     1       2.050   3.856  -2.015  0.00  0.00    +0.050 A 
ATOM     19  C   UNL     1       3.175   3.165  -2.448  0.00  0.00    +0.166 A 
ATOM     20  C   UNL     1       3.175   1.770  -2.471  0.00  0.00    +0.167 A 
ATOM     21  C   UNL     1       2.056   1.073  -2.058  0.00  0.00    +0.057 A 
ATOM     22  O   UNL     1       4.386   1.341  -2.932  0.00  0.00    -0.453 OA
ATOM     23  C   UNL     1       5.268   2.472  -2.802  0.00  0.00    +0.466 C 
ATOM     24  O   UNL     1       4.386   3.606  -2.894  0.00  0.00    -0.453 OA
ENDBRANCH  15  16
ENDBRANCH   2  14
BRANCH   6  25
ATOM     25  C   UNL     1      -6.850   0.922   1.648  0.00  0.00    +0.180 C 
BRANCH  25  26
ATOM     26  C   UNL     1      -7.953   1.889   1.995  0.00  0.00    +0.122 A 
ATOM     27  C   UNL     1      -8.981   2.228   1.196  0.00  0.00    +0.046 A 
ATOM     28  C   UNL     1      -9.770   3.155   1.915  0.00  0.00    +0.041 A 
ATOM     29  C   UNL     1      -9.177   3.327   3.110  0.00  0.00    +0.195 A 
ATOM     30  O   UNL     1      -8.080   2.553   3.155  0.00  0.00    -0.466 OA
ENDBRANCH  25  26
ENDBRANCH   6  25
TORSDOF 5
