REMARK  Name = ZINC04111790
REMARK  9 active torsions:
REMARK  status: ('A' for Active; 'I' for Inactive)
REMARK    1  A    between atoms: C_1  and  C_2
REMARK    2  A    between atoms: C_2  and  C_3
REMARK    3  A    between atoms: C_10  and  C_12
REMARK    4  A    between atoms: C_12  and  N_13
REMARK    5  A    between atoms: N_21  and  C_24
REMARK    6  A    between atoms: C_24  and  C_25
REMARK    7  A    between atoms: C_25  and  C_26
REMARK    8  A    between atoms: N_28  and  C_29
REMARK    9  A    between atoms: C_29  and  C_30
REMARK                            x       y       z     vdW  Elec       q    Type
REMARK                         _______ _______ _______ _____ _____    ______ ____
ROOT
ATOM      1  N   UNL     1      -0.415   3.414   7.154  0.00  0.00    -0.284 N 
ATOM      2  C   UNL     1      -1.394   2.463   7.485  0.00  0.00    +0.066 A 
ATOM      3  C   UNL     1      -2.341   2.494   8.505  0.00  0.00    +0.034 A 
ATOM      4  C   UNL     1      -3.205   1.464   8.657  0.00  0.00    +0.048 A 
ATOM      5  S   UNL     1      -2.759   0.374   7.383  0.00  0.00    -0.090 S 
ATOM      6  C   UNL     1      -1.433   1.320   6.682  0.00  0.00    +0.100 A 
ATOM      7  C   UNL     1      -0.545   1.144   5.616  0.00  0.00    +0.271 A 
ATOM      8  O   UNL     1      -0.596   0.140   4.929  0.00  0.00    -0.266 OA
ATOM      9  N   UNL     1       0.370   2.105   5.360  0.00  0.00    -0.259 N 
ATOM     10  C   UNL     1       0.423   3.207   6.127  0.00  0.00    +0.333 A 
ATOM     11  O   UNL     1       1.260   4.053   5.877  0.00  0.00    -0.246 OA
ENDROOT
BRANCH   1  12
ATOM     12  C   UNL     1      -0.303   4.643   7.943  0.00  0.00    +0.222 C 
BRANCH  12  19
ATOM     13  C   UNL     1       1.758   5.189  11.131  0.00  0.00    +0.076 C 
ATOM     14  C   UNL     1       2.889   6.222  11.140  0.00  0.00    +0.022 C 
ATOM     15  C   UNL     1       2.291   7.629  11.061  0.00  0.00    +0.003 C 
ATOM     16  C   UNL     1       1.510   7.780   9.754  0.00  0.00    +0.019 C 
ATOM     17  C   UNL     1       0.367   6.766   9.726  0.00  0.00    +0.108 C 
ATOM     18  N   UNL     1       0.916   5.422   9.950  0.00  0.00    -0.297 N 
ATOM     19  C   UNL     1       0.655   4.421   9.085  0.00  0.00    +0.236 C 
ATOM     20  O   UNL     1       1.191   3.343   9.226  0.00  0.00    -0.274 OA
BRANCH  13  22
ATOM     21  C   UNL     1       3.200   3.529  12.317  0.00  0.00    +0.006 C 
ATOM     22  C   UNL     1       2.348   3.779  11.071  0.00  0.00    +0.019 C 
ENDBRANCH  13  22
ENDBRANCH  12  19
ENDBRANCH   1  12
BRANCH   9  23
ATOM     23  C   UNL     1       1.311   1.942   4.248  0.00  0.00    +0.139 C 
BRANCH  23  24
ATOM     24  C   UNL     1       0.705   2.538   2.976  0.00  0.00    +0.117 C 
BRANCH  24  25
ATOM     25  C   UNL     1       1.673   2.370   1.833  0.00  0.00    +0.215 C 
ATOM     26  O   UNL     1       2.741   1.827   2.018  0.00  0.00    -0.276 OA
ATOM     27  N   UNL     1       1.350   2.823   0.605  0.00  0.00    -0.308 N 
ATOM     28  H   UNL     1       0.496   3.257   0.458  0.00  0.00    +0.149 HD
BRANCH  27  29
ATOM     29  C   UNL     1       2.291   2.660  -0.506  0.00  0.00    +0.178 C 
BRANCH  29  30
ATOM     30  C   UNL     1       1.694   3.247  -1.759  0.00  0.00    +0.122 A 
ATOM     31  C   UNL     1       1.832   4.519  -2.175  0.00  0.00    +0.046 A 
ATOM     32  C   UNL     1       1.114   4.634  -3.387  0.00  0.00    +0.041 A 
ATOM     33  C   UNL     1       0.580   3.425  -3.640  0.00  0.00    +0.195 A 
ATOM     34  O   UNL     1       0.940   2.588  -2.654  0.00  0.00    -0.466 OA
ENDBRANCH  29  30
ENDBRANCH  27  29
ENDBRANCH  24  25
ENDBRANCH  23  24
ENDBRANCH   9  23
TORSDOF 8
