REMARK  Name = ZINC56371026
REMARK  8 active torsions:
REMARK  status: ('A' for Active; 'I' for Inactive)
REMARK    1  A    between atoms: C_1  and  C_2
REMARK    2  A    between atoms: C_5  and  C_20
REMARK    3  A    between atoms: C_6  and  C_8
REMARK    4  A    between atoms: C_8  and  C_10
REMARK    5  A    between atoms: C_10  and  C_11
REMARK    6  A    between atoms: C_11  and  C_12
REMARK    7  A    between atoms: N_14  and  N_15
REMARK    8  A    between atoms: N_18  and  C_19
REMARK                            x       y       z     vdW  Elec       q    Type
REMARK                         _______ _______ _______ _____ _____    ______ ____
ROOT
ATOM      1  C   UNL     1       0.939  -2.769   4.938  0.00  0.00    +0.105 C 
ENDROOT
BRANCH   1   2
ATOM      2  C   UNL     1       1.094  -1.943   6.189  0.00  0.00    +0.230 C 
ATOM      3  O   UNL     1       1.006  -0.734   6.132  0.00  0.00    -0.274 OA
ATOM      4  N   UNL     1       1.330  -2.546   7.370  0.00  0.00    -0.233 N 
ATOM      5  H   UNL     1       1.401  -3.513   7.416  0.00  0.00    +0.173 HD
BRANCH   4   6
ATOM      6  N   UNL     1       1.475  -1.778   8.533  0.00  0.00    -0.218 N 
ATOM      7  C   UNL     1       1.711  -2.382   9.715  0.00  0.00    +0.316 C 
ATOM      8  O   UNL     1       1.837  -1.716  10.724  0.00  0.00    -0.251 OA
ATOM      9  N   UNL     1       1.809  -3.725   9.777  0.00  0.00    -0.301 N 
ATOM     10  C   UNL     1       2.066  -4.381  11.062  0.00  0.00    +0.129 C 
ATOM     11  H   UNL     1       1.405  -0.812   8.488  0.00  0.00    +0.174 HD
ATOM     12  H   UNL     1       1.709  -4.257   8.972  0.00  0.00    +0.150 HD
ENDBRANCH   4   6
ENDBRANCH   1   2
BRANCH   1  13
ATOM     13  C   UNL     1       0.679  -1.845   3.746  0.00  0.00    +0.089 C 
BRANCH  13  14
ATOM     14  C   UNL     1       0.524  -2.672   2.495  0.00  0.00    +0.164 C 
ATOM     15  O   UNL     1       0.612  -3.880   2.552  0.00  0.00    -0.292 OA
BRANCH  14  21
ATOM     16  C   UNL     1       0.057   1.497  -0.200  0.00  0.00    +0.044 C 
ATOM     17  C   UNL     1       0.039  -0.006  -0.099  0.00  0.00    -0.050 A 
ATOM     18  C   UNL     1      -0.222  -0.771  -1.223  0.00  0.00    +0.003 A 
ATOM     19  C   UNL     1      -0.240  -2.152  -1.140  0.00  0.00    +0.004 A 
ATOM     20  C   UNL     1       0.001  -2.778   0.065  0.00  0.00    -0.040 A 
ATOM     21  C   UNL     1       0.266  -2.012   1.205  0.00  0.00    +0.021 A 
ATOM     22  C   UNL     1       0.289  -0.617   1.112  0.00  0.00    +0.015 A 
ATOM     23  C   UNL     1      -0.020  -4.282   0.153  0.00  0.00    +0.044 C 
ENDBRANCH  14  21
ENDBRANCH  13  14
ENDBRANCH   1  13
TORSDOF 5
