REMARK  Name = ZINC58160914
REMARK  6 active torsions:
REMARK  status: ('A' for Active; 'I' for Inactive)
REMARK    1  A    between atoms: C_1  and  C_2
REMARK    2  A    between atoms: N_5  and  C_11
REMARK    3  A    between atoms: C_7  and  C_10
REMARK    4  A    between atoms: C_11  and  C_12
REMARK    5  A    between atoms: N_20  and  C_21
REMARK    6  A    between atoms: C_25  and  N_27
REMARK                            x       y       z     vdW  Elec       q    Type
REMARK                         _______ _______ _______ _____ _____    ______ ____
ROOT
ATOM      1  C   UNL     1       4.967   0.973  -2.518  0.00  0.00    +0.092 C 
ATOM      2  C   UNL     1       5.427   0.275  -3.815  0.00  0.00    +0.025 C 
ATOM      3  C   UNL     1       6.582  -0.639  -3.328  0.00  0.00    +0.021 C 
ATOM      4  C   UNL     1       6.070  -1.067  -1.929  0.00  0.00    +0.110 C 
ATOM      5  N   UNL     1       5.394   0.131  -1.391  0.00  0.00    -0.281 N 
ATOM      6  C   UNL     1       5.200   0.407  -0.086  0.00  0.00    +0.307 C 
ATOM      7  O   UNL     1       4.708   1.469   0.244  0.00  0.00    -0.252 OA
ATOM      8  N   UNL     1       5.552  -0.493   0.853  0.00  0.00    -0.269 N 
ATOM      9  H   UNL     1       6.035  -1.295   0.600  0.00  0.00    +0.156 HD
ENDROOT
BRANCH   8  10
ATOM     10  C   UNL     1       5.221  -0.271   2.195  0.00  0.00    +0.037 A 
ATOM     11  C   UNL     1       4.045   0.394   2.520  0.00  0.00    +0.023 A 
ATOM     12  C   UNL     1       3.720   0.611   3.845  0.00  0.00    +0.004 A 
ATOM     13  C   UNL     1       4.565   0.168   4.846  0.00  0.00    +0.033 A 
ATOM     14  C   UNL     1       5.736  -0.493   4.526  0.00  0.00    +0.128 A 
ATOM     15  C   UNL     1       6.063  -0.718   3.203  0.00  0.00    +0.056 A 
BRANCH  14  16
ATOM     16  N   UNL     1       6.637  -0.964   5.601  0.00  0.00    +0.056 N 
ATOM     17  O   UNL     1       6.349  -0.771   6.759  0.00  0.00    -0.126 OA
ATOM     18  O   UNL     1       7.661  -1.542   5.322  0.00  0.00    -0.126 OA
ENDBRANCH  14  16
ENDBRANCH   8  10
BRANCH   1  19
ATOM     19  C   UNL     1       3.443   1.113  -2.514  0.00  0.00    +0.107 C 
BRANCH  19  23
ATOM     20  C   UNL     1       1.988   2.550  -6.241  0.00  0.00    +0.039 C 
ATOM     21  C   UNL     1       1.236   2.933  -4.964  0.00  0.00    +0.130 C 
ATOM     22  C   UNL     1       1.603   1.958  -3.843  0.00  0.00    +0.115 C 
ATOM     23  N   UNL     1       3.038   2.075  -3.548  0.00  0.00    -0.296 NA
ATOM     24  C   UNL     1       3.378   3.449  -3.152  0.00  0.00    +0.115 C 
ATOM     25  C   UNL     1       2.994   4.410  -4.280  0.00  0.00    +0.130 C 
ATOM     26  O   UNL     1       1.601   4.260  -4.575  0.00  0.00    -0.371 OA
ATOM     27  C   UNL     1       3.272   5.849  -3.843  0.00  0.00    +0.039 C 
ENDBRANCH  19  23
ENDBRANCH   1  19
TORSDOF 4
