REMARK  Name = ZINC46598052
REMARK  8 active torsions:
REMARK  status: ('A' for Active; 'I' for Inactive)
REMARK    1  A    between atoms: C_1  and  C_2
REMARK    2  A    between atoms: C_3  and  C_8
REMARK    3  A    between atoms: C_4  and  C_7
REMARK    4  A    between atoms: C_8  and  N_9
REMARK    5  A    between atoms: N_9  and  C_10
REMARK    6  A    between atoms: N_13  and  C_14
REMARK    7  A    between atoms: C_14  and  C_16
REMARK    8  A    between atoms: C_14  and  C_17
REMARK                            x       y       z     vdW  Elec       q    Type
REMARK                         _______ _______ _______ _____ _____    ______ ____
ROOT
ATOM      1  N   UNL     1       1.371  -0.174  -3.041  0.00  0.00    -0.284 N 
ATOM      2  C   UNL     1       2.075  -1.292  -3.676  0.00  0.00    +0.134 C 
ATOM      3  C   UNL     1       1.991   1.013  -2.888  0.00  0.00    +0.303 C 
ATOM      4  O   UNL     1       1.407   1.940  -2.360  0.00  0.00    -0.253 OA
ATOM      5  N   UNL     1       3.258   1.172  -3.320  0.00  0.00    -0.292 N 
ATOM      6  H   UNL     1       3.723   0.433  -3.741  0.00  0.00    +0.151 HD
ENDROOT
BRANCH   5   7
ATOM      7  C   UNL     1       3.931   2.462  -3.155  0.00  0.00    +0.108 C 
ATOM      8  C   UNL     1       3.572   3.380  -4.325  0.00  0.00    +0.033 C 
BRANCH   7   9
ATOM      9  C   UNL     1       5.423   2.250  -3.123  0.00  0.00    +0.011 A 
ATOM     10  C   UNL     1       6.353   2.846  -2.337  0.00  0.00    +0.014 A 
ATOM     11  C   UNL     1       7.681   2.491  -2.483  0.00  0.00    +0.028 A 
ATOM     12  C   UNL     1       8.013   1.556  -3.409  0.00  0.00    +0.078 A 
ATOM     13  S   UNL     1       6.422   1.142  -4.103  0.00  0.00    -0.080 S 
ATOM     14 CL   UNL     1       9.579   0.921  -3.808  0.00  0.00    -0.076 Cl
ENDBRANCH   7   9
ENDBRANCH   5   7
BRANCH   1  15
ATOM     15  C   UNL     1      -0.005  -0.348  -2.571  0.00  0.00    +0.149 C 
BRANCH  15  18
ATOM     16  C   UNL     1      -0.018   1.503   0.010  0.00  0.00    +0.069 C 
ATOM     17  C   UNL     1       0.002  -0.004   0.002  0.00  0.00    +0.085 A 
ATOM     18  C   UNL     1       0.008  -0.824  -1.141  0.00  0.00    +0.034 A 
ATOM     19  C   UNL     1       0.027  -2.108  -0.735  0.00  0.00    +0.139 A 
ATOM     20  O   UNL     1       0.034  -2.119   0.606  0.00  0.00    -0.359 OA
ATOM     21  N   UNL     1       0.023  -0.775   1.052  0.00  0.00    -0.083 NA
ATOM     22  C   UNL     1       0.039  -3.320  -1.631  0.00  0.00    +0.089 C 
ENDBRANCH  15  18
ENDBRANCH   1  15
TORSDOF 4
