REMARK  Name = ZINC67283574
REMARK  10 active torsions:
REMARK  status: ('A' for Active; 'I' for Inactive)
REMARK    1  A    between atoms: C_1  and  C_2
REMARK    2  A    between atoms: C_2  and  C_4
REMARK    3  A    between atoms: C_2  and  N_15
REMARK    4  A    between atoms: C_8  and  S_10
REMARK    5  A    between atoms: S_10  and  N_13
REMARK    6  A    between atoms: N_13  and  C_14
REMARK    7  A    between atoms: N_18  and  C_19
REMARK    8  A    between atoms: C_21  and  C_27
REMARK    9  A    between atoms: C_24  and  O_25
REMARK   10  A    between atoms: O_25  and  C_26
REMARK                            x       y       z     vdW  Elec       q    Type
REMARK                         _______ _______ _______ _____ _____    ______ ____
ROOT
ATOM      1  N   UNL     1      -1.367  -0.527   0.013  0.00  0.00    -0.293 N 
ATOM      2  C   UNL     1      -2.027  -0.659   1.181  0.00  0.00    +0.304 C 
ATOM      3  O   UNL     1      -1.481  -0.361   2.225  0.00  0.00    -0.252 OA
ATOM      4  N   UNL     1      -3.293  -1.122   1.190  0.00  0.00    -0.266 N 
ATOM      5  H   UNL     1      -1.802  -0.765  -0.820  0.00  0.00    +0.151 HD
ATOM      6  H   UNL     1      -3.757  -1.282   0.354  0.00  0.00    +0.156 HD
ENDROOT
BRANCH   4   7
ATOM      7  C   UNL     1      -3.939  -1.371   2.409  0.00  0.00    +0.078 A 
ATOM      8  C   UNL     1      -3.196  -1.646   3.543  0.00  0.00    +0.046 A 
ATOM      9  C   UNL     1      -3.843  -1.893   4.756  0.00  0.00    +0.054 A 
ATOM     10  C   UNL     1      -5.239  -1.861   4.818  0.00  0.00    +0.022 A 
ATOM     11  C   UNL     1      -5.974  -1.586   3.685  0.00  0.00    +0.049 A 
ATOM     12  C   UNL     1      -5.332  -1.335   2.481  0.00  0.00    +0.141 A 
BRANCH  12  13
ATOM     13  O   UNL     1      -6.061  -1.060   1.368  0.00  0.00    -0.493 OA
ATOM     14  C   UNL     1      -7.482  -1.040   1.513  0.00  0.00    +0.277 C 
ENDBRANCH  12  13
BRANCH   9  15
ATOM     15  C   UNL     1      -3.079  -2.179   5.932  0.00  0.00    +0.099 C 
ATOM     16  N   UNL     1      -2.472  -2.406   6.865  0.00  0.00    -0.191 NA
ENDBRANCH   9  15
ENDBRANCH   4   7
BRANCH   1  18
ATOM     17  C   UNL     1      -0.007   1.506  -0.002  0.00  0.00    +0.033 C 
ATOM     18  C   UNL     1       0.009  -0.024   0.003  0.00  0.00    +0.102 C 
BRANCH  18  19
ATOM     19  C   UNL     1       0.717  -0.523  -1.230  0.00  0.00    -0.026 A 
ATOM     20  C   UNL     1       0.051  -0.563  -2.441  0.00  0.00    +0.005 A 
ATOM     21  C   UNL     1       0.700  -1.021  -3.572  0.00  0.00    +0.002 A 
ATOM     22  C   UNL     1       2.016  -1.438  -3.493  0.00  0.00    +0.028 A 
ATOM     23  C   UNL     1       2.682  -1.397  -2.283  0.00  0.00    +0.106 A 
ATOM     24  C   UNL     1       2.034  -0.935  -1.152  0.00  0.00    +0.034 A 
BRANCH  23  25
ATOM     25  S   UNL     1       4.359  -1.929  -2.182  0.00  0.00    +0.058 S 
ATOM     26  O   UNL     1       4.585  -2.305  -0.830  0.00  0.00    -0.153 OA
ATOM     27  O   UNL     1       4.567  -2.824  -3.266  0.00  0.00    -0.153 OA
BRANCH  25  28
ATOM     28  N   UNL     1       5.311  -0.606  -2.471  0.00  0.00    -0.193 NA
ATOM     29  C   UNL     1       5.302   0.522  -1.536  0.00  0.00    +0.127 C 
ATOM     30  H   UNL     1       5.875  -0.577  -3.260  0.00  0.00    +0.148 HD
ENDBRANCH  25  28
ENDBRANCH  23  25
ENDBRANCH  18  19
ENDBRANCH   1  18
TORSDOF 7
