REMARK  Name = ZINC39440393
REMARK  5 active torsions:
REMARK  status: ('A' for Active; 'I' for Inactive)
REMARK    1  A    between atoms: C_6  and  C_7
REMARK    2  A    between atoms: C_10  and  C_34
REMARK    3  A    between atoms: C_15  and  C_18
REMARK    4  A    between atoms: N_20  and  C_21
REMARK    5  A    between atoms: C_21  and  C_22
REMARK                            x       y       z     vdW  Elec       q    Type
REMARK                         _______ _______ _______ _____ _____    ______ ____
ROOT
ATOM      1  C   UNL     1      -1.375  -0.675  -0.080  0.00  0.00    +0.104 C 
ATOM      2  C   UNL     1      -1.718  -1.082  -1.500  0.00  0.00    +0.060 C 
ATOM      3  C   UNL     1      -0.766  -2.111  -2.083  0.00  0.00    +0.198 C 
ATOM      4  N   UNL     1      -0.455  -3.156  -1.101  0.00  0.00    -0.242 N 
ATOM      5  C   UNL     1      -0.639  -2.992   0.270  0.00  0.00    +0.099 C 
ATOM      6  C   UNL     1      -0.236  -4.057   0.946  0.00  0.00    +0.042 C 
ATOM      7  C   UNL     1       0.262  -5.059  -0.074  0.00  0.00    +0.184 C 
ATOM      8  N   UNL     1       0.056  -4.391  -1.374  0.00  0.00    -0.223 NA
ATOM      9  N   UNL     1      -1.209  -1.832   0.798  0.00  0.00    -0.325 N 
ATOM     10  H   UNL     1       0.923  -4.318  -1.885  0.00  0.00    +0.146 HD
ATOM     11  H   UNL     1      -1.487  -1.796   1.727  0.00  0.00    +0.148 HD
ENDROOT
BRANCH   1  17
ATOM     12  C   UNL     1       0.075   1.143  -1.004  0.00  0.00    +0.007 A 
ATOM     13  C   UNL     1       1.250   1.871  -1.016  0.00  0.00    +0.020 A 
ATOM     14  C   UNL     1       2.258   1.572  -0.117  0.00  0.00    +0.041 A 
ATOM     15  C   UNL     1       2.089   0.545   0.794  0.00  0.00    +0.020 A 
ATOM     16  C   UNL     1       0.913  -0.182   0.806  0.00  0.00    +0.007 A 
ATOM     17  C   UNL     1      -0.093   0.117  -0.093  0.00  0.00    -0.027 A 
ATOM     18 CL   UNL     1       3.734   2.485  -0.133  0.00  0.00    -0.084 Cl
ENDBRANCH   1  17
BRANCH   7  19
ATOM     19  C   UNL     1       1.724  -5.351   0.145  0.00  0.00    +0.236 C 
ATOM     20  O   UNL     1       2.530  -5.096  -0.724  0.00  0.00    -0.274 OA
ATOM     21  N   UNL     1       2.135  -5.896   1.307  0.00  0.00    -0.308 N 
ATOM     22  H   UNL     1       1.490  -6.100   2.002  0.00  0.00    +0.149 HD
BRANCH  21  23
ATOM     23  C   UNL     1       3.556  -6.180   1.520  0.00  0.00    +0.157 C 
BRANCH  23  24
ATOM     24  C   UNL     1       3.748  -6.782   2.889  0.00  0.00    +0.034 A 
ATOM     25  H   UNL     1       3.896  -5.100   4.109  0.00  0.00    +0.166 HD
ATOM     26  C   UNL     1       3.804  -8.097   3.151  0.00  0.00    +0.032 A 
ATOM     27  C   UNL     1       3.999  -8.238   4.596  0.00  0.00    +0.001 A 
ATOM     28  C   UNL     1       4.130  -9.330   5.455  0.00  0.00    +0.030 A 
ATOM     29  C   UNL     1       4.308  -9.118   6.805  0.00  0.00    +0.042 A 
ATOM     30  C   UNL     1       4.356  -7.826   7.312  0.00  0.00    +0.022 A 
ATOM     31  C   UNL     1       4.227  -6.739   6.477  0.00  0.00    +0.027 A 
ATOM     32  C   UNL     1       4.048  -6.929   5.111  0.00  0.00    +0.047 A 
ATOM     33  N   UNL     1       3.898  -6.068   4.046  0.00  0.00    -0.357 N 
ATOM     34 CL   UNL     1       4.471 -10.474   7.877  0.00  0.00    -0.084 Cl
ENDBRANCH  23  24
ENDBRANCH  21  23
ENDBRANCH   7  19
BRANCH   3  35
ATOM     35  C   UNL     1       0.531  -1.416  -2.502  0.00  0.00    +0.409 C 
ATOM     36  F   UNL     1       1.217  -0.982  -1.362  0.00  0.00    -0.169 F 
ATOM     37  F   UNL     1       1.332  -2.314  -3.215  0.00  0.00    -0.169 F 
ATOM     38  F   UNL     1       0.229  -0.316  -3.312  0.00  0.00    -0.169 F 
ENDBRANCH   3  35
TORSDOF 5
