REMARK  Name = ZINC13336883
REMARK  9 active torsions:
REMARK  status: ('A' for Active; 'I' for Inactive)
REMARK    1  A    between atoms: C_1  and  C_2
REMARK    2  A    between atoms: C_2  and  C_4
REMARK    3  A    between atoms: C_2  and  N_6
REMARK    4  A    between atoms: N_6  and  S_7
REMARK    5  A    between atoms: S_7  and  C_10
REMARK    6  A    between atoms: C_13  and  C_16
REMARK    7  A    between atoms: C_16  and  C_28
REMARK    8  A    between atoms: N_17  and  N_18
REMARK    9  A    between atoms: N_18  and  C_19
REMARK                            x       y       z     vdW  Elec       q    Type
REMARK                         _______ _______ _______ _____ _____    ______ ____
ROOT
ATOM      1  C   UNL     1       2.825   4.573   2.535  0.00  0.00    +0.105 A 
ATOM      2  C   UNL     1       1.606   4.878   3.115  0.00  0.00    +0.029 A 
ATOM      3  C   UNL     1       1.393   4.625   4.454  0.00  0.00    +0.011 A 
ATOM      4  C   UNL     1       2.416   4.071   5.228  0.00  0.00    -0.002 A 
ATOM      5  C   UNL     1       3.646   3.771   4.637  0.00  0.00    +0.011 A 
ATOM      6  C   UNL     1       3.842   4.024   3.295  0.00  0.00    +0.029 A 
ENDROOT
BRANCH   1   7
ATOM      7  S   UNL     1       3.084   4.892   0.822  0.00  0.00    +0.059 S 
ATOM      8  O   UNL     1       4.487   5.030   0.642  0.00  0.00    -0.153 OA
ATOM      9  O   UNL     1       2.165   5.911   0.454  0.00  0.00    -0.153 OA
BRANCH   7  10
ATOM     10  N   UNL     1       2.634   3.529  -0.004  0.00  0.00    -0.176 NA
ATOM     11  H   UNL     1       3.297   3.018  -0.495  0.00  0.00    +0.149 HD
BRANCH  10  13
ATOM     12  C   UNL     1       0.522   3.639  -1.233  0.00  0.00    +0.038 C 
ATOM     13  C   UNL     1       1.235   3.094   0.007  0.00  0.00    +0.186 C 
BRANCH  13  14
ATOM     14  C   UNL     1       1.177   1.588  -0.001  0.00  0.00    +0.374 C 
ATOM     15  O   UNL     1       2.199   0.944  -0.014  0.00  0.00    -0.245 OA
ATOM     16  O   UNL     1      -0.011   0.963   0.007  0.00  0.00    -0.245 OA
ENDBRANCH  13  14
ENDBRANCH  10  13
ENDBRANCH   7  10
ENDBRANCH   1   7
BRANCH   4  17
ATOM     17  C   UNL     1       2.199   3.805   6.662  0.00  0.00    +0.063 C 
ATOM     18  N   UNL     1       3.152   3.290   7.378  0.00  0.00    -0.187 NA
ATOM     19  C   UNL     1       0.871   4.130   7.296  0.00  0.00    +0.068 C 
BRANCH  18  20
ATOM     20  N   UNL     1       2.946   3.036   8.740  0.00  0.00    -0.235 N 
ATOM     21  H   UNL     1       2.091   3.246   9.149  0.00  0.00    +0.174 HD
BRANCH  20  22
ATOM     22  C   UNL     1       3.971   2.482   9.511  0.00  0.00    +0.085 A 
ATOM     23  C   UNL     1       5.066   1.892   8.892  0.00  0.00    +0.066 A 
ATOM     24  C   UNL     1       6.081   1.349   9.657  0.00  0.00    +0.042 A 
ATOM     25  C   UNL     1       6.002   1.383  11.038  0.00  0.00    +0.044 A 
ATOM     26  C   UNL     1       4.910   1.966  11.658  0.00  0.00    +0.042 A 
ATOM     27  C   UNL     1       3.895   2.515  10.899  0.00  0.00    +0.066 A 
ATOM     28 CL   UNL     1       2.526   3.246  11.677  0.00  0.00    -0.081 Cl
ATOM     29 CL   UNL     1       7.276   0.695  11.996  0.00  0.00    -0.083 Cl
ATOM     30 CL   UNL     1       5.163   1.841   7.159  0.00  0.00    -0.081 Cl
ENDBRANCH  20  22
ENDBRANCH  18  20
ENDBRANCH   4  17
TORSDOF 7
