REMARK  Name = ZINC66243914
REMARK  6 active torsions:
REMARK  status: ('A' for Active; 'I' for Inactive)
REMARK    1  A    between atoms: C_4  and  O_7
REMARK    2  A    between atoms: O_7  and  C_8
REMARK    3  A    between atoms: C_13  and  C_14
REMARK    4  A    between atoms: C_14  and  N_15
REMARK    5  A    between atoms: N_17  and  C_18
REMARK    6  A    between atoms: C_18  and  C_19
REMARK                            x       y       z     vdW  Elec       q    Type
REMARK                         _______ _______ _______ _____ _____    ______ ____
ROOT
ATOM      1  C   UNL     1       6.067  -1.970   0.148  0.00  0.00    +0.154 C 
ENDROOT
BRANCH   1   2
ATOM      2  N   UNL     1       6.331  -1.426   1.483  0.00  0.00    -0.354 N 
ATOM      3  C   UNL     1       7.484  -0.717   1.720  0.00  0.00    +0.169 C 
ATOM      4  N   UNL     1       7.719  -0.233   2.908  0.00  0.00    -0.355 N 
ATOM      5  N   UNL     1       8.390  -0.517   0.705  0.00  0.00    -0.371 N 
ATOM      6  H   UNL     1       5.692  -1.567   2.199  0.00  0.00    +0.163 HD
ATOM      7  H   UNL     1       8.215  -0.877  -0.178  0.00  0.00    +0.159 HD
ATOM      8  H   UNL     1       9.203  -0.016   0.873  0.00  0.00    +0.159 HD
ATOM      9  H   UNL     1       7.080  -0.374   3.624  0.00  0.00    +0.162 HD
BRANCH   4  10
ATOM     10  C   UNL     1       8.948   0.523   3.161  0.00  0.00    +0.147 C 
BRANCH  10  11
ATOM     11  C   UNL     1       8.977   0.974   4.622  0.00  0.00    +0.137 C 
ATOM     12  C   UNL     1      10.254   1.807   4.903  0.00  0.00    +0.035 C 
ATOM     13  C   UNL     1       9.791   2.656   6.117  0.00  0.00    +0.031 C 
ATOM     14  C   UNL     1       8.296   2.887   5.806  0.00  0.00    +0.160 C 
ATOM     15  O   UNL     1       7.881   1.863   4.892  0.00  0.00    -0.375 OA
ENDBRANCH  10  11
ENDBRANCH   4  10
ENDBRANCH   1   2
BRANCH   1  21
ATOM     16  C   UNL     1       3.561  -1.987   0.061  0.00  0.00    +0.133 A 
ATOM     17  C   UNL     1       2.348  -2.662   0.062  0.00  0.00    +0.046 A 
ATOM     18  C   UNL     1       2.325  -4.039   0.161  0.00  0.00    +0.004 A 
ATOM     19  C   UNL     1       3.510  -4.746   0.260  0.00  0.00    +0.001 A 
ATOM     20  C   UNL     1       4.720  -4.076   0.259  0.00  0.00    +0.009 A 
ATOM     21  C   UNL     1       4.748  -2.699   0.155  0.00  0.00    +0.014 A 
BRANCH  16  22
ATOM     22  O   UNL     1       3.586  -0.632  -0.036  0.00  0.00    -0.456 OA
BRANCH  22  26
ATOM     23  C   UNL     1      -0.012   1.385   0.070  0.00  0.00    +0.000 A 
ATOM     24  C   UNL     1       0.445   0.729   1.198  0.00  0.00    +0.004 A 
ATOM     25  C   UNL     1       1.649   0.053   1.165  0.00  0.00    +0.046 A 
ATOM     26  C   UNL     1       2.400   0.032  -0.001  0.00  0.00    +0.128 A 
ATOM     27  C   UNL     1       1.939   0.691  -1.132  0.00  0.00    +0.046 A 
ATOM     28  C   UNL     1       0.735   1.366  -1.093  0.00  0.00    +0.004 A 
ENDBRANCH  22  26
ENDBRANCH  16  22
ENDBRANCH   1  21
TORSDOF 6
