REMARK  Name = ZINC41249310
REMARK  4 active torsions:
REMARK  status: ('A' for Active; 'I' for Inactive)
REMARK    1  A    between atoms: C_1  and  C_2
REMARK    2  A    between atoms: C_2  and  C_4
REMARK    3  A    between atoms: C_2  and  N_15
REMARK    4  A    between atoms: C_16  and  C_18
REMARK                            x       y       z     vdW  Elec       q    Type
REMARK                         _______ _______ _______ _____ _____    ______ ____
ROOT
ATOM      1  C   UNL     1       0.648   1.326   0.392  0.00  0.00    +0.038 C 
ATOM      2  C   UNL     1       0.002  -0.005   0.002  0.00  0.00    +0.157 C 
ENDROOT
BRANCH   2   3
ATOM      3  C   UNL     1       0.597  -0.491  -1.294  0.00  0.00    +0.240 C 
ATOM      4  O   UNL     1       1.544  -1.248  -1.280  0.00  0.00    -0.273 OA
ATOM      5  N   UNL     1       0.076  -0.085  -2.469  0.00  0.00    -0.269 N 
ATOM      6  C   UNL     1      -0.990   0.909  -2.617  0.00  0.00    +0.118 C 
ATOM      7  C   UNL     1      -1.227   1.024  -4.131  0.00  0.00    +0.056 C 
ATOM      8  C   UNL     1      -0.244   0.053  -4.746  0.00  0.00    -0.024 A 
ATOM      9  C   UNL     1       0.479  -0.546  -3.726  0.00  0.00    +0.040 A 
ATOM     10  C   UNL     1       1.460  -1.484  -4.052  0.00  0.00    +0.024 A 
ATOM     11  C   UNL     1       1.706  -1.804  -5.371  0.00  0.00    +0.002 A 
ATOM     12  C   UNL     1       0.983  -1.197  -6.380  0.00  0.00    +0.000 A 
ATOM     13  C   UNL     1       0.003  -0.273  -6.065  0.00  0.00    +0.005 A 
ENDBRANCH   2   3
BRANCH   2  14
ATOM     14  N   UNL     1       0.248  -0.994   1.054  0.00  0.00    -0.300 N 
ATOM     15  C   UNL     1      -0.570  -1.058   2.123  0.00  0.00    +0.245 C 
ATOM     16  O   UNL     1      -1.512  -0.295   2.215  0.00  0.00    -0.270 OA
ATOM     17  H   UNL     1       0.999  -1.603   0.982  0.00  0.00    +0.150 HD
BRANCH  15  18
ATOM     18  C   UNL     1      -0.322  -2.056   3.184  0.00  0.00    +0.040 A 
ATOM     19  C   UNL     1       0.763  -2.929   3.085  0.00  0.00    +0.016 A 
ATOM     20  C   UNL     1       0.991  -3.859   4.077  0.00  0.00    +0.042 A 
ATOM     21  C   UNL     1       0.145  -3.928   5.173  0.00  0.00    +0.158 A 
ATOM     22  C   UNL     1      -0.935  -3.063   5.279  0.00  0.00    +0.159 A 
ATOM     23  C   UNL     1      -1.168  -2.124   4.293  0.00  0.00    +0.054 A 
ATOM     24  F   UNL     1      -1.756  -3.135   6.349  0.00  0.00    -0.202 F 
ATOM     25  F   UNL     1       0.374  -4.841   6.143  0.00  0.00    -0.202 F 
ENDBRANCH  15  18
ENDBRANCH   2  14
TORSDOF 3
