REMARK  Name = ZINC39676959
REMARK  10 active torsions:
REMARK  status: ('A' for Active; 'I' for Inactive)
REMARK    1  A    between atoms: C_1  and  C_2
REMARK    2  A    between atoms: C_5  and  C_36
REMARK    3  A    between atoms: C_6  and  C_8
REMARK    4  A    between atoms: C_8  and  C_9
REMARK    5  A    between atoms: C_9  and  N_10
REMARK    6  A    between atoms: C_11  and  C_13
REMARK    7  A    between atoms: C_24  and  C_26
REMARK    8  A    between atoms: C_26  and  C_28
REMARK    9  A    between atoms: C_26  and  O_29
REMARK   10  A    between atoms: O_29  and  C_30
REMARK                            x       y       z     vdW  Elec       q    Type
REMARK                         _______ _______ _______ _____ _____    ______ ____
ROOT
ATOM      1  C   UNL     1       3.554  -5.298   5.751  0.00  0.00    +0.100 C 
ATOM      2  C   UNL     1       2.405  -6.323   5.619  0.00  0.00    +0.121 C 
ATOM      3  N   UNL     1       3.085  -7.631   5.474  0.00  0.00    -0.297 N 
ATOM      4  C   UNL     1       4.232  -7.557   6.411  0.00  0.00    +0.115 C 
ATOM      5  C   UNL     1       4.750  -6.112   6.275  0.00  0.00    -0.004 C 
ATOM      6  C   UNL     1       5.196  -5.580   7.634  0.00  0.00    -0.010 C 
ATOM      7  C   UNL     1       6.422  -6.366   8.107  0.00  0.00    -0.082 C 
ATOM      8  N   UNL     1       7.504  -6.226   7.125  0.00  0.00    +0.379 N 
ATOM      9  C   UNL     1       7.101  -6.824   5.846  0.00  0.00    -0.082 C 
ATOM     10  C   UNL     1       5.904  -6.057   5.278  0.00  0.00    -0.010 C 
ATOM     11  C   UNL     1       2.739  -8.658   4.672  0.00  0.00    +0.256 C 
ATOM     12  O   UNL     1       3.402  -9.673   4.666  0.00  0.00    -0.272 OA
ATOM     13  H   UNL     1       7.708  -5.248   6.988  0.00  0.00    -0.086 HD
ATOM     14  H   UNL     1       8.330  -6.694   7.468  0.00  0.00    -0.086 HD
ENDROOT
BRANCH   1  16
ATOM     15  N   UNL     1       4.388  -3.450   4.333  0.00  0.00    -0.315 N 
ATOM     16  C   UNL     1       3.878  -4.696   4.408  0.00  0.00    +0.218 C 
ATOM     17  O   UNL     1       3.679  -5.332   3.395  0.00  0.00    -0.275 OA
ATOM     18  H   UNL     1       4.547  -2.942   5.144  0.00  0.00    +0.149 HD
BRANCH  15  19
ATOM     19  C   UNL     1       4.702  -2.865   3.028  0.00  0.00    +0.109 C 
BRANCH  19  20
ATOM     20  C   UNL     1       5.263  -1.455   3.223  0.00  0.00    +0.054 C 
BRANCH  20  26
ATOM     21  C   UNL     1       8.568  -0.473  -0.404  0.00  0.00    +0.044 C 
ATOM     22  C   UNL     1       7.168  -0.382   0.145  0.00  0.00    -0.050 A 
ATOM     23  C   UNL     1       6.179   0.254  -0.583  0.00  0.00    +0.003 A 
ATOM     24  C   UNL     1       4.895   0.338  -0.079  0.00  0.00    +0.004 A 
ATOM     25  C   UNL     1       4.598  -0.215   1.153  0.00  0.00    -0.047 A 
ATOM     26  C   UNL     1       5.586  -0.852   1.880  0.00  0.00    -0.043 A 
ATOM     27  C   UNL     1       6.870  -0.940   1.374  0.00  0.00    +0.007 A 
ATOM     28  C   UNL     1       3.199  -0.123   1.703  0.00  0.00    +0.044 C 
ENDBRANCH  20  26
ENDBRANCH  19  20
ENDBRANCH  15  19
ENDBRANCH   1  16
BRANCH  11  29
ATOM     29  C   UNL     1       1.528  -8.543   3.782  0.00  0.00    +0.256 C 
ATOM     30  C   UNL     1       0.270  -8.435   4.645  0.00  0.00    +0.062 C 
BRANCH  29  31
ATOM     31  O   UNL     1       1.438  -9.702   2.950  0.00  0.00    -0.480 OA
BRANCH  31  32
ATOM     32  C   UNL     1       0.773  -9.566   1.773  0.00  0.00    +0.122 A 
ATOM     33  C   UNL     1       0.128  -8.374   1.473  0.00  0.00    +0.045 A 
ATOM     34  C   UNL     1      -0.547  -8.238   0.275  0.00  0.00    +0.004 A 
ATOM     35  C   UNL     1      -0.580  -9.288  -0.624  0.00  0.00    +0.000 A 
ATOM     36  C   UNL     1       0.061 -10.476  -0.328  0.00  0.00    +0.004 A 
ATOM     37  C   UNL     1       0.742 -10.615   0.866  0.00  0.00    +0.045 A 
ENDBRANCH  31  32
ENDBRANCH  29  31
ENDBRANCH  11  29
TORSDOF 7
