REMARK  Name = ZINC20277766
REMARK  5 active torsions:
REMARK  status: ('A' for Active; 'I' for Inactive)
REMARK    1  A    between atoms: C_1  and  C_2
REMARK    2  A    between atoms: C_2  and  C_4
REMARK    3  A    between atoms: C_4  and  N_5
REMARK    4  A    between atoms: C_9  and  N_23
REMARK    5  A    between atoms: C_13  and  C_17
REMARK                            x       y       z     vdW  Elec       q    Type
REMARK                         _______ _______ _______ _____ _____    ______ ____
ROOT
ATOM      1  N   UNL     1       1.200   2.092   0.002  0.00  0.00    -0.261 N 
ATOM      2  C   UNL     1      -0.017   1.390   0.010  0.00  0.00    +0.079 A 
ATOM      3  C   UNL     1      -1.224   2.068   0.031  0.00  0.00    +0.029 A 
ATOM      4  C   UNL     1      -2.412   1.361   0.033  0.00  0.00    +0.025 A 
ATOM      5  C   UNL     1      -2.397  -0.028   0.025  0.00  0.00    +0.028 A 
ATOM      6  C   UNL     1      -1.187  -0.711   0.010  0.00  0.00    +0.070 A 
ATOM      7  C   UNL     1       0.002  -0.004   0.002  0.00  0.00    +0.145 A 
ATOM      8  O   UNL     1       1.195  -0.657  -0.014  0.00  0.00    -0.473 OA
ATOM      9  C   UNL     1       2.266  -0.021  -0.716  0.00  0.00    +0.289 C 
ATOM     10  C   UNL     1       2.333   1.435  -0.328  0.00  0.00    +0.266 C 
ATOM     11  O   UNL     1       3.399   2.013  -0.313  0.00  0.00    -0.271 OA
ENDROOT
BRANCH   9  12
ATOM     12  C   UNL     1       2.031  -0.133  -2.200  0.00  0.00    +0.002 A 
ATOM     13  C   UNL     1       0.755   0.017  -2.711  0.00  0.00    +0.008 A 
ATOM     14  C   UNL     1       0.540  -0.082  -4.073  0.00  0.00    +0.000 A 
ATOM     15  C   UNL     1       1.599  -0.341  -4.923  0.00  0.00    +0.000 A 
ATOM     16  C   UNL     1       2.873  -0.496  -4.412  0.00  0.00    +0.000 A 
ATOM     17  C   UNL     1       3.089  -0.393  -3.050  0.00  0.00    +0.008 A 
ENDBRANCH   9  12
BRANCH   5  18
ATOM     18  N   UNL     1      -3.601  -0.739   0.033  0.00  0.00    -0.358 N 
ATOM     19  H   UNL     1      -3.589  -1.839   0.027  0.00  0.00    +0.142 HD
ATOM     20  H   UNL     1      -4.559  -0.199   0.045  0.00  0.00    +0.142 HD
ENDBRANCH   5  18
BRANCH   1  21
ATOM     21  C   UNL     1       1.239   3.516   0.346  0.00  0.00    +0.143 C 
BRANCH  21  23
ATOM     22  C   UNL     1       0.280   3.620   2.772  0.00  0.00    +0.040 C 
ATOM     23  C   UNL     1       1.455   3.668   1.830  0.00  0.00    -0.062 C 
ATOM     24  C   UNL     1       2.665   3.841   2.301  0.00  0.00    +0.009 C 
ENDBRANCH  21  23
ENDBRANCH   1  21
TORSDOF 4
