REMARK  Name = ZINC67005283
REMARK  7 active torsions:
REMARK  status: ('A' for Active; 'I' for Inactive)
REMARK    1  A    between atoms: C_4  and  N_25
REMARK    2  A    between atoms: C_5  and  C_7
REMARK    3  A    between atoms: C_7  and  N_8
REMARK    4  A    between atoms: N_11  and  C_12
REMARK    5  A    between atoms: C_12  and  C_13
REMARK    6  A    between atoms: C_13  and  C_15
REMARK    7  A    between atoms: C_13  and  N_20
REMARK                            x       y       z     vdW  Elec       q    Type
REMARK                         _______ _______ _______ _____ _____    ______ ____
ROOT
ATOM      1  N   UNL     1       1.593  -2.682   1.307  0.00  0.00    -0.295 N 
ATOM      2  C   UNL     1       1.776  -3.999   1.527  0.00  0.00    +0.300 C 
ATOM      3  O   UNL     1       1.863  -4.766   0.587  0.00  0.00    -0.253 OA
ATOM      4  N   UNL     1       1.863  -4.466   2.788  0.00  0.00    -0.301 N 
ATOM      5  H   UNL     1       1.524  -2.070   2.056  0.00  0.00    +0.151 HD
ATOM      6  H   UNL     1       1.794  -3.854   3.537  0.00  0.00    +0.150 HD
ENDROOT
BRANCH   1   7
ATOM      7  C   UNL     1       1.499  -2.174  -0.064  0.00  0.00    +0.143 C 
BRANCH   7  12
ATOM      8  C   UNL     1      -0.153   1.219  -0.181  0.00  0.00    +0.000 A 
ATOM      9  C   UNL     1       0.925   2.062   0.019  0.00  0.00    +0.002 A 
ATOM     10  C   UNL     1       2.191   1.538   0.193  0.00  0.00    +0.028 A 
ATOM     11  C   UNL     1       2.381   0.163   0.166  0.00  0.00    +0.070 A 
ATOM     12  C   UNL     1       1.297  -0.681  -0.035  0.00  0.00    -0.005 A 
ATOM     13  C   UNL     1       0.033  -0.151  -0.208  0.00  0.00    +0.007 A 
BRANCH  11  14
ATOM     14  N   UNL     1       3.664  -0.372   0.341  0.00  0.00    -0.240 N 
ATOM     15  C   UNL     1       4.799   0.334   0.549  0.00  0.00    +0.114 A 
ATOM     16  C   UNL     1       5.817  -0.550   0.668  0.00  0.00    +0.041 A 
ATOM     17  C   UNL     1       5.289  -1.838   0.528  0.00  0.00    +0.135 A 
ATOM     18  N   UNL     1       3.998  -1.733   0.338  0.00  0.00    -0.175 NA
ENDBRANCH  11  14
ENDBRANCH   7  12
ENDBRANCH   1   7
BRANCH   4  19
ATOM     19  C   UNL     1       2.062  -5.897   3.027  0.00  0.00    +0.098 C 
BRANCH  19  20
ATOM     20  C   UNL     1       2.259  -6.142   4.524  0.00  0.00    +0.016 C 
BRANCH  20  21
ATOM     21  N   UNL     1       2.327  -7.587   4.780  0.00  0.00    +0.387 N 
ATOM     22  C   UNL     1       2.512  -7.842   6.231  0.00  0.00    -0.078 C 
ATOM     23  C   UNL     1       2.007  -9.297   6.402  0.00  0.00    -0.020 C 
ATOM     24  C   UNL     1       0.805  -9.362   5.433  0.00  0.00    -0.020 C 
ATOM     25  C   UNL     1       1.045  -8.230   4.418  0.00  0.00    -0.078 C 
ATOM     26  H   UNL     1       3.083  -7.998   4.254  0.00  0.00    -0.081 HD
ENDBRANCH  20  21
BRANCH  20  27
ATOM     27  C   UNL     1       3.541  -5.491   4.975  0.00  0.00    +0.093 A 
ATOM     28  C   UNL     1       3.643  -4.310   5.610  0.00  0.00    +0.043 A 
ATOM     29  C   UNL     1       5.020  -4.087   5.842  0.00  0.00    +0.041 A 
ATOM     30  C   UNL     1       5.677  -5.145   5.335  0.00  0.00    +0.195 A 
ATOM     31  O   UNL     1       4.776  -5.995   4.816  0.00  0.00    -0.469 OA
ENDBRANCH  20  27
ENDBRANCH  19  20
ENDBRANCH   4  19
TORSDOF 7
