REMARK  Name = ZINC05417453
REMARK  4 active torsions:
REMARK  status: ('A' for Active; 'I' for Inactive)
REMARK    1  A    between atoms: C_1  and  C_2
REMARK    2  A    between atoms: C_5  and  N_23
REMARK    3  A    between atoms: C_7  and  N_8
REMARK    4  A    between atoms: C_9  and  C_11
REMARK                            x       y       z     vdW  Elec       q    Type
REMARK                         _______ _______ _______ _____ _____    ______ ____
ROOT
ATOM      1  N   UNL     1      -4.971  -0.303   0.048  0.00  0.00    -0.281 N 
ATOM      2  C   UNL     1      -4.939   1.045   0.057  0.00  0.00    +0.255 C 
ATOM      3  O   UNL     1      -5.977   1.678   0.063  0.00  0.00    -0.270 OA
ATOM      4  H   UNL     1      -4.147  -0.807  -0.037  0.00  0.00    +0.155 HD
ENDROOT
BRANCH   2   5
ATOM      5  C   UNL     1      -3.647   1.750   0.060  0.00  0.00    +0.122 A 
ATOM      6  C   UNL     1      -2.457   1.041   0.054  0.00  0.00    +0.031 A 
ATOM      7  C   UNL     1      -1.236   1.761   0.051  0.00  0.00    +0.019 A 
ATOM      8  C   UNL     1      -0.012   1.075   0.050  0.00  0.00    +0.026 A 
ATOM      9  C   UNL     1       1.161   1.774   0.054  0.00  0.00    +0.019 A 
ATOM     10  C   UNL     1       1.151   3.163   0.063  0.00  0.00    +0.019 A 
ATOM     11  C   UNL     1      -0.039   3.858   0.070  0.00  0.00    +0.048 A 
ATOM     12  C   UNL     1      -1.247   3.167   0.067  0.00  0.00    +0.139 A 
ATOM     13  O   UNL     1      -2.412   3.851   0.073  0.00  0.00    -0.422 OA
ATOM     14  C   UNL     1      -3.596   3.216   0.070  0.00  0.00    +0.350 A 
ATOM     15  O   UNL     1      -4.629   3.859   0.076  0.00  0.00    -0.244 OA
ATOM     16 BR   UNL     1       2.808   0.846   0.045  0.00  0.00    -0.050 Br
ENDBRANCH   2   5
BRANCH   1  23
ATOM     17  C   UNL     1      -5.159  -2.939  -1.005  0.00  0.00    +0.045 C 
ATOM     18  C   UNL     1      -6.329  -2.262  -0.339  0.00  0.00    -0.029 A 
ATOM     19  C   UNL     1      -7.537  -2.921  -0.225  0.00  0.00    +0.007 A 
ATOM     20  C   UNL     1      -8.611  -2.301   0.386  0.00  0.00    +0.033 A 
ATOM     21  C   UNL     1      -8.479  -1.018   0.886  0.00  0.00    +0.128 A 
ATOM     22  C   UNL     1      -7.272  -0.355   0.781  0.00  0.00    +0.056 A 
ATOM     23  C   UNL     1      -6.193  -0.974   0.162  0.00  0.00    +0.039 A 
BRANCH  21  24
ATOM     24  N   UNL     1      -9.631  -0.357   1.540  0.00  0.00    +0.056 N 
ATOM     25  O   UNL     1     -10.694  -0.943   1.638  0.00  0.00    -0.126 OA
ATOM     26  O   UNL     1      -9.515   0.773   1.980  0.00  0.00    -0.126 OA
ENDBRANCH  21  24
ENDBRANCH   1  23
TORSDOF 3
