REMARK  Name = ZINC04544424
REMARK  5 active torsions:
REMARK  status: ('A' for Active; 'I' for Inactive)
REMARK    1  A    between atoms: C_1  and  C_2
REMARK    2  A    between atoms: C_8  and  N_10
REMARK    3  A    between atoms: C_11  and  C_13
REMARK    4  A    between atoms: C_13  and  C_22
REMARK    5  A    between atoms: C_14  and  C_15
REMARK                            x       y       z     vdW  Elec       q    Type
REMARK                         _______ _______ _______ _____ _____    ______ ____
ROOT
ATOM      1  N   UNL     1       0.018   1.341   0.308  0.00  0.00    -0.308 N 
ATOM      2  C   UNL     1       0.036  -0.006   0.291  0.00  0.00    +0.255 C 
ATOM      3  O   UNL     1      -0.983  -0.631   0.518  0.00  0.00    -0.269 OA
ATOM      4  H   UNL     1       0.831   1.839   0.127  0.00  0.00    +0.149 HD
ENDROOT
BRANCH   1  11
ATOM      5  C   UNL     1      -0.994   3.326  -1.542  0.00  0.00    +0.009 C 
ATOM      6  C   UNL     1      -1.173   3.450  -0.028  0.00  0.00    +0.006 C 
ATOM      7  C   UNL     1      -2.476   4.195   0.272  0.00  0.00    +0.005 C 
ATOM      8  C   UNL     1      -2.655   4.319   1.787  0.00  0.00    +0.000 C 
ATOM      9  C   UNL     1      -2.711   2.922   2.410  0.00  0.00    +0.002 C 
ATOM     10  C   UNL     1      -1.408   2.178   2.110  0.00  0.00    +0.022 C 
ATOM     11  C   UNL     1      -1.229   2.054   0.596  0.00  0.00    +0.076 C 
ENDBRANCH   1  11
BRANCH   2  12
ATOM     12  C   UNL     1       1.288  -0.723  -0.004  0.00  0.00    +0.114 C 
ATOM     13  C   UNL     1       1.306  -2.099  -0.022  0.00  0.00    +0.032 C 
BRANCH  13  14
ATOM     14  C   UNL     1       2.579  -2.814  -0.148  0.00  0.00    -0.024 A 
ATOM     15  C   UNL     1       2.641  -4.024  -0.853  0.00  0.00    +0.009 A 
ATOM     16  C   UNL     1       3.843  -4.687  -0.972  0.00  0.00    +0.020 A 
ATOM     17  C   UNL     1       4.987  -4.166  -0.388  0.00  0.00    +0.041 A 
ATOM     18  C   UNL     1       4.933  -2.972   0.315  0.00  0.00    +0.020 A 
ATOM     19  C   UNL     1       3.740  -2.294   0.439  0.00  0.00    +0.009 A 
ATOM     20 CL   UNL     1       6.495  -5.012  -0.538  0.00  0.00    -0.084 Cl
ENDBRANCH  13  14
BRANCH  12  21
ATOM     21  C   UNL     1       2.487   0.012  -0.271  0.00  0.00    +0.104 C 
ATOM     22  N   UNL     1       3.439   0.595  -0.484  0.00  0.00    -0.191 NA
ENDBRANCH  12  21
ENDBRANCH   2  12
TORSDOF 4
