REMARK  Name = ZINC40922216
REMARK  7 active torsions:
REMARK  status: ('A' for Active; 'I' for Inactive)
REMARK    1  A    between atoms: C_1  and  C_2
REMARK    2  A    between atoms: C_3  and  C_22
REMARK    3  A    between atoms: C_4  and  C_12
REMARK    4  A    between atoms: C_15  and  O_18
REMARK    5  A    between atoms: O_18  and  C_19
REMARK    6  A    between atoms: C_19  and  C_20
REMARK    7  A    between atoms: C_19  and  C_21
REMARK                            x       y       z     vdW  Elec       q    Type
REMARK                         _______ _______ _______ _____ _____    ______ ____
ROOT
ATOM      1  C   UNL     1      -0.996   2.368   0.562  0.00  0.00    +0.061 C 
ATOM      2  C   UNL     1      -0.763   0.889   0.392  0.00  0.00    +0.018 C 
ATOM      3  C   UNL     1      -1.823   0.068   0.347  0.00  0.00    +0.060 C 
ATOM      4  C   UNL     1      -1.701  -1.425   0.192  0.00  0.00    +0.179 C 
ATOM      5  N   UNL     1      -0.332  -1.763  -0.178  0.00  0.00    -0.201 N 
ATOM      6  C   UNL     1       0.704  -0.885  -0.122  0.00  0.00    +0.240 A 
ATOM      7  N   UNL     1       1.771  -1.521  -0.513  0.00  0.00    -0.092 NA
ATOM      8  N   UNL     1       1.479  -2.740  -0.816  0.00  0.00    -0.021 NA
ATOM      9  N   UNL     1       0.216  -2.959  -0.638  0.00  0.00    -0.042 NA
ATOM     10  N   UNL     1       0.527   0.429   0.283  0.00  0.00    -0.286 N 
ATOM     11  H   UNL     1       1.284   0.999   0.485  0.00  0.00    +0.155 HD
ENDROOT
BRANCH   4  12
ATOM     12  C   UNL     1      -2.050  -2.095   1.496  0.00  0.00    -0.018 A 
ATOM     13  C   UNL     1      -1.319  -1.811   2.635  0.00  0.00    +0.009 A 
ATOM     14  C   UNL     1      -1.637  -2.425   3.831  0.00  0.00    +0.046 A 
ATOM     15  C   UNL     1      -2.690  -3.326   3.889  0.00  0.00    +0.121 A 
ATOM     16  C   UNL     1      -3.422  -3.609   2.745  0.00  0.00    +0.046 A 
ATOM     17  C   UNL     1      -3.103  -2.989   1.552  0.00  0.00    +0.009 A 
BRANCH  15  18
ATOM     18  O   UNL     1      -3.004  -3.931   5.065  0.00  0.00    -0.489 OA
BRANCH  18  19
ATOM     19  C   UNL     1      -2.137  -3.685   6.173  0.00  0.00    +0.167 C 
ATOM     20  C   UNL     1      -2.551  -2.385   6.866  0.00  0.00    +0.051 C 
ATOM     21  C   UNL     1      -2.235  -4.845   7.166  0.00  0.00    +0.051 C 
ENDBRANCH  18  19
ENDBRANCH  15  18
ENDBRANCH   4  12
BRANCH   3  22
ATOM     22  C   UNL     1      -3.117   0.632   0.449  0.00  0.00    +0.241 C 
ATOM     23  O   UNL     1      -3.248   1.836   0.576  0.00  0.00    -0.271 OA
ATOM     24  N   UNL     1      -4.204  -0.164   0.408  0.00  0.00    -0.325 N 
ATOM     25  H   UNL     1      -4.099  -1.123   0.307  0.00  0.00    +0.145 HD
ATOM     26  H   UNL     1      -5.090   0.223   0.478  0.00  0.00    +0.145 HD
ENDBRANCH   3  22
TORSDOF 4
