REMARK  Name = ZINC42828037
REMARK  6 active torsions:
REMARK  status: ('A' for Active; 'I' for Inactive)
REMARK    1  A    between atoms: C_1  and  C_2
REMARK    2  A    between atoms: C_2  and  C_3
REMARK    3  A    between atoms: C_2  and  C_11
REMARK    4  A    between atoms: C_2  and  N_14
REMARK    5  A    between atoms: N_14  and  C_15
REMARK    6  A    between atoms: C_15  and  C_16
REMARK                            x       y       z     vdW  Elec       q    Type
REMARK                         _______ _______ _______ _____ _____    ______ ____
ROOT
ATOM      1  C   UNL     1      -0.038   1.402  -0.071  0.00  0.00    +0.007 C 
ATOM      2  C   UNL     1      -0.232  -0.115  -0.008  0.00  0.00    +0.060 C 
ENDROOT
BRANCH   2   3
ATOM      3  C   UNL     1       0.232  -0.625   1.331  0.00  0.00    -0.030 A 
ATOM      4  C   UNL     1       1.299  -1.502   1.405  0.00  0.00    +0.005 A 
ATOM      5  C   UNL     1       1.725  -1.970   2.634  0.00  0.00    +0.020 A 
ATOM      6  C   UNL     1       1.084  -1.562   3.790  0.00  0.00    +0.042 A 
ATOM      7  C   UNL     1       0.017  -0.685   3.717  0.00  0.00    +0.040 A 
ATOM      8  C   UNL     1      -0.406  -0.213   2.488  0.00  0.00    +0.045 A 
ATOM      9 CL   UNL     1      -1.741   0.893   2.395  0.00  0.00    -0.083 Cl
ATOM     10 CL   UNL     1       1.619  -2.152   5.333  0.00  0.00    -0.083 Cl
ENDBRANCH   2   3
BRANCH   2  11
ATOM     11  C   UNL     1      -1.691  -0.443  -0.193  0.00  0.00    +0.349 C 
ATOM     12  O   UNL     1      -2.034  -1.591  -0.418  0.00  0.00    -0.248 OA
ATOM     13  O   UNL     1      -2.529   0.440  -0.116  0.00  0.00    -0.248 OA
ENDBRANCH   2  11
BRANCH   2  14
ATOM     14  N   UNL     1       0.552  -0.753  -1.074  0.00  0.00    +0.394 N 
ATOM     15  H   UNL     1       1.528  -0.526  -0.956  0.00  0.00    -0.084 HD
ATOM     16  H   UNL     1       0.431  -1.754  -1.027  0.00  0.00    -0.084 HD
BRANCH  14  17
ATOM     17  C   UNL     1       0.090  -0.266  -2.381  0.00  0.00    -0.049 C 
BRANCH  17  18
ATOM     18  C   UNL     1       0.816  -1.024  -3.494  0.00  0.00    +0.101 C 
ATOM     19  C   UNL     1       0.428  -0.433  -4.851  0.00  0.00    +0.030 C 
ATOM     20  C   UNL     1       1.112  -1.236  -5.963  0.00  0.00    +0.005 C 
ATOM     21  C   UNL     1       0.711  -2.708  -5.834  0.00  0.00    +0.028 C 
ATOM     22  C   UNL     1       1.087  -3.212  -4.439  0.00  0.00    +0.160 C 
ATOM     23  O   UNL     1       0.443  -2.403  -3.452  0.00  0.00    -0.378 OA
ENDBRANCH  17  18
ENDBRANCH  14  17
ENDBRANCH   2  14
TORSDOF 5
