REMARK  Name = ZINC63933355
REMARK  7 active torsions:
REMARK  status: ('A' for Active; 'I' for Inactive)
REMARK    1  A    between atoms: C_1  and  C_2
REMARK    2  A    between atoms: C_5  and  N_9
REMARK    3  A    between atoms: C_10  and  O_36
REMARK    4  A    between atoms: C_13  and  O_35
REMARK    5  A    between atoms: C_14  and  C_18
REMARK    6  A    between atoms: C_25  and  O_30
REMARK    7  A    between atoms: O_30  and  C_31
REMARK                            x       y       z     vdW  Elec       q    Type
REMARK                         _______ _______ _______ _____ _____    ______ ____
ROOT
ATOM      1  N   UNL     1      -1.247  -5.952   3.283  0.00  0.00    -0.225 N 
ATOM      2  C   UNL     1      -0.901  -4.538   3.294  0.00  0.00    +0.338 C 
ATOM      3  N   UNL     1      -0.406  -4.085   2.005  0.00  0.00    -0.204 NA
ATOM      4  C   UNL     1       0.064  -4.858   1.105  0.00  0.00    +0.200 C 
ATOM      5  C   UNL     1       0.156  -6.346   1.275  0.00  0.00    +0.179 C 
ATOM      6  C   UNL     1      -0.762  -6.806   2.372  0.00  0.00    +0.237 C 
ATOM      7  O   UNL     1      -1.074  -7.977   2.432  0.00  0.00    -0.274 OA
ENDROOT
BRANCH   5   8
ATOM      8  C   UNL     1       1.593  -6.726   1.636  0.00  0.00    +0.101 C 
ATOM      9  C   UNL     1       1.724  -8.249   1.699  0.00  0.00    +0.124 C 
ATOM     10  C   UNL     1       3.125  -8.536   2.227  0.00  0.00    -0.036 C 
ATOM     11  C   UNL     1       3.698  -9.348   1.350  0.00  0.00    +0.003 A 
ATOM     12  C   UNL     1       5.000 -10.033   1.347  0.00  0.00    +0.055 A 
ATOM     13  C   UNL     1       5.284 -10.799   0.258  0.00  0.00    +0.121 A 
ATOM     14  C   UNL     1       4.419 -10.962  -0.834  0.00  0.00    +0.047 A 
ATOM     15  C   UNL     1       3.196 -10.382  -0.932  0.00  0.00    +0.029 A 
ATOM     16  C   UNL     1       2.772  -9.533   0.190  0.00  0.00    +0.043 A 
ATOM     17  N   UNL     1       1.646  -8.875   0.380  0.00  0.00    -0.376 N 
ATOM     18  C   UNL     1       3.654  -7.866   3.472  0.00  0.00    +0.048 C 
ATOM     19  C   UNL     1       3.342  -6.366   3.319  0.00  0.00    +0.085 C 
ATOM     20  N   UNL     1       1.934  -6.177   2.958  0.00  0.00    -0.310 NA
ATOM     21  H   UNL     1       1.670  -5.205   3.025  0.00  0.00    +0.122 HD
ATOM     22  H   UNL     1       0.900  -8.809  -0.237  0.00  0.00    +0.160 HD
BRANCH  13  23
ATOM     23  O   UNL     1       6.480 -11.444   0.226  0.00  0.00    -0.495 OA
ATOM     24  C   UNL     1       6.757 -12.242  -0.927  0.00  0.00    +0.277 C 
ENDBRANCH  13  23
ENDBRANCH   5   8
BRANCH   1  29
ATOM     25  C   UNL     1      -4.769  -7.928   7.269  0.00  0.00    +0.045 C 
ATOM     26  C   UNL     1      -3.833  -7.403   6.210  0.00  0.00    -0.032 A 
ATOM     27  C   UNL     1      -2.481  -7.292   6.477  0.00  0.00    +0.006 A 
ATOM     28  C   UNL     1      -1.621  -6.811   5.509  0.00  0.00    +0.024 A 
ATOM     29  C   UNL     1      -2.116  -6.439   4.265  0.00  0.00    +0.042 A 
ATOM     30  C   UNL     1      -3.474  -6.552   3.999  0.00  0.00    +0.044 A 
ATOM     31  C   UNL     1      -4.329  -7.038   4.970  0.00  0.00    +0.046 A 
ATOM     32 CL   UNL     1      -6.026  -7.186   4.637  0.00  0.00    -0.083 Cl
ENDBRANCH   1  29
BRANCH   4  33
ATOM     33  O   UNL     1       0.496  -4.314  -0.052  0.00  0.00    -0.495 OA
ATOM     34  H   UNL     1       0.406  -3.352  -0.091  0.00  0.00    +0.293 HD
ENDBRANCH   4  33
BRANCH   2  35
ATOM     35  O   UNL     1      -2.063  -3.779   3.636  0.00  0.00    -0.356 OA
ATOM     36  H   UNL     1      -1.915  -2.824   3.665  0.00  0.00    +0.214 HD
ENDBRANCH   2  35
TORSDOF 5
