REMARK  Name = ZINC58361369
REMARK  9 active torsions:
REMARK  status: ('A' for Active; 'I' for Inactive)
REMARK    1  A    between atoms: C_1  and  C_2
REMARK    2  A    between atoms: C_2  and  C_4
REMARK    3  A    between atoms: C_2  and  O_18
REMARK    4  A    between atoms: N_6  and  C_7
REMARK    5  A    between atoms: C_8  and  C_15
REMARK    6  A    between atoms: O_18  and  C_19
REMARK    7  A    between atoms: C_19  and  C_21
REMARK    8  A    between atoms: C_30  and  N_31
REMARK    9  A    between atoms: C_32  and  C_34
REMARK                            x       y       z     vdW  Elec       q    Type
REMARK                         _______ _______ _______ _____ _____    ______ ____
ROOT
ATOM      1  C   UNL     1      -0.391  -0.019  -0.621  0.00  0.00    +0.062 C 
ATOM      2  C   UNL     1      -0.345  -1.480  -0.168  0.00  0.00    +0.259 C 
ENDROOT
BRANCH   2   3
ATOM      3  C   UNL     1       0.281  -2.321  -1.250  0.00  0.00    +0.258 C 
ATOM      4  O   UNL     1       1.341  -2.876  -1.051  0.00  0.00    -0.271 OA
ATOM      5  N   UNL     1      -0.337  -2.457  -2.440  0.00  0.00    -0.276 N 
ATOM      6  H   UNL     1      -1.184  -2.014  -2.600  0.00  0.00    +0.155 HD
BRANCH   5   7
ATOM      7  C   UNL     1       0.239  -3.232  -3.436  0.00  0.00    +0.084 A 
ATOM      8  C   UNL     1      -0.243  -3.478  -4.708  0.00  0.00    +0.068 A 
ATOM      9  C   UNL     1       0.561  -4.336  -5.576  0.00  0.00    -0.023 A 
ATOM     10  C   UNL     1       1.694  -4.785  -5.005  0.00  0.00    -0.004 A 
ATOM     11  S   UNL     1       1.685  -4.079  -3.377  0.00  0.00    -0.077 S 
ATOM     12  C   UNL     1       2.481  -5.665  -5.938  0.00  0.00    +0.043 C 
ATOM     13  C   UNL     1       1.475  -6.062  -7.042  0.00  0.00    +0.010 C 
ATOM     14  C   UNL     1       0.479  -4.885  -6.998  0.00  0.00    +0.037 C 
BRANCH   8  15
ATOM     15  C   UNL     1      -1.511  -2.901  -5.168  0.00  0.00    +0.244 C 
ATOM     16  O   UNL     1      -1.522  -1.816  -5.718  0.00  0.00    -0.270 OA
ATOM     17  N   UNL     1      -2.664  -3.574  -4.981  0.00  0.00    -0.325 N 
ATOM     18  H   UNL     1      -2.655  -4.439  -4.542  0.00  0.00    +0.145 HD
ATOM     19  H   UNL     1      -3.502  -3.193  -5.285  0.00  0.00    +0.145 HD
ENDBRANCH   8  15
ENDBRANCH   5   7
ENDBRANCH   2   3
BRANCH   2  20
ATOM     20  O   UNL     1       0.433  -1.584   1.026  0.00  0.00    -0.449 OA
BRANCH  20  21
ATOM     21  C   UNL     1      -0.223  -1.456   2.196  0.00  0.00    +0.342 C 
ATOM     22  O   UNL     1      -1.422  -1.261   2.202  0.00  0.00    -0.245 OA
BRANCH  21  23
ATOM     23  C   UNL     1       0.515  -1.552   3.469  0.00  0.00    +0.081 A 
ATOM     24  C   UNL     1       1.862  -1.877   3.461  0.00  0.00    +0.025 A 
ATOM     25  C   UNL     1       2.559  -1.967   4.675  0.00  0.00    -0.017 A 
ATOM     26  C   UNL     1       3.927  -2.293   4.703  0.00  0.00    +0.008 A 
ATOM     27  C   UNL     1       4.576  -2.373   5.896  0.00  0.00    +0.001 A 
ATOM     28  C   UNL     1       3.905  -2.136   7.095  0.00  0.00    +0.001 A 
ATOM     29  C   UNL     1       2.582  -1.818   7.108  0.00  0.00    +0.008 A 
ATOM     30  C   UNL     1       1.876  -1.726   5.896  0.00  0.00    -0.016 A 
ATOM     31  C   UNL     1       0.510  -1.399   5.878  0.00  0.00    +0.032 A 
ATOM     32  C   UNL     1      -0.154  -1.308   4.689  0.00  0.00    +0.048 A 
BRANCH  32  33
ATOM     33  N   UNL     1      -1.509  -0.978   4.678  0.00  0.00    -0.285 N 
ATOM     34  C   UNL     1      -2.346  -1.539   5.573  0.00  0.00    +0.214 C 
ATOM     35  O   UNL     1      -1.909  -2.267   6.439  0.00  0.00    -0.276 OA
ATOM     36  C   UNL     1      -3.826  -1.262   5.497  0.00  0.00    +0.109 C 
ATOM     37  H   UNL     1      -1.849  -0.344   4.028  0.00  0.00    +0.155 HD
ENDBRANCH  32  33
ENDBRANCH  21  23
ENDBRANCH  20  21
ENDBRANCH   2  20
TORSDOF 7
