REMARK  Name = ZINC10718036
REMARK  7 active torsions:
REMARK  status: ('A' for Active; 'I' for Inactive)
REMARK    1  A    between atoms: C_1  and  C_2
REMARK    2  A    between atoms: C_4  and  N_7
REMARK    3  A    between atoms: C_8  and  C_10
REMARK    4  A    between atoms: C_10  and  C_12
REMARK    5  A    between atoms: C_10  and  S_13
REMARK    6  A    between atoms: S_13  and  C_14
REMARK    7  A    between atoms: C_20  and  C_25
REMARK                            x       y       z     vdW  Elec       q    Type
REMARK                         _______ _______ _______ _____ _____    ______ ____
ROOT
ATOM      1  C   UNL     1       5.737   6.320  -0.755  0.00  0.00    +0.171 A 
ATOM      2  N   UNL     1       6.931   6.761  -1.249  0.00  0.00    -0.301 N 
ATOM      3  H   UNL     1       7.572   6.118  -1.589  0.00  0.00    +0.171 HD
ATOM      4  C   UNL     1       7.234   8.072  -1.273  0.00  0.00    +0.261 A 
ATOM      5  O   UNL     1       8.305   8.449  -1.718  0.00  0.00    -0.267 OA
ATOM      6  C   UNL     1       6.286   9.015  -0.771  0.00  0.00    +0.080 A 
ATOM      7  C   UNL     1       6.386  10.470  -0.693  0.00  0.00    +0.004 A 
ATOM      8  C   UNL     1       5.349  11.167  -0.172  0.00  0.00    +0.056 A 
ATOM      9  S   UNL     1       4.167   9.900   0.246  0.00  0.00    -0.076 S 
ATOM     10  C   UNL     1       5.084   8.475  -0.282  0.00  0.00    +0.117 A 
ATOM     11  N   UNL     1       4.843   7.169  -0.291  0.00  0.00    -0.216 NA
ENDROOT
BRANCH   7  12
ATOM     12  C   UNL     1       7.601  11.170  -1.174  0.00  0.00    -0.016 A 
ATOM     13  C   UNL     1       8.862  10.752  -0.753  0.00  0.00    +0.011 A 
ATOM     14  C   UNL     1       9.990  11.404  -1.208  0.00  0.00    +0.039 A 
ATOM     15  C   UNL     1       9.870  12.479  -2.074  0.00  0.00    +0.123 A 
ATOM     16  C   UNL     1       8.618  12.901  -2.491  0.00  0.00    +0.039 A 
ATOM     17  C   UNL     1       7.484  12.252  -2.046  0.00  0.00    +0.011 A 
ATOM     18  F   UNL     1      10.976  13.117  -2.512  0.00  0.00    -0.205 F 
ENDBRANCH   7  12
BRANCH   1  19
ATOM     19  S   UNL     1       5.384   4.594  -0.746  0.00  0.00    -0.075 S 
BRANCH  19  20
ATOM     20  C   UNL     1       3.731   4.615  -0.009  0.00  0.00    +0.137 C 
ATOM     21  C   UNL     1       3.821   5.127   1.430  0.00  0.00    +0.029 C 
BRANCH  20  23
ATOM     22  N   UNL     1       1.827   3.036   0.001  0.00  0.00    -0.253 N 
ATOM     23  C   UNL     1       3.162   3.220  -0.011  0.00  0.00    +0.233 C 
ATOM     24  O   UNL     1       3.906   2.262  -0.023  0.00  0.00    -0.274 OA
ATOM     25  H   UNL     1       1.232   3.803   0.011  0.00  0.00    +0.158 HD
BRANCH  22  29
ATOM     26  C   UNL     1      -1.193  -0.922   0.008  0.00  0.00    +0.069 C 
ATOM     27  C   UNL     1       0.002  -0.004   0.002  0.00  0.00    +0.082 A 
ATOM     28  C   UNL     1      -0.017   1.405   0.010  0.00  0.00    +0.092 A 
ATOM     29  C   UNL     1       1.304   1.752  -0.001  0.00  0.00    +0.224 A 
ATOM     30  O   UNL     1       1.994   0.600  -0.014  0.00  0.00    -0.339 OA
ATOM     31  N   UNL     1       1.256  -0.358  -0.012  0.00  0.00    -0.081 NA
ENDBRANCH  22  29
ENDBRANCH  20  23
ENDBRANCH  19  20
ENDBRANCH   1  19
TORSDOF 5
