REMARK  Name = ZINC37139597
REMARK  10 active torsions:
REMARK  status: ('A' for Active; 'I' for Inactive)
REMARK    1  A    between atoms: C_1  and  C_2
REMARK    2  A    between atoms: C_7  and  N_11
REMARK    3  A    between atoms: N_11  and  C_12
REMARK    4  A    between atoms: C_12  and  C_13
REMARK    5  A    between atoms: C_12  and  C_14
REMARK    6  A    between atoms: C_14  and  C_15
REMARK    7  A    between atoms: C_15  and  C_16
REMARK    8  A    between atoms: C_15  and  C_17
REMARK    9  A    between atoms: C_15  and  O_18
REMARK   10  A    between atoms: O_18  and  C_19
REMARK                            x       y       z     vdW  Elec       q    Type
REMARK                         _______ _______ _______ _____ _____    ______ ____
ROOT
ATOM      1  C   UNL     1      -0.018   1.503   0.010  0.00  0.00    +0.086 C 
ATOM      2  C   UNL     1       0.002  -0.004   0.002  0.00  0.00    +0.105 A 
ATOM      3  N   UNL     1       0.008  -0.743  -1.068  0.00  0.00    -0.233 NA
ATOM      4  C   UNL     1       0.027  -2.056  -0.717  0.00  0.00    +0.089 A 
ATOM      5  C   UNL     1       0.041  -3.247  -1.448  0.00  0.00    +0.031 A 
ATOM      6  C   UNL     1       0.060  -4.447  -0.796  0.00  0.00    +0.025 A 
ATOM      7  C   UNL     1       0.067  -4.498   0.597  0.00  0.00    +0.029 A 
ATOM      8  C   UNL     1       0.054  -3.329   1.339  0.00  0.00    +0.050 A 
ATOM      9  C   UNL     1       0.034  -2.103   0.688  0.00  0.00    +0.068 A 
ATOM     10  N   UNL     1       0.023  -0.790   1.114  0.00  0.00    -0.342 N 
ATOM     11  H   UNL     1       0.028  -0.484   2.034  0.00  0.00    +0.167 HD
ENDROOT
BRANCH   7  12
ATOM     12  N   UNL     1       0.086  -5.735   1.247  0.00  0.00    -0.341 N 
ATOM     13  H   UNL     1       0.090  -5.774   2.217  0.00  0.00    +0.146 HD
BRANCH  12  14
ATOM     14  C   UNL     1       0.099  -6.974   0.466  0.00  0.00    +0.070 C 
ATOM     15  C   UNL     1      -1.334  -7.358   0.093  0.00  0.00    +0.028 C 
BRANCH  14  16
ATOM     16  C   UNL     1       0.727  -8.095   1.296  0.00  0.00    +0.056 C 
BRANCH  16  17
ATOM     17  C   UNL     1       2.198  -7.769   1.563  0.00  0.00    +0.065 C 
ATOM     18  C   UNL     1       2.858  -8.945   2.286  0.00  0.00    +0.041 C 
ATOM     19  C   UNL     1       2.914  -7.520   0.235  0.00  0.00    +0.041 C 
BRANCH  17  20
ATOM     20  O   UNL     1       2.286  -6.599   2.379  0.00  0.00    -0.377 OA
ATOM     21  C   UNL     1       3.625  -6.206   2.689  0.00  0.00    +0.194 C 
ENDBRANCH  17  20
ENDBRANCH  16  17
ENDBRANCH  14  16
ENDBRANCH  12  14
ENDBRANCH   7  12
TORSDOF 5
