REMARK  Name = ZINC34792782
REMARK  6 active torsions:
REMARK  status: ('A' for Active; 'I' for Inactive)
REMARK    1  A    between atoms: C_1  and  C_2
REMARK    2  A    between atoms: C_5  and  N_8
REMARK    3  A    between atoms: C_9  and  C_11
REMARK    4  A    between atoms: C_11  and  N_12
REMARK    5  A    between atoms: C_18  and  C_25
REMARK    6  A    between atoms: N_23  and  C_24
REMARK                            x       y       z     vdW  Elec       q    Type
REMARK                         _______ _______ _______ _____ _____    ______ ____
ROOT
ATOM      1  N   UNL     1       0.530  -6.922   2.510  0.00  0.00    -0.283 N 
ATOM      2  C   UNL     1       1.748  -7.103   3.314  0.00  0.00    +0.160 C 
ATOM      3  C   UNL     1       1.259  -7.599   4.656  0.00  0.00    +0.042 C 
ATOM      4  C   UNL     1      -0.085  -7.671   4.567  0.00  0.00    +0.058 C 
ATOM      5  C   UNL     1      -0.514  -7.262   3.287  0.00  0.00    +0.247 C 
ATOM      6  O   UNL     1      -1.678  -7.225   2.931  0.00  0.00    -0.270 OA
ATOM      7  C   UNL     1      -0.848  -8.147   5.787  0.00  0.00    +0.143 C 
ATOM      8  N   UNL     1      -0.052  -8.493   6.977  0.00  0.00    -0.288 N 
ATOM      9  C   UNL     1       1.288  -8.368   6.912  0.00  0.00    +0.307 C 
ATOM     10  O   UNL     1       1.953  -8.651   7.890  0.00  0.00    -0.252 OA
ATOM     11  N   UNL     1       1.911  -7.942   5.806  0.00  0.00    -0.260 N 
ATOM     12  C   UNL     1       3.372  -7.838   5.830  0.00  0.00    +0.139 C 
ATOM     13  H   UNL     1      -0.483  -8.803   7.789  0.00  0.00    +0.151 HD
ENDROOT
BRANCH   7  14
ATOM     14  C   UNL     1      -1.644  -9.364   5.391  0.00  0.00    -0.004 A 
ATOM     15  C   UNL     1      -1.319 -10.059   4.242  0.00  0.00    +0.007 A 
ATOM     16  C   UNL     1      -2.050 -11.175   3.879  0.00  0.00    +0.000 A 
ATOM     17  C   UNL     1      -3.106 -11.597   4.666  0.00  0.00    +0.001 A 
ATOM     18  C   UNL     1      -3.432 -10.902   5.815  0.00  0.00    +0.020 A 
ATOM     19  C   UNL     1      -2.697  -9.788   6.182  0.00  0.00    +0.046 A 
ATOM     20 CL   UNL     1      -3.102  -8.919   7.629  0.00  0.00    -0.083 Cl
ENDBRANCH   7  14
BRANCH   1  21
ATOM     21  C   UNL     1       0.465  -6.453   1.124  0.00  0.00    +0.204 C 
BRANCH  21  23
ATOM     22  N   UNL     1       0.271  -4.294  -0.067  0.00  0.00    -0.284 N 
ATOM     23  C   UNL     1       0.347  -4.951   1.107  0.00  0.00    +0.235 C 
ATOM     24  O   UNL     1       0.319  -4.333   2.150  0.00  0.00    -0.274 OA
ATOM     25  H   UNL     1       0.218  -4.791  -0.899  0.00  0.00    +0.155 HD
BRANCH  22  30
ATOM     26  C   UNL     1       0.265   1.379  -0.151  0.00  0.00    +0.044 C 
ATOM     27  C   UNL     1       0.267  -0.128  -0.129  0.00  0.00    -0.050 A 
ATOM     28  C   UNL     1       0.988  -0.803   0.840  0.00  0.00    +0.005 A 
ATOM     29  C   UNL     1       0.991  -2.184   0.863  0.00  0.00    +0.023 A 
ATOM     30  C   UNL     1       0.269  -2.895  -0.088  0.00  0.00    +0.033 A 
ATOM     31  C   UNL     1      -0.454  -2.214  -1.058  0.00  0.00    +0.023 A 
ATOM     32  C   UNL     1      -0.457  -0.833  -1.073  0.00  0.00    +0.005 A 
ENDBRANCH  22  30
ENDBRANCH  21  23
ENDBRANCH   1  21
TORSDOF 4
