REMARK  Name = ZINC66233579
REMARK  10 active torsions:
REMARK  status: ('A' for Active; 'I' for Inactive)
REMARK    1  A    between atoms: C_1  and  C_2
REMARK    2  A    between atoms: C_2  and  C_26
REMARK    3  A    between atoms: C_8  and  O_11
REMARK    4  A    between atoms: O_11  and  C_12
REMARK    5  A    between atoms: C_12  and  C_13
REMARK    6  A    between atoms: C_13  and  N_14
REMARK    7  A    between atoms: N_17  and  C_18
REMARK    8  A    between atoms: C_18  and  C_19
REMARK    9  A    between atoms: C_19  and  C_20
REMARK   10  A    between atoms: N_24  and  C_25
REMARK                            x       y       z     vdW  Elec       q    Type
REMARK                         _______ _______ _______ _____ _____    ______ ____
ROOT
ATOM      1  N   UNL     1       3.019  -1.952   5.611  0.00  0.00    -0.296 N 
ATOM      2  C   UNL     1       2.583  -2.098   6.878  0.00  0.00    +0.300 C 
ATOM      3  O   UNL     1       2.880  -1.274   7.721  0.00  0.00    -0.253 OA
ATOM      4  N   UNL     1       1.819  -3.157   7.210  0.00  0.00    -0.299 N 
ATOM      5  H   UNL     1       2.782  -2.609   4.938  0.00  0.00    +0.150 HD
ATOM      6  H   UNL     1       1.582  -3.814   6.537  0.00  0.00    +0.150 HD
ENDROOT
BRANCH   1   7
ATOM      7  C   UNL     1       3.850  -0.801   5.250  0.00  0.00    +0.146 C 
BRANCH   7   8
ATOM      8  C   UNL     1       4.205  -0.874   3.764  0.00  0.00    +0.248 C 
BRANCH   8   9
ATOM      9  O   UNL     1       3.016  -0.742   2.983  0.00  0.00    -0.487 OA
BRANCH   9  17
ATOM     10  C   UNL     1      -0.019   1.526   0.010  0.00  0.00    +0.056 C 
ATOM     11  C   UNL     1       0.002  -0.004   0.002  0.00  0.00    +0.109 C 
ATOM     12  C   UNL     1       0.832  -0.534  -1.191  0.00  0.00    +0.086 C 
ATOM     13  C   UNL     1       2.204  -0.704  -0.568  0.00  0.00    +0.002 A 
ATOM     14  C   UNL     1       3.456  -0.875  -1.120  0.00  0.00    +0.007 A 
ATOM     15  C   UNL     1       4.564  -1.000  -0.301  0.00  0.00    +0.004 A 
ATOM     16  C   UNL     1       4.412  -0.953   1.073  0.00  0.00    +0.049 A 
ATOM     17  C   UNL     1       3.157  -0.786   1.631  0.00  0.00    +0.162 A 
ATOM     18  C   UNL     1       2.034  -0.662   0.808  0.00  0.00    +0.166 A 
ATOM     19  O   UNL     1       0.721  -0.510   1.139  0.00  0.00    -0.482 OA
ATOM     20  C   UNL     1      -1.422  -0.563  -0.032  0.00  0.00    +0.056 C 
ENDBRANCH   9  17
ENDBRANCH   8   9
ENDBRANCH   7   8
ENDBRANCH   1   7
BRANCH   4  21
ATOM     21  C   UNL     1       1.345  -3.316   8.587  0.00  0.00    +0.113 C 
BRANCH  21  22
ATOM     22  C   UNL     1       0.505  -4.590   8.694  0.00  0.00    +0.091 C 
BRANCH  22  23
ATOM     23  C   UNL     1       0.018  -4.753  10.111  0.00  0.00    +0.088 A 
ATOM     24  N   UNL     1      -1.056  -4.208  10.613  0.00  0.00    -0.350 N 
ATOM     25  C   UNL     1      -1.177  -4.572  11.899  0.00  0.00    +0.101 A 
ATOM     26  C   UNL     1      -0.138  -5.372  12.204  0.00  0.00    +0.104 A 
ATOM     27  N   UNL     1       0.618  -5.492  11.069  0.00  0.00    -0.339 N 
ATOM     28  C   UNL     1       1.849  -6.273  10.922  0.00  0.00    +0.150 C 
ATOM     29  H   UNL     1      -1.671  -3.632  10.133  0.00  0.00    +0.166 HD
ENDBRANCH  22  23
ENDBRANCH  21  22
ENDBRANCH   4  21
TORSDOF 7
