REMARK  Name = ZINC32935271
REMARK  5 active torsions:
REMARK  status: ('A' for Active; 'I' for Inactive)
REMARK    1  A    between atoms: C_1  and  C_2
REMARK    2  A    between atoms: C_2  and  C_9
REMARK    3  A    between atoms: C_13  and  N_15
REMARK    4  A    between atoms: N_15  and  S_16
REMARK    5  A    between atoms: S_16  and  C_19
REMARK                            x       y       z     vdW  Elec       q    Type
REMARK                         _______ _______ _______ _____ _____    ______ ____
ROOT
ATOM      1  C   UNL     1       1.172   3.963   1.218  0.00  0.00    -0.014 A 
ATOM      2  C   UNL     1       2.340   3.584   1.854  0.00  0.00    +0.006 A 
ATOM      3  C   UNL     1       2.725   4.207   3.027  0.00  0.00    +0.002 A 
ATOM      4  C   UNL     1       1.938   5.202   3.573  0.00  0.00    +0.024 A 
ATOM      5  C   UNL     1       0.761   5.580   2.940  0.00  0.00    +0.048 A 
ATOM      6  C   UNL     1       0.380   4.957   1.759  0.00  0.00    +0.030 A 
ENDROOT
BRANCH   1   8
ATOM      7  C   UNL     1       1.271   4.067  -1.276  0.00  0.00    +0.047 C 
ATOM      8  C   UNL     1       0.759   3.286  -0.064  0.00  0.00    +0.135 C 
ATOM      9  C   UNL     1       1.263   1.857  -0.099  0.00  0.00    +0.248 C 
ATOM     10  O   UNL     1       2.417   1.487  -0.070  0.00  0.00    -0.273 OA
ATOM     11  N   UNL     1       0.162   1.083  -0.168  0.00  0.00    -0.238 N 
ATOM     12  C   UNL     1      -0.956   1.818  -0.187  0.00  0.00    +0.307 C 
ATOM     13  O   UNL     1      -2.074   1.345  -0.251  0.00  0.00    -0.252 OA
ATOM     14  N   UNL     1      -0.705   3.138  -0.124  0.00  0.00    -0.282 N 
ATOM     15  H   UNL     1       0.260  -0.012  -0.201  0.00  0.00    +0.159 HD
ATOM     16  H   UNL     1      -1.349   4.030  -0.111  0.00  0.00    +0.152 HD
ENDBRANCH   1   8
BRANCH   5  17
ATOM     17  N   UNL     1      -0.037   6.585   3.490  0.00  0.00    -0.216 N 
ATOM     18  H   UNL     1      -0.434   7.386   2.849  0.00  0.00    +0.174 HD
BRANCH  17  19
ATOM     19  S   UNL     1      -0.388   6.571   5.109  0.00  0.00    +0.072 S 
ATOM     20  O   UNL     1       0.853   6.460   5.792  0.00  0.00    -0.150 OA
ATOM     21  O   UNL     1      -1.291   7.644   5.338  0.00  0.00    -0.150 OA
BRANCH  19  22
ATOM     22  C   UNL     1      -1.278   5.086   5.436  0.00  0.00    +0.112 A 
ATOM     23  C   UNL     1      -0.605   3.965   5.886  0.00  0.00    +0.032 A 
ATOM     24  C   UNL     1      -1.297   2.795   6.145  0.00  0.00    +0.051 A 
ATOM     25  C   UNL     1      -2.667   2.751   5.952  0.00  0.00    +0.162 A 
ATOM     26  C   UNL     1      -3.342   3.876   5.501  0.00  0.00    +0.164 A 
ATOM     27  C   UNL     1      -2.648   5.047   5.248  0.00  0.00    +0.078 A 
ATOM     28  O   UNL     1      -4.693   3.823   5.313  0.00  0.00    -0.488 OA
ATOM     29  C   UNL     1      -5.483   3.694   6.497  0.00  0.00    +0.232 C 
ATOM     30  C   UNL     1      -5.596   2.236   6.914  0.00  0.00    +0.082 C 
ATOM     31  C   UNL     1      -4.254   1.644   7.317  0.00  0.00    +0.232 C 
ATOM     32  O   UNL     1      -3.362   1.603   6.202  0.00  0.00    -0.488 OA
ENDBRANCH  19  22
ENDBRANCH  17  19
ENDBRANCH   5  17
TORSDOF 4
