REMARK  Name = ZINC67592107
REMARK  8 active torsions:
REMARK  status: ('A' for Active; 'I' for Inactive)
REMARK    1  A    between atoms: C_1  and  C_2
REMARK    2  A    between atoms: C_5  and  C_9
REMARK    3  A    between atoms: C_6  and  O_8
REMARK    4  A    between atoms: N_11  and  N_12
REMARK    5  A    between atoms: C_13  and  C_15
REMARK    6  A    between atoms: C_18  and  C_20
REMARK    7  A    between atoms: C_20  and  N_21
REMARK    8  A    between atoms: C_22  and  C_24
REMARK                            x       y       z     vdW  Elec       q    Type
REMARK                         _______ _______ _______ _____ _____    ______ ____
ROOT
ATOM      1  N   UNL     1       0.079  -6.316  -1.222  0.00  0.00    -0.230 N 
ATOM      2  C   UNL     1       0.081  -6.979  -2.396  0.00  0.00    +0.267 C 
ATOM      3  O   UNL     1       0.068  -6.361  -3.444  0.00  0.00    -0.268 OA
ATOM      4  H   UNL     1       0.089  -6.809  -0.387  0.00  0.00    +0.173 HD
ENDROOT
BRANCH   2   5
ATOM      5  C   UNL     1       0.100  -8.445  -2.409  0.00  0.00    +0.076 A 
ATOM      6  C   UNL     1       0.112  -9.309  -3.494  0.00  0.00    +0.021 A 
ATOM      7  C   UNL     1       0.130 -10.649  -3.189  0.00  0.00    +0.013 A 
ATOM      8  C   UNL     1       0.135 -11.029  -1.887  0.00  0.00    +0.008 A 
ATOM      9  S   UNL     1       0.123  -9.581  -1.036  0.00  0.00    -0.087 S 
BRANCH   8  10
ATOM     10  C   UNL     1       0.153 -12.430  -1.332  0.00  0.00    +0.146 C 
BRANCH  10  11
ATOM     11  N   UNL     1       1.540 -12.866  -1.153  0.00  0.00    -0.311 N 
ATOM     12  C   UNL     1       1.802 -14.095  -0.664  0.00  0.00    +0.210 C 
ATOM     13  O   UNL     1       0.890 -14.839  -0.374  0.00  0.00    -0.276 OA
ATOM     14  C   UNL     1       3.229 -14.544  -0.480  0.00  0.00    +0.109 C 
ATOM     15  H   UNL     1       2.270 -12.271  -1.385  0.00  0.00    +0.149 HD
ENDBRANCH  10  11
ENDBRANCH   8  10
ENDBRANCH   2   5
BRANCH   1  18
ATOM     16  C   UNL     1       0.058  -4.252  -0.036  0.00  0.00    +0.264 C 
ATOM     17  O   UNL     1       0.071  -4.870   1.011  0.00  0.00    -0.269 OA
ATOM     18  N   UNL     1       0.061  -4.915  -1.209  0.00  0.00    -0.230 N 
ATOM     19  H   UNL     1       0.050  -4.423  -2.045  0.00  0.00    +0.173 HD
BRANCH  16  24
ATOM     20  C   UNL     1      -0.018   1.503   0.010  0.00  0.00    +0.044 C 
ATOM     21  C   UNL     1       0.002  -0.004   0.002  0.00  0.00    -0.047 A 
ATOM     22  C   UNL     1       0.006  -0.686  -1.204  0.00  0.00    +0.004 A 
ATOM     23  C   UNL     1       0.024  -2.064  -1.224  0.00  0.00    +0.017 A 
ATOM     24  C   UNL     1       0.039  -2.777  -0.022  0.00  0.00    +0.079 A 
ATOM     25  C   UNL     1       0.036  -2.084   1.195  0.00  0.00    +0.129 A 
ATOM     26  C   UNL     1       0.023  -0.697   1.196  0.00  0.00    +0.049 A 
BRANCH  25  27
ATOM     27  O   UNL     1       0.050  -2.766   2.368  0.00  0.00    -0.506 OA
ATOM     28  H   UNL     1       0.938  -2.952   2.704  0.00  0.00    +0.292 HD
ENDBRANCH  25  27
ENDBRANCH  16  24
ENDBRANCH   1  18
TORSDOF 6
