REMARK  Name = ZINC20728521
REMARK  9 active torsions:
REMARK  status: ('A' for Active; 'I' for Inactive)
REMARK    1  A    between atoms: C_1  and  O_2
REMARK    2  A    between atoms: O_2  and  C_3
REMARK    3  A    between atoms: C_6  and  C_13
REMARK    4  A    between atoms: C_7  and  O_11
REMARK    5  A    between atoms: C_8  and  O_9
REMARK    6  A    between atoms: O_9  and  C_10
REMARK    7  A    between atoms: O_11  and  C_12
REMARK    8  A    between atoms: C_15  and  C_31
REMARK    9  A    between atoms: C_16  and  N_30
REMARK                            x       y       z     vdW  Elec       q    Type
REMARK                         _______ _______ _______ _____ _____    ______ ____
ROOT
ATOM      1  C   UNL     1       2.595  -2.541   4.320  0.00  0.00    +0.105 C 
ATOM      2  C   UNL     1       1.911  -2.159   5.603  0.00  0.00    +0.098 C 
ATOM      3  C   UNL     1       2.458  -1.233   6.429  0.00  0.00    +0.199 C 
ATOM      4  O   UNL     1       3.619  -0.630   6.127  0.00  0.00    -0.437 OA
ATOM      5  C   UNL     1       4.469  -1.195   5.241  0.00  0.00    +0.185 C 
ATOM      6  C   UNL     1       4.040  -2.111   4.354  0.00  0.00    +0.059 C 
ATOM      7  C   UNL     1       4.976  -2.715   3.396  0.00  0.00    +0.194 C 
ATOM      8  O   UNL     1       4.576  -3.544   2.601  0.00  0.00    -0.287 OA
ATOM      9  C   UNL     1       6.400  -2.320   3.393  0.00  0.00    +0.033 A 
ATOM     10  C   UNL     1       7.295  -2.880   2.490  0.00  0.00    +0.012 A 
ATOM     11  C   UNL     1       8.626  -2.492   2.508  0.00  0.00    +0.001 A 
ATOM     12  C   UNL     1       9.069  -1.551   3.417  0.00  0.00    +0.001 A 
ATOM     13  C   UNL     1       8.188  -0.983   4.325  0.00  0.00    +0.012 A 
ATOM     14  C   UNL     1       6.851  -1.362   4.319  0.00  0.00    +0.036 A 
ATOM     15  C   UNL     1       5.895  -0.779   5.266  0.00  0.00    +0.229 C 
ATOM     16  O   UNL     1       6.272   0.048   6.071  0.00  0.00    -0.283 OA
ENDROOT
BRANCH   1  20
ATOM     17  C   UNL     1       0.626  -0.619   1.042  0.00  0.00    +0.165 A 
ATOM     18  C   UNL     1       1.202   0.138   2.051  0.00  0.00    +0.050 A 
ATOM     19  C   UNL     1       1.837  -0.486   3.109  0.00  0.00    +0.012 A 
ATOM     20  C   UNL     1       1.901  -1.866   3.165  0.00  0.00    +0.011 A 
ATOM     21  C   UNL     1       1.327  -2.630   2.160  0.00  0.00    +0.169 A 
ATOM     22  C   UNL     1       0.683  -2.006   1.098  0.00  0.00    +0.204 A 
BRANCH  17  24
ATOM     23  C   UNL     1      -0.017   1.425   0.010  0.00  0.00    +0.277 C 
ATOM     24  O   UNL     1       0.002  -0.004   0.002  0.00  0.00    -0.491 OA
ENDBRANCH  17  24
BRANCH  22  25
ATOM     25  O   UNL     1       0.114  -2.752   0.113  0.00  0.00    -0.488 OA
ATOM     26  C   UNL     1       0.939  -3.090  -1.004  0.00  0.00    +0.277 C 
ENDBRANCH  22  25
BRANCH  21  27
ATOM     27  O   UNL     1       1.391  -3.987   2.216  0.00  0.00    -0.491 OA
ATOM     28  C   UNL     1       0.325  -4.659   2.888  0.00  0.00    +0.277 C 
ENDBRANCH  21  27
ENDBRANCH   1  20
BRANCH   3  29
ATOM     29  N   UNL     1       1.811  -0.906   7.595  0.00  0.00    -0.328 N 
ATOM     30  H   UNL     1       0.972  -1.336   7.821  0.00  0.00    +0.145 HD
ATOM     31  H   UNL     1       2.194  -0.244   8.192  0.00  0.00    +0.145 HD
ENDBRANCH   3  29
BRANCH   2  32
ATOM     32  C   UNL     1       0.671  -2.781   5.957  0.00  0.00    +0.101 C 
ATOM     33  N   UNL     1      -0.313  -3.274   6.238  0.00  0.00    -0.191 NA
ENDBRANCH   2  32
TORSDOF 6
