REMARK  Name = ZINC20575032
REMARK  10 active torsions:
REMARK  status: ('A' for Active; 'I' for Inactive)
REMARK    1  A    between atoms: C_1  and  C_2
REMARK    2  A    between atoms: C_5  and  C_30
REMARK    3  A    between atoms: C_6  and  N_8
REMARK    4  A    between atoms: C_9  and  C_11
REMARK    5  A    between atoms: C_12  and  N_29
REMARK    6  A    between atoms: N_13  and  C_16
REMARK    7  A    between atoms: C_16  and  C_17
REMARK    8  A    between atoms: N_19  and  C_20
REMARK    9  A    between atoms: C_23  and  O_27
REMARK   10  A    between atoms: O_27  and  C_28
REMARK                            x       y       z     vdW  Elec       q    Type
REMARK                         _______ _______ _______ _____ _____    ______ ____
ROOT
ATOM      1  C   UNL     1       0.148  -0.565  -4.915  0.00  0.00    +0.188 A 
ATOM      2  C   UNL     1       0.287  -0.938  -6.246  0.00  0.00    +0.148 A 
ATOM      3  N   UNL     1       0.271   0.207  -6.968  0.00  0.00    -0.222 N 
ATOM      4  N   UNL     1       0.122   1.261  -6.057  0.00  0.00    -0.063 NA
ATOM      5  N   UNL     1       0.048   0.777  -4.867  0.00  0.00    -0.123 NA
ENDROOT
BRANCH   1   7
ATOM      6  N   UNL     1      -0.028  -0.979  -2.518  0.00  0.00    -0.280 N 
ATOM      7  C   UNL     1       0.111  -1.474  -3.764  0.00  0.00    +0.272 C 
ATOM      8  O   UNL     1       0.207  -2.675  -3.934  0.00  0.00    -0.268 OA
ATOM      9  H   UNL     1      -0.202   0.097  -2.370  0.00  0.00    +0.155 HD
BRANCH   6  15
ATOM     10  C   UNL     1       1.429  -5.247  -0.562  0.00  0.00    +0.044 C 
ATOM     11  C   UNL     1       0.749  -3.909  -0.437  0.00  0.00    -0.049 A 
ATOM     12  C   UNL     1       0.195  -3.526   0.771  0.00  0.00    +0.004 A 
ATOM     13  C   UNL     1      -0.429  -2.298   0.890  0.00  0.00    +0.005 A 
ATOM     14  C   UNL     1      -0.502  -1.450  -0.197  0.00  0.00    -0.029 A 
ATOM     15  C   UNL     1       0.049  -1.833  -1.413  0.00  0.00    +0.037 A 
ATOM     16  C   UNL     1       0.680  -3.065  -1.528  0.00  0.00    +0.027 A 
ATOM     17  C   UNL     1      -1.184  -0.112  -0.067  0.00  0.00    +0.045 C 
ENDBRANCH   6  15
ENDBRANCH   1   7
BRANCH   2  18
ATOM     18  N   UNL     1       0.416  -2.222  -6.735  0.00  0.00    -0.341 N 
ATOM     19  H   UNL     1       0.519  -2.390  -7.817  0.00  0.00    +0.144 HD
ATOM     20  H   UNL     1       0.415  -3.077  -6.043  0.00  0.00    +0.144 HD
ENDBRANCH   2  18
BRANCH   3  21
ATOM     21  C   UNL     1       0.386   0.323  -8.424  0.00  0.00    +0.243 C 
BRANCH  21  22
ATOM     22  C   UNL     1      -0.987   0.267  -9.043  0.00  0.00    +0.239 C 
ATOM     23  O   UNL     1      -1.965   0.143  -8.337  0.00  0.00    -0.273 OA
ATOM     24  N   UNL     1      -1.127   0.355 -10.380  0.00  0.00    -0.284 N 
ATOM     25  H   UNL     1      -0.237   0.379 -11.026  0.00  0.00    +0.155 HD
BRANCH  24  26
ATOM     26  C   UNL     1      -2.406   0.415 -10.948  0.00  0.00    +0.035 A 
ATOM     27  C   UNL     1      -2.643  -0.159 -12.190  0.00  0.00    +0.027 A 
ATOM     28  C   UNL     1      -3.905  -0.103 -12.747  0.00  0.00    +0.049 A 
ATOM     29  C   UNL     1      -4.935   0.535 -12.072  0.00  0.00    +0.138 A 
ATOM     30  C   UNL     1      -4.698   1.114 -10.833  0.00  0.00    +0.084 A 
ATOM     31  C   UNL     1      -3.436   1.055 -10.272  0.00  0.00    +0.047 A 
ATOM     32 CL   UNL     1      -5.987   1.913  -9.987  0.00  0.00    -0.080 Cl
BRANCH  29  33
ATOM     33  O   UNL     1      -6.176   0.594 -12.624  0.00  0.00    -0.494 OA
ATOM     34  C   UNL     1      -6.348  -0.022 -13.901  0.00  0.00    +0.277 C 
ENDBRANCH  29  33
ENDBRANCH  24  26
ENDBRANCH  21  22
ENDBRANCH   3  21
TORSDOF 7
