REMARK  Name = ZINC16737775
REMARK  6 active torsions:
REMARK  status: ('A' for Active; 'I' for Inactive)
REMARK    1  A    between atoms: C_1  and  C_2
REMARK    2  A    between atoms: N_15  and  C_16
REMARK    3  A    between atoms: C_16  and  C_17
REMARK    4  A    between atoms: C_17  and  C_19
REMARK    5  A    between atoms: C_17  and  O_28
REMARK    6  A    between atoms: C_22  and  N_25
REMARK                            x       y       z     vdW  Elec       q    Type
REMARK                         _______ _______ _______ _____ _____    ______ ____
ROOT
ATOM      1  C   UNL     1       8.640   4.553  -0.194  0.00  0.00    +0.069 C 
ATOM      2  C   UNL     1       7.406   3.849  -0.695  0.00  0.00    +0.081 A 
ATOM      3  C   UNL     1       6.204   3.736  -0.006  0.00  0.00    +0.108 A 
ATOM      4  C   UNL     1       5.324   3.018  -0.805  0.00  0.00    +0.177 A 
ATOM      5  N   UNL     1       4.048   2.641  -0.604  0.00  0.00    -0.211 NA
ATOM      6  C   UNL     1       3.375   1.954  -1.500  0.00  0.00    +0.130 A 
ATOM      7  C   UNL     1       4.038   1.581  -2.758  0.00  0.00    +0.040 A 
ATOM      8  C   UNL     1       3.377   0.858  -3.750  0.00  0.00    +0.013 A 
ATOM      9  C   UNL     1       4.034   0.541  -4.907  0.00  0.00    +0.001 A 
ATOM     10  C   UNL     1       5.349   0.936  -5.103  0.00  0.00    +0.002 A 
ATOM     11  C   UNL     1       6.019   1.656  -4.136  0.00  0.00    +0.028 A 
ATOM     12  C   UNL     1       5.370   1.988  -2.956  0.00  0.00    +0.078 A 
ATOM     13  N   UNL     1       5.999   2.710  -1.956  0.00  0.00    -0.212 N 
ATOM     14  N   UNL     1       7.290   3.242  -1.852  0.00  0.00    -0.168 NA
ATOM     15  N   UNL     1       2.066   1.583  -1.261  0.00  0.00    -0.326 N 
ATOM     16 CL   UNL     1       5.863   4.378   1.571  0.00  0.00    -0.078 Cl
ATOM     17  H   UNL     1       1.576   1.076  -1.927  0.00  0.00    +0.148 HD
ENDROOT
BRANCH  15  18
ATOM     18  C   UNL     1       1.418   1.954  -0.001  0.00  0.00    +0.139 C 
BRANCH  18  19
ATOM     19  C   UNL     1      -0.017   1.425   0.010  0.00  0.00    +0.161 C 
BRANCH  19  20
ATOM     20  C   UNL     1      -0.723   1.911   1.250  0.00  0.00    -0.018 A 
ATOM     21  C   UNL     1      -0.519   1.269   2.457  0.00  0.00    +0.008 A 
ATOM     22  C   UNL     1      -1.162   1.718   3.595  0.00  0.00    +0.033 A 
ATOM     23  C   UNL     1      -2.017   2.802   3.524  0.00  0.00    +0.126 A 
ATOM     24  C   UNL     1      -2.225   3.440   2.316  0.00  0.00    +0.033 A 
ATOM     25  C   UNL     1      -1.578   2.995   1.179  0.00  0.00    +0.008 A 
BRANCH  23  26
ATOM     26  N   UNL     1      -2.711   3.279   4.742  0.00  0.00    +0.056 N 
ATOM     27  O   UNL     1      -3.465   4.234   4.679  0.00  0.00    -0.126 OA
ATOM     28  O   UNL     1      -2.528   2.716   5.807  0.00  0.00    -0.126 OA
ENDBRANCH  23  26
ENDBRANCH  19  20
BRANCH  19  29
ATOM     29  O   UNL     1       0.002  -0.004   0.002  0.00  0.00    -0.386 OA
ATOM     30  H   UNL     1       0.456  -0.395   0.761  0.00  0.00    +0.210 HD
ENDBRANCH  19  29
ENDBRANCH  18  19
ENDBRANCH  15  18
TORSDOF 5
