REMARK  Name = ZINC66616915
REMARK  7 active torsions:
REMARK  status: ('A' for Active; 'I' for Inactive)
REMARK    1  A    between atoms: C_1  and  C_2
REMARK    2  A    between atoms: C_2  and  C_3
REMARK    3  A    between atoms: C_3  and  C_4
REMARK    4  A    between atoms: C_10  and  C_12
REMARK    5  A    between atoms: N_14  and  C_15
REMARK    6  A    between atoms: C_15  and  C_17
REMARK    7  A    between atoms: C_15  and  C_18
REMARK                            x       y       z     vdW  Elec       q    Type
REMARK                         _______ _______ _______ _____ _____    ______ ____
ROOT
ATOM      1  C   UNL     1      -1.853  -4.667  -1.214  0.00  0.00    +0.235 C 
ATOM      2  O   UNL     1      -1.362  -3.868  -1.983  0.00  0.00    -0.274 OA
ATOM      3  N   UNL     1      -1.734  -5.989  -1.450  0.00  0.00    -0.307 N 
ATOM      4  H   UNL     1      -2.126  -6.629  -0.835  0.00  0.00    +0.149 HD
ENDROOT
BRANCH   1  11
ATOM      5  C   UNL     1      -1.413  -2.041   0.005  0.00  0.00    +0.217 C 
ATOM      6  O   UNL     1      -0.354  -2.632  -0.009  0.00  0.00    -0.276 OA
ATOM      7  N   UNL     1      -2.571  -2.730   0.012  0.00  0.00    -0.280 N 
ATOM      8  C   UNL     1      -3.883  -2.047   0.022  0.00  0.00    +0.178 C 
ATOM      9  S   UNL     1      -4.979  -3.367  -0.662  0.00  0.00    -0.139 S 
ATOM     10  C   UNL     1      -4.015  -4.800  -0.003  0.00  0.00    +0.102 C 
ATOM     11  C   UNL     1      -2.595  -4.183   0.004  0.00  0.00    +0.172 C 
BRANCH   5  12
ATOM     12  C   UNL     1      -1.433  -0.534   0.013  0.00  0.00    +0.096 C 
BRANCH  12  14
ATOM     13  C   UNL     1      -0.019   1.526   0.010  0.00  0.00    +0.004 C 
ATOM     14  C   UNL     1       0.002  -0.004   0.002  0.00  0.00    +0.006 C 
ENDBRANCH  12  14
ENDBRANCH   5  12
ENDBRANCH   1  11
BRANCH   3  15
ATOM     15  C   UNL     1      -1.012  -6.460  -2.635  0.00  0.00    +0.100 C 
ATOM     16  C   UNL     1       0.485  -6.529  -2.326  0.00  0.00    +0.033 C 
BRANCH  15  17
ATOM     17  C   UNL     1      -1.510  -7.830  -3.015  0.00  0.00    -0.025 A 
ATOM     18  C   UNL     1      -1.796  -8.758  -2.028  0.00  0.00    +0.007 A 
ATOM     19  C   UNL     1      -2.253 -10.017  -2.366  0.00  0.00    +0.028 A 
ATOM     20  C   UNL     1      -2.427 -10.352  -3.700  0.00  0.00    +0.067 A 
ATOM     21  C   UNL     1      -2.139  -9.416  -4.696  0.00  0.00    +0.067 A 
ATOM     22  C   UNL     1      -1.685  -8.154  -4.346  0.00  0.00    +0.033 A 
ATOM     23  N   UNL     1      -2.407 -10.032  -5.916  0.00  0.00    -0.306 N 
ATOM     24  H   UNL     1      -2.300  -9.627  -6.791  0.00  0.00    +0.170 HD
ATOM     25  C   UNL     1      -2.838 -11.284  -5.674  0.00  0.00    +0.325 A 
ATOM     26  O   UNL     1      -3.158 -12.092  -6.526  0.00  0.00    -0.247 OA
ATOM     27  N   UNL     1      -2.861 -11.507  -4.347  0.00  0.00    -0.306 N 
ATOM     28  H   UNL     1      -3.134 -12.331  -3.914  0.00  0.00    +0.170 HD
ENDBRANCH  15  17
ENDBRANCH   3  15
TORSDOF 5
