REMARK  Name = ZINC06530416
REMARK  5 active torsions:
REMARK  status: ('A' for Active; 'I' for Inactive)
REMARK    1  A    between atoms: C_1  and  C_2
REMARK    2  A    between atoms: C_2  and  C_3
REMARK    3  A    between atoms: C_10  and  N_21
REMARK    4  A    between atoms: C_11  and  C_19
REMARK    5  A    between atoms: C_16  and  C_18
REMARK                            x       y       z     vdW  Elec       q    Type
REMARK                         _______ _______ _______ _____ _____    ______ ____
ROOT
ATOM      1  C   UNL     1      -1.817  -0.379  -0.269  0.00  0.00    +0.044 A 
ATOM      2  C   UNL     1      -2.347  -0.566  -1.487  0.00  0.00    +0.050 A 
ATOM      3  C   UNL     1      -3.714  -0.894  -1.323  0.00  0.00    +0.245 A 
ATOM      4  N   UNL     1      -3.976  -0.898  -0.049  0.00  0.00    -0.135 NA
ATOM      5  N   UNL     1      -2.796  -0.582   0.642  0.00  0.00    -0.278 N 
ATOM      6  H   UNL     1      -2.700  -0.518   1.605  0.00  0.00    +0.189 HD
ATOM      7  O   UNL     1      -4.524  -1.144  -2.386  0.00  0.00    -0.421 OA
ATOM      8  C   UNL     1      -3.946  -1.332  -3.589  0.00  0.00    +0.201 C 
ATOM      9  C   UNL     1      -2.654  -1.045  -3.868  0.00  0.00    +0.099 C 
ATOM     10  C   UNL     1      -1.715  -0.474  -2.845  0.00  0.00    +0.070 C 
ATOM     11  C   UNL     1      -1.377   0.991  -3.184  0.00  0.00    +0.048 C 
ATOM     12  C   UNL     1       0.135   1.057  -2.845  0.00  0.00    +0.161 C 
ATOM     13  O   UNL     1       0.630  -0.239  -3.248  0.00  0.00    -0.376 OA
ATOM     14  C   UNL     1      -0.367  -1.206  -2.872  0.00  0.00    +0.131 C 
ATOM     15  C   UNL     1      -0.409  -2.338  -3.900  0.00  0.00    +0.039 C 
ENDROOT
BRANCH   8  16
ATOM     16  N   UNL     1      -4.720  -1.850  -4.598  0.00  0.00    -0.328 N 
ATOM     17  H   UNL     1      -5.651  -2.068  -4.432  0.00  0.00    +0.145 HD
ATOM     18  H   UNL     1      -4.336  -1.998  -5.476  0.00  0.00    +0.145 HD
ENDBRANCH   8  16
BRANCH   1  20
ATOM     19  C   UNL     1      -0.143  -0.096   1.539  0.00  0.00    +0.010 C 
ATOM     20  C   UNL     1      -0.385  -0.015   0.030  0.00  0.00    +0.052 C 
ENDBRANCH   1  20
BRANCH   9  21
ATOM     21  C   UNL     1      -2.163  -1.294  -5.190  0.00  0.00    +0.101 C 
ATOM     22  N   UNL     1      -1.774  -1.492  -6.239  0.00  0.00    -0.191 NA
ENDBRANCH   9  21
TORSDOF 3
