REMARK  Name = ZINC36915788
REMARK  5 active torsions:
REMARK  status: ('A' for Active; 'I' for Inactive)
REMARK    1  A    between atoms: C_1  and  C_2
REMARK    2  A    between atoms: C_2  and  C_3
REMARK    3  A    between atoms: C_3  and  C_4
REMARK    4  A    between atoms: C_6  and  C_9
REMARK    5  A    between atoms: C_10  and  N_16
REMARK                            x       y       z     vdW  Elec       q    Type
REMARK                         _______ _______ _______ _____ _____    ______ ____
ROOT
ATOM      1  C   UNL     1       2.197  -5.196  -0.451  0.00  0.00    +0.095 A 
ATOM      2  C   UNL     1       2.376  -6.307  -1.290  0.00  0.00    +0.040 A 
ATOM      3  C   UNL     1       3.165  -7.367  -0.867  0.00  0.00    +0.023 A 
ATOM      4  C   UNL     1       3.771  -7.330   0.374  0.00  0.00    +0.005 A 
ATOM      5  C   UNL     1       3.597  -6.237   1.206  0.00  0.00    +0.039 A 
ATOM      6  C   UNL     1       2.821  -5.168   0.800  0.00  0.00    +0.137 A 
ATOM      7  F   UNL     1       2.659  -4.102   1.614  0.00  0.00    -0.205 F 
ENDROOT
BRANCH   1  10
ATOM      8  C   UNL     1       0.691  -2.039  -1.297  0.00  0.00    +0.172 A 
ATOM      9  N   UNL     1       1.681  -2.789  -0.810  0.00  0.00    -0.192 NA
ATOM     10  C   UNL     1       1.361  -4.063  -0.888  0.00  0.00    +0.263 A 
ATOM     11  O   UNL     1       0.136  -4.149  -1.437  0.00  0.00    -0.333 OA
ATOM     12  N   UNL     1      -0.280  -2.816  -1.689  0.00  0.00    -0.061 NA
BRANCH   8  13
ATOM     13  C   UNL     1       0.692  -0.534  -1.376  0.00  0.00    +0.079 C 
BRANCH  13  15
ATOM     14  C   UNL     1       0.107   1.572  -0.167  0.00  0.00    +0.004 C 
ATOM     15  C   UNL     1       0.106   0.044  -0.087  0.00  0.00    +0.004 C 
ENDBRANCH  13  15
ENDBRANCH   8  13
ENDBRANCH   1  10
BRANCH   2  16
ATOM     16  N   UNL     1       1.765  -6.345  -2.539  0.00  0.00    -0.357 N 
ATOM     17  H   UNL     1       1.290  -5.567  -2.870  0.00  0.00    +0.142 HD
ATOM     18  H   UNL     1       1.815  -7.149  -3.079  0.00  0.00    +0.142 HD
ENDBRANCH   2  16
TORSDOF 4
