REMARK  Name = ZINC19393437
REMARK  2 active torsions:
REMARK  status: ('A' for Active; 'I' for Inactive)
REMARK    1  A    between atoms: C_3  and  N_9
REMARK    2  A    between atoms: C_6  and  N_7
REMARK                            x       y       z     vdW  Elec       q    Type
REMARK                         _______ _______ _______ _____ _____    ______ ____
ROOT
ATOM      1  N   UNL     1      -4.872   3.687   0.046  0.00  0.00    -0.326 N 
ATOM      2  C   UNL     1      -5.041   4.480  -1.180  0.00  0.00    +0.124 C 
ATOM      3  C   UNL     1      -6.418   5.147  -1.166  0.00  0.00    +0.126 C 
ATOM      4  N   UNL     1      -6.537   5.996   0.027  0.00  0.00    -0.307 N 
ATOM      5  C   UNL     1      -6.368   5.203   1.253  0.00  0.00    +0.126 C 
ATOM      6  C   UNL     1      -4.991   4.536   1.240  0.00  0.00    +0.124 C 
ATOM      7  C   UNL     1      -7.747   6.674   0.037  0.00  0.00    +0.161 A 
ATOM      8  N   UNL     1      -8.690   6.673   0.959  0.00  0.00    -0.233 NA
ATOM      9  C   UNL     1      -9.791   7.386   0.810  0.00  0.00    +0.120 A 
ATOM     10  C   UNL     1      -9.940   8.115  -0.321  0.00  0.00    +0.068 A 
ATOM     11  S   UNL     1      -8.412   7.734  -1.166  0.00  0.00    -0.061 S 
ENDROOT
BRANCH   1  14
ATOM     12  C   UNL     1      -1.252   3.037   0.030  0.00  0.00    +0.024 A 
ATOM     13  C   UNL     1      -2.457   3.712   0.035  0.00  0.00    +0.026 A 
ATOM     14  C   UNL     1      -3.650   3.003   0.037  0.00  0.00    +0.048 A 
ATOM     15  C   UNL     1      -3.632   1.613   0.029  0.00  0.00    +0.064 A 
ATOM     16  C   UNL     1      -2.426   0.939   0.019  0.00  0.00    +0.044 A 
ATOM     17  C   UNL     1      -1.233   1.649   0.017  0.00  0.00    +0.026 A 
ATOM     18 CL   UNL     1      -5.123   0.725   0.030  0.00  0.00    -0.082 Cl
BRANCH  17  19
ATOM     19  N   UNL     1      -0.011   0.966   0.007  0.00  0.00    -0.358 N 
ATOM     20  H   UNL     1       0.004  -0.134  -0.003  0.00  0.00    +0.142 HD
ATOM     21  H   UNL     1       0.934   1.529   0.011  0.00  0.00    +0.142 HD
ENDBRANCH  17  19
ENDBRANCH   1  14
TORSDOF 2
