REMARK  Name = ZINC12376943
REMARK  4 active torsions:
REMARK  status: ('A' for Active; 'I' for Inactive)
REMARK    1  A    between atoms: C_4  and  C_7
REMARK    2  A    between atoms: C_9  and  C_26
REMARK    3  A    between atoms: C_11  and  N_25
REMARK    4  A    between atoms: C_12  and  C_16
REMARK                            x       y       z     vdW  Elec       q    Type
REMARK                         _______ _______ _______ _____ _____    ______ ____
ROOT
ATOM      1  C   UNL     1      -0.638  -2.215  -0.003  0.00  0.00    +0.073 A 
ATOM      2  C   UNL     1       0.698  -2.627  -0.018  0.00  0.00    +0.041 A 
ATOM      3  C   UNL     1       1.703  -1.707  -0.023  0.00  0.00    +0.068 A 
ATOM      4  C   UNL     1       1.379  -0.326  -0.013  0.00  0.00    +0.041 A 
ATOM      5  C   UNL     1       2.280   0.816  -0.015  0.00  0.00    +0.054 A 
ATOM      6  C   UNL     1       1.733   2.081  -0.003  0.00  0.00    +0.097 A 
ATOM      7  S   UNL     1      -0.022   1.772   0.012  0.00  0.00    -0.062 S 
ATOM      8  C   UNL     1       0.002  -0.004   0.002  0.00  0.00    +0.112 A 
ATOM      9  N   UNL     1      -0.939  -0.922   0.006  0.00  0.00    -0.239 NA
ENDROOT
BRANCH   6  10
ATOM     10  C   UNL     1       2.405   3.328  -0.003  0.00  0.00    +0.258 C 
ATOM     11  O   UNL     1       3.622   3.363  -0.015  0.00  0.00    -0.269 OA
ATOM     12  N   UNL     1       1.697   4.474   0.010  0.00  0.00    -0.260 N 
ATOM     13  C   UNL     1       2.358   5.701   0.011  0.00  0.00    +0.211 A 
ATOM     14  C   UNL     1       1.718   7.021   0.024  0.00  0.00    +0.202 A 
ATOM     15  N   UNL     1       2.654   7.930   0.020  0.00  0.00    -0.032 NA
ATOM     16  O   UNL     1       3.905   7.265   0.004  0.00  0.00    -0.239 OA
ATOM     17  N   UNL     1       3.650   5.872   0.004  0.00  0.00    -0.032 NA
ATOM     18  N   UNL     1       0.349   7.262   0.040  0.00  0.00    -0.338 N 
ATOM     19  H   UNL     1       0.727   4.446   0.020  0.00  0.00    +0.157 HD
ATOM     20  H   UNL     1      -0.275   6.519   0.043  0.00  0.00    +0.144 HD
ATOM     21  H   UNL     1       0.017   8.174   0.048  0.00  0.00    +0.144 HD
ENDBRANCH   6  10
BRANCH   1  25
ATOM     22  C   UNL     1      -3.748  -5.113   0.008  0.00  0.00    +0.000 A 
ATOM     23  C   UNL     1      -4.062  -3.766   0.019  0.00  0.00    +0.001 A 
ATOM     24  C   UNL     1      -3.057  -2.821   0.015  0.00  0.00    +0.010 A 
ATOM     25  C   UNL     1      -1.722  -3.226   0.001  0.00  0.00    +0.000 A 
ATOM     26  C   UNL     1      -1.413  -4.585  -0.015  0.00  0.00    +0.010 A 
ATOM     27  C   UNL     1      -2.426  -5.521  -0.007  0.00  0.00    +0.001 A 
ENDBRANCH   1  25
BRANCH   3  28
ATOM     28  C   UNL     1       3.143  -2.152  -0.040  0.00  0.00    +0.418 C 
ATOM     29  F   UNL     1       3.199  -3.550  -0.047  0.00  0.00    -0.166 F 
ATOM     30  F   UNL     1       3.772  -1.654  -1.186  0.00  0.00    -0.166 F 
ATOM     31  F   UNL     1       3.795  -1.666   1.099  0.00  0.00    -0.166 F 
ENDBRANCH   3  28
BRANCH   5  32
ATOM     32  N   UNL     1       3.656   0.636  -0.029  0.00  0.00    -0.356 N 
ATOM     33  H   UNL     1       4.028  -0.260  -0.037  0.00  0.00    +0.142 HD
ATOM     34  H   UNL     1       4.246   1.406  -0.030  0.00  0.00    +0.142 HD
ENDBRANCH   5  32
TORSDOF 4
