REMARK  Name = ZINC59324061
REMARK  6 active torsions:
REMARK  status: ('A' for Active; 'I' for Inactive)
REMARK    1  A    between atoms: C_1  and  C_2
REMARK    2  A    between atoms: C_2  and  C_4
REMARK    3  A    between atoms: C_2  and  N_14
REMARK    4  A    between atoms: N_17  and  C_18
REMARK    5  A    between atoms: C_23  and  O_24
REMARK    6  A    between atoms: O_24  and  C_25
REMARK                            x       y       z     vdW  Elec       q    Type
REMARK                         _______ _______ _______ _____ _____    ______ ____
ROOT
ATOM      1  N   UNL     1       0.658  -2.045   0.970  0.00  0.00    -0.293 N 
ATOM      2  C   UNL     1       1.994  -1.864   0.963  0.00  0.00    +0.304 C 
ATOM      3  O   UNL     1       2.616  -1.965  -0.076  0.00  0.00    -0.252 OA
ATOM      4  N   UNL     1       2.640  -1.572   2.110  0.00  0.00    -0.266 N 
ATOM      5  H   UNL     1       0.162  -1.965   1.799  0.00  0.00    +0.151 HD
ATOM      6  H   UNL     1       2.135  -1.400   2.920  0.00  0.00    +0.156 HD
ENDROOT
BRANCH   4   7
ATOM      7  C   UNL     1       4.040  -1.516   2.130  0.00  0.00    +0.077 A 
ATOM      8  C   UNL     1       4.739  -1.164   0.985  0.00  0.00    +0.027 A 
ATOM      9  C   UNL     1       6.120  -1.110   1.008  0.00  0.00    +0.002 A 
ATOM     10  C   UNL     1       6.808  -1.405   2.170  0.00  0.00    +0.004 A 
ATOM     11  C   UNL     1       6.118  -1.758   3.316  0.00  0.00    +0.048 A 
ATOM     12  C   UNL     1       4.733  -1.808   3.303  0.00  0.00    +0.150 A 
BRANCH  12  13
ATOM     13  O   UNL     1       4.053  -2.148   4.430  0.00  0.00    -0.453 OA
BRANCH  13  14
ATOM     14  C   UNL     1       3.535  -3.402   4.509  0.00  0.00    +0.147 A 
ATOM     15  C   UNL     1       3.633  -4.264   3.426  0.00  0.00    +0.048 A 
ATOM     16  C   UNL     1       3.105  -5.538   3.509  0.00  0.00    +0.004 A 
ATOM     17  C   UNL     1       2.479  -5.955   4.669  0.00  0.00    +0.002 A 
ATOM     18  C   UNL     1       2.379  -5.099   5.750  0.00  0.00    +0.024 A 
ATOM     19  C   UNL     1       2.911  -3.825   5.675  0.00  0.00    +0.083 A 
ATOM     20 CL   UNL     1       2.792  -2.752   7.035  0.00  0.00    -0.080 Cl
ENDBRANCH  13  14
ENDBRANCH  12  13
ENDBRANCH   4   7
BRANCH   1  22
ATOM     21  C   UNL     1      -0.370  -1.068  -1.023  0.00  0.00    +0.033 C 
ATOM     22  C   UNL     1      -0.044  -2.363  -0.276  0.00  0.00    +0.102 C 
BRANCH  22  23
ATOM     23  C   UNL     1      -1.322  -3.096   0.040  0.00  0.00    -0.027 A 
ATOM     24  C   UNL     1      -2.096  -2.706   1.117  0.00  0.00    +0.007 A 
ATOM     25  C   UNL     1      -3.268  -3.372   1.413  0.00  0.00    +0.024 A 
ATOM     26  C   UNL     1      -3.679  -4.446   0.625  0.00  0.00    +0.037 A 
ATOM     27  C   UNL     1      -2.892  -4.828  -0.454  0.00  0.00    -0.017 A 
ATOM     28  C   UNL     1      -1.726  -4.158  -0.750  0.00  0.00    +0.011 A 
ATOM     29  C   UNL     1      -3.595  -6.001  -1.098  0.00  0.00    +0.133 C 
ATOM     30  C   UNL     1      -4.833  -6.200  -0.249  0.00  0.00    +0.222 C 
ATOM     31  O   UNL     1      -5.689  -7.043  -0.411  0.00  0.00    -0.275 OA
ATOM     32  N   UNL     1      -4.803  -5.267   0.717  0.00  0.00    -0.285 N 
ATOM     33  H   UNL     1      -5.486  -5.174   1.400  0.00  0.00    +0.155 HD
ENDBRANCH  22  23
ENDBRANCH   1  22
TORSDOF 5
