REMARK  Name = ZINC37579641
REMARK  10 active torsions:
REMARK  status: ('A' for Active; 'I' for Inactive)
REMARK    1  A    between atoms: C_1  and  C_2
REMARK    2  A    between atoms: C_5  and  C_18
REMARK    3  A    between atoms: C_7  and  S_8
REMARK    4  A    between atoms: S_8  and  N_11
REMARK    5  A    between atoms: N_11  and  C_12
REMARK    6  A    between atoms: C_12  and  C_13
REMARK    7  A    between atoms: C_13  and  S_14
REMARK    8  A    between atoms: S_14  and  N_17
REMARK    9  A    between atoms: C_19  and  C_20
REMARK   10  A    between atoms: C_20  and  O_21
REMARK                            x       y       z     vdW  Elec       q    Type
REMARK                         _______ _______ _______ _____ _____    ______ ____
ROOT
ATOM      1  S   UNL     1       0.234   0.176   2.606  0.00  0.00    +0.059 S 
ATOM      2  O   UNL     1       0.525  -0.765   3.630  0.00  0.00    -0.153 OA
ATOM      3  O   UNL     1       1.121   1.234   2.268  0.00  0.00    -0.153 OA
ENDROOT
BRANCH   1  10
ATOM      4  C   UNL     1      -0.500   1.402  -0.056  0.00  0.00    +0.046 C 
ATOM      5  C   UNL     1      -0.363  -0.098  -0.043  0.00  0.00    -0.024 A 
ATOM      6  C   UNL     1      -0.567  -0.818  -1.207  0.00  0.00    +0.006 A 
ATOM      7  C   UNL     1      -0.443  -2.192  -1.203  0.00  0.00    +0.017 A 
ATOM      8  C   UNL     1      -0.113  -2.856  -0.021  0.00  0.00    +0.027 A 
ATOM      9  C   UNL     1       0.091  -2.125   1.149  0.00  0.00    +0.045 A 
ATOM     10  C   UNL     1      -0.030  -0.750   1.131  0.00  0.00    +0.109 A 
BRANCH   8  11
ATOM     11  C   UNL     1       0.017  -4.282  -0.009  0.00  0.00    -0.064 C 
ATOM     12  C   UNL     1       0.123  -5.451   0.000  0.00  0.00    -0.069 C 
BRANCH  12  13
ATOM     13  C   UNL     1       0.256  -6.917   0.012  0.00  0.00    +0.244 C 
BRANCH  13  14
ATOM     14  O   UNL     1       0.598  -7.354   1.329  0.00  0.00    -0.383 OA
ATOM     15  H   UNL     1       0.702  -8.312   1.411  0.00  0.00    +0.211 HD
ENDBRANCH  13  14
ENDBRANCH  12  13
ENDBRANCH   8  11
ENDBRANCH   1  10
BRANCH   1  16
ATOM     16  N   UNL     1      -1.210   0.880   3.007  0.00  0.00    -0.188 NA
ATOM     17  H   UNL     1      -1.296   1.847   3.006  0.00  0.00    +0.148 HD
BRANCH  16  18
ATOM     18  C   UNL     1      -2.359   0.044   3.364  0.00  0.00    +0.130 C 
BRANCH  18  19
ATOM     19  C   UNL     1      -3.421   0.903   4.053  0.00  0.00    +0.201 C 
BRANCH  19  20
ATOM     20  S   UNL     1      -4.843  -0.133   4.495  0.00  0.00    +0.028 S 
ATOM     21  O   UNL     1      -5.511  -0.574   3.321  0.00  0.00    -0.158 OA
ATOM     22  O   UNL     1      -4.479  -1.056   5.512  0.00  0.00    -0.158 OA
BRANCH  20  23
ATOM     23  N   UNL     1      -5.911   0.901   5.226  0.00  0.00    -0.208 NA
ATOM     24  H   UNL     1      -5.687   1.839   5.327  0.00  0.00    +0.144 HD
ATOM     25  H   UNL     1      -6.761   0.568   5.553  0.00  0.00    +0.144 HD
ENDBRANCH  20  23
ENDBRANCH  19  20
ENDBRANCH  18  19
ENDBRANCH  16  18
ENDBRANCH   1  16
TORSDOF 9
