REMARK  Name = ZINC37832432
REMARK  5 active torsions:
REMARK  status: ('A' for Active; 'I' for Inactive)
REMARK    1  A    between atoms: C_1  and  N_2
REMARK    2  A    between atoms: N_2  and  C_3
REMARK    3  A    between atoms: C_3  and  C_4
REMARK    4  A    between atoms: C_10  and  C_12
REMARK    5  A    between atoms: C_19  and  C_21
REMARK                            x       y       z     vdW  Elec       q    Type
REMARK                         _______ _______ _______ _____ _____    ______ ____
ROOT
ATOM      1  C   UNL     1      -0.621   0.842  -0.038  0.00  0.00    +0.132 C 
ATOM      2  N   UNL     1      -0.172  -0.545  -0.187  0.00  0.00    -0.299 N 
ATOM      3  C   UNL     1       0.062  -1.050  -1.414  0.00  0.00    +0.220 C 
ATOM      4  O   UNL     1       0.340  -2.223  -1.545  0.00  0.00    -0.275 OA
ENDROOT
BRANCH   3   5
ATOM      5  C   UNL     1      -0.021  -0.156  -2.625  0.00  0.00    +0.096 C 
ATOM      6  C   UNL     1      -0.052  -1.007  -3.934  0.00  0.00    +0.025 C 
ATOM      7  C   UNL     1       0.526   0.033  -4.963  0.00  0.00    +0.016 C 
ATOM      8  C   UNL     1       1.853   0.241  -4.145  0.00  0.00    +0.027 C 
ATOM      9  C   UNL     1       1.267   0.692  -2.765  0.00  0.00    +0.121 C 
ATOM     10  C   UNL     1       2.255  -1.222  -3.922  0.00  0.00    -0.027 C 
ATOM     11  C   UNL     1       1.144  -1.956  -3.791  0.00  0.00    -0.027 C 
BRANCH   9  12
ATOM     12  C   UNL     1       2.231   0.379  -1.650  0.00  0.00    +0.360 C 
ATOM     13  O   UNL     1       2.724  -0.734  -1.565  0.00  0.00    -0.246 OA
ATOM     14  O   UNL     1       2.519   1.237  -0.834  0.00  0.00    -0.246 OA
ENDBRANCH   9  12
ENDBRANCH   3   5
BRANCH   2  15
ATOM     15  C   UNL     1       0.022  -1.383   0.999  0.00  0.00    +0.149 C 
BRANCH  15  16
ATOM     16  C   UNL     1      -1.263  -2.099   1.324  0.00  0.00    +0.008 A 
ATOM     17  C   UNL     1      -1.697  -3.311   0.897  0.00  0.00    +0.028 A 
ATOM     18  C   UNL     1      -2.926  -3.774   1.330  0.00  0.00    +0.025 A 
ATOM     19  C   UNL     1      -3.660  -3.002   2.169  0.00  0.00    +0.060 A 
ATOM     20  S   UNL     1      -2.607  -1.576   2.377  0.00  0.00    -0.099 S 
ATOM     21 BR   UNL     1      -3.572  -5.457   0.761  0.00  0.00    -0.050 Br
ENDBRANCH  15  16
ENDBRANCH   2  15
TORSDOF 4
