REMARK  Name = ZINC50102427
REMARK  4 active torsions:
REMARK  status: ('A' for Active; 'I' for Inactive)
REMARK    1  A    between atoms: C_4  and  N_23
REMARK    2  A    between atoms: C_5  and  C_7
REMARK    3  A    between atoms: C_7  and  S_8
REMARK    4  A    between atoms: S_8  and  N_11
REMARK                            x       y       z     vdW  Elec       q    Type
REMARK                         _______ _______ _______ _____ _____    ______ ____
ROOT
ATOM      1  S   UNL     1       1.250  -2.801   1.685  0.00  0.00    +0.036 S 
ATOM      2  O   UNL     1       2.487  -2.475   2.305  0.00  0.00    -0.158 OA
ATOM      3  O   UNL     1       0.018  -2.507   2.329  0.00  0.00    -0.158 OA
ENDROOT
BRANCH   1   4
ATOM      4  N   UNL     1       1.270  -4.451   1.543  0.00  0.00    -0.181 NA
ATOM      5  C   UNL     1       0.016  -5.213   1.485  0.00  0.00    +0.109 C 
ATOM      6  C   UNL     1       0.035  -6.097   0.234  0.00  0.00    +0.021 C 
ATOM      7  C   UNL     1       1.296  -6.965   0.245  0.00  0.00    -0.005 C 
ATOM      8  C   UNL     1       1.296  -7.869  -0.990  0.00  0.00    +0.004 C 
ATOM      9  C   UNL     1       2.555  -8.737  -0.990  0.00  0.00    +0.000 C 
ATOM     10  C   UNL     1       3.793  -7.837  -1.019  0.00  0.00    +0.000 C 
ATOM     11  C   UNL     1       3.796  -6.938   0.218  0.00  0.00    +0.005 C 
ATOM     12  C   UNL     1       2.536  -6.069   0.225  0.00  0.00    +0.008 C 
ATOM     13  C   UNL     1       2.543  -5.181   1.467  0.00  0.00    +0.113 C 
ENDBRANCH   1   4
BRANCH   1  14
ATOM     14  C   UNL     1       1.226  -2.187  -0.022  0.00  0.00    +0.222 C 
BRANCH  14  19
ATOM     15  C   UNL     1      -0.017   1.378   0.010  0.00  0.00    +0.000 A 
ATOM     16  C   UNL     1       1.170   2.089   0.002  0.00  0.00    +0.002 A 
ATOM     17  C   UNL     1       2.377   1.420  -0.013  0.00  0.00    +0.023 A 
ATOM     18  C   UNL     1       2.400   0.031  -0.021  0.00  0.00    +0.029 A 
ATOM     19  C   UNL     1       1.207  -0.680  -0.013  0.00  0.00    -0.004 A 
ATOM     20  C   UNL     1       0.002  -0.004   0.002  0.00  0.00    +0.007 A 
BRANCH  18  21
ATOM     21  N   UNL     1       3.620  -0.649  -0.036  0.00  0.00    -0.358 N 
ATOM     22  H   UNL     1       4.452  -0.152  -0.042  0.00  0.00    +0.142 HD
ATOM     23  H   UNL     1       3.634  -1.619  -0.042  0.00  0.00    +0.142 HD
ENDBRANCH  18  21
ENDBRANCH  14  19
ENDBRANCH   1  14
TORSDOF 4
