REMARK  Name = ZINC39855954
REMARK  6 active torsions:
REMARK  status: ('A' for Active; 'I' for Inactive)
REMARK    1  A    between atoms: C_1  and  C_2
REMARK    2  A    between atoms: C_6  and  C_7
REMARK    3  A    between atoms: C_17  and  C_19
REMARK    4  A    between atoms: C_21  and  C_29
REMARK    5  A    between atoms: C_21  and  C_30
REMARK    6  A    between atoms: N_24  and  N_25
REMARK                            x       y       z     vdW  Elec       q    Type
REMARK                         _______ _______ _______ _____ _____    ______ ____
ROOT
ATOM      1  C   UNL     1       0.300   1.260  -0.247  0.00  0.00    +0.048 C 
ATOM      2  C   UNL     1       0.072  -0.227  -0.163  0.00  0.00    +0.009 A 
ATOM      3  C   UNL     1      -0.016  -1.126  -1.233  0.00  0.00    +0.043 A 
ATOM      4  C   UNL     1      -0.231  -2.377  -0.705  0.00  0.00    +0.116 A 
ATOM      5  O   UNL     1      -0.270  -2.263   0.621  0.00  0.00    -0.454 OA
ATOM      6  C   UNL     1      -0.085  -0.971   0.974  0.00  0.00    +0.193 A 
ATOM      7  C   UNL     1      -0.385  -3.611  -1.557  0.00  0.00    +0.081 C 
ATOM      8  C   UNL     1      -0.779  -3.202  -2.979  0.00  0.00    -0.023 C 
ATOM      9  C   UNL     1       0.203  -2.164  -3.534  0.00  0.00    +0.064 C 
ATOM     10  C   UNL     1       0.086  -0.901  -2.692  0.00  0.00    +0.073 C 
ATOM     11  N   UNL     1       0.077   0.286  -3.216  0.00  0.00    -0.175 NA
ATOM     12  C   UNL     1      -2.187  -2.604  -2.960  0.00  0.00    +0.011 C 
ATOM     13  C   UNL     1      -0.768  -4.438  -3.881  0.00  0.00    +0.011 C 
ENDROOT
BRANCH   6  14
ATOM     14  C   UNL     1      -0.060  -0.453   2.346  0.00  0.00    +0.287 C 
ATOM     15  O   UNL     1      -0.013   0.747   2.543  0.00  0.00    -0.266 OA
ATOM     16  N   UNL     1      -0.091  -1.306   3.389  0.00  0.00    -0.262 N 
ATOM     17  C   UNL     1      -0.180  -0.928   4.731  0.00  0.00    +0.040 A 
ATOM     18  C   UNL     1      -0.255   0.351   5.287  0.00  0.00    +0.024 A 
ATOM     19  C   UNL     1      -0.338   0.511   6.654  0.00  0.00    +0.002 A 
ATOM     20  C   UNL     1      -0.347  -0.594   7.485  0.00  0.00    +0.000 A 
ATOM     21  C   UNL     1      -0.274  -1.863   6.942  0.00  0.00    +0.005 A 
ATOM     22  C   UNL     1      -0.191  -2.029   5.573  0.00  0.00    -0.024 A 
ATOM     23  C   UNL     1      -0.100  -3.280   4.729  0.00  0.00    +0.059 C 
ATOM     24  C   UNL     1      -0.041  -2.767   3.281  0.00  0.00    +0.083 C 
ATOM     25  C   UNL     1       1.267  -3.205   2.618  0.00  0.00    +0.029 C 
ENDBRANCH   6  14
BRANCH  11  26
ATOM     26  N   UNL     1       0.176   0.439  -4.605  0.00  0.00    -0.248 N 
ATOM     27  C   UNL     1       0.167   1.692  -5.158  0.00  0.00    +0.187 C 
ATOM     28  N   UNL     1       0.262   1.837  -6.479  0.00  0.00    -0.370 N 
ATOM     29  N   UNL     1       0.062   2.765  -4.375  0.00  0.00    -0.370 N 
ATOM     30  H   UNL     1       0.253  -0.342  -5.175  0.00  0.00    +0.192 HD
ATOM     31  H   UNL     1       0.338   1.056  -7.049  0.00  0.00    +0.159 HD
ATOM     32  H   UNL     1      -0.007   2.659  -3.413  0.00  0.00    +0.159 HD
ATOM     33  H   UNL     1       0.056   3.652  -4.766  0.00  0.00    +0.159 HD
ATOM     34  H   UNL     1       0.255   2.725  -6.871  0.00  0.00    +0.159 HD
ENDBRANCH  11  26
TORSDOF 2
