REMARK  Name = ZINC39704598
REMARK  9 active torsions:
REMARK  status: ('A' for Active; 'I' for Inactive)
REMARK    1  A    between atoms: C_1  and  C_2
REMARK    2  A    between atoms: C_2  and  C_3
REMARK    3  A    between atoms: C_2  and  C_4
REMARK    4  A    between atoms: C_4  and  N_5
REMARK    5  A    between atoms: C_6  and  C_29
REMARK    6  A    between atoms: C_10  and  S_12
REMARK    7  A    between atoms: S_12  and  C_13
REMARK    8  A    between atoms: C_13  and  C_14
REMARK    9  A    between atoms: C_22  and  C_26
REMARK                            x       y       z     vdW  Elec       q    Type
REMARK                         _______ _______ _______ _____ _____    ______ ____
ROOT
ATOM      1  N   UNL     1      -1.474  -1.870  -0.110  0.00  0.00    +0.411 N 
ATOM      2  C   UNL     1      -2.788  -2.549   0.037  0.00  0.00    +0.052 C 
ATOM      3  N   UNL     1      -2.570  -3.845  -0.657  0.00  0.00    -0.266 NA
ATOM      4  N   UNL     1      -1.725  -3.507  -1.806  0.00  0.00    -0.262 NA
ATOM      5  C   UNL     1      -1.021  -2.254  -1.466  0.00  0.00    +0.077 C 
ATOM      6  H   UNL     1      -2.108  -4.507  -0.051  0.00  0.00    +0.139 HD
ATOM      7  H   UNL     1      -1.069  -4.248  -2.003  0.00  0.00    +0.140 HD
ATOM      8  H   UNL     1      -0.823  -2.200   0.587  0.00  0.00    -0.075 HD
ENDROOT
BRANCH   2   9
ATOM      9  C   UNL     1      -3.117  -2.768   1.492  0.00  0.00    -0.011 A 
ATOM     10  C   UNL     1      -2.100  -2.863   2.423  0.00  0.00    +0.006 A 
ATOM     11  C   UNL     1      -2.401  -3.064   3.757  0.00  0.00    +0.000 A 
ATOM     12  C   UNL     1      -3.718  -3.169   4.162  0.00  0.00    +0.003 A 
ATOM     13  C   UNL     1      -4.737  -3.074   3.232  0.00  0.00    +0.038 A 
ATOM     14  C   UNL     1      -4.437  -2.868   1.896  0.00  0.00    +0.126 A 
ATOM     15  F   UNL     1      -5.432  -2.769   0.988  0.00  0.00    -0.205 F 
ENDBRANCH   2   9
BRANCH   1  16
ATOM     16  C   UNL     1      -1.634  -0.413  -0.014  0.00  0.00    -0.070 C 
BRANCH  16  18
ATOM     17  C   UNL     1      -0.449   1.780  -0.180  0.00  0.00    +0.005 C 
ATOM     18  C   UNL     1      -0.268   0.261  -0.154  0.00  0.00    -0.034 C 
ATOM     19  C   UNL     1       0.616  -0.127   1.032  0.00  0.00    +0.005 C 
ENDBRANCH  16  18
ENDBRANCH   1  16
BRANCH   5  20
ATOM     20  S   UNL     1       0.772  -2.529  -1.468  0.00  0.00    -0.152 S 
BRANCH  20  21
ATOM     21  C   UNL     1       1.012  -3.869  -0.270  0.00  0.00    +0.143 C 
BRANCH  21  22
ATOM     22  C   UNL     1       2.479  -4.200  -0.173  0.00  0.00    +0.120 A 
ATOM     23  N   UNL     1       2.862  -5.190   0.674  0.00  0.00    -0.310 N 
ATOM     24  H   UNL     1       2.194  -5.661   1.197  0.00  0.00    +0.170 HD
ATOM     25  C   UNL     1       4.167  -5.526   0.797  0.00  0.00    +0.259 A 
ATOM     26  O   UNL     1       4.524  -6.411   1.553  0.00  0.00    -0.267 OA
ATOM     27  C   UNL     1       5.139  -4.779  -0.020  0.00  0.00    +0.065 A 
ATOM     28  C   UNL     1       6.505  -5.050   0.034  0.00  0.00    +0.016 A 
ATOM     29  C   UNL     1       7.372  -4.333  -0.741  0.00  0.00    +0.016 A 
ATOM     30  C   UNL     1       6.900  -3.326  -1.592  0.00  0.00    +0.065 A 
ATOM     31  C   UNL     1       5.541  -3.040  -1.661  0.00  0.00    +0.043 A 
ATOM     32  C   UNL     1       4.647  -3.767  -0.873  0.00  0.00    +0.079 A 
ATOM     33  N   UNL     1       3.312  -3.529  -0.909  0.00  0.00    -0.233 NA
BRANCH  30  34
ATOM     34  C   UNL     1       7.854  -2.561  -2.424  0.00  0.00    +0.387 C 
ATOM     35  O   UNL     1       9.050  -2.809  -2.366  0.00  0.00    -0.241 OA
ATOM     36  O   UNL     1       7.447  -1.681  -3.168  0.00  0.00    -0.241 OA
ENDBRANCH  30  34
ENDBRANCH  21  22
ENDBRANCH  20  21
ENDBRANCH   5  20
TORSDOF 7
