REMARK  Name = ZINC07061292
REMARK  8 active torsions:
REMARK  status: ('A' for Active; 'I' for Inactive)
REMARK    1  A    between atoms: C_1  and  C_2
REMARK    2  A    between atoms: C_9  and  S_12
REMARK    3  A    between atoms: S_12  and  C_13
REMARK    4  A    between atoms: C_13  and  C_15
REMARK    5  A    between atoms: C_13  and  C_16
REMARK    6  A    between atoms: N_21  and  C_22
REMARK    7  A    between atoms: C_22  and  C_23
REMARK    8  A    between atoms: C_22  and  C_24
REMARK                            x       y       z     vdW  Elec       q    Type
REMARK                         _______ _______ _______ _____ _____    ______ ____
ROOT
ATOM      1  C   UNL     1       0.014   4.271   0.026  0.00  0.00    +0.137 C 
ATOM      2  C   UNL     1      -0.717   3.938  -1.276  0.00  0.00    +0.029 C 
ENDROOT
BRANCH   1   3
ATOM      3  C   UNL     1       0.149   5.767   0.156  0.00  0.00    +0.233 C 
ATOM      4  O   UNL     1       1.163   6.318  -0.215  0.00  0.00    -0.274 OA
ATOM      5  N   UNL     1      -0.856   6.491   0.686  0.00  0.00    -0.239 N 
ATOM      6  C   UNL     1      -0.735   7.828   0.803  0.00  0.00    +0.306 C 
ATOM      7  O   UNL     1       0.282   8.381   0.431  0.00  0.00    -0.252 OA
ATOM      8  N   UNL     1      -1.740   8.552   1.333  0.00  0.00    -0.297 N 
ATOM      9  H   UNL     1      -1.667   6.050   0.984  0.00  0.00    +0.159 HD
ATOM     10  H   UNL     1      -2.551   8.111   1.631  0.00  0.00    +0.151 HD
BRANCH   8  11
ATOM     11  C   UNL     1      -1.608  10.006   1.460  0.00  0.00    +0.068 C 
ATOM     12  C   UNL     1      -2.998  10.645   1.478  0.00  0.00    +0.027 C 
ATOM     13  C   UNL     1      -0.877  10.340   2.762  0.00  0.00    +0.027 C 
ENDBRANCH   8  11
ENDBRANCH   1   3
BRANCH   1  14
ATOM     14  S   UNL     1       1.658   3.516   0.005  0.00  0.00    -0.075 S 
BRANCH  14  23
ATOM     15  C   UNL     1      -1.740  -3.361  -0.001  0.00  0.00    +0.044 C 
ATOM     16  C   UNL     1      -0.658  -2.311  -0.005  0.00  0.00    -0.048 A 
ATOM     17  C   UNL     1       0.674  -2.696  -0.020  0.00  0.00    +0.005 A 
ATOM     18  C   UNL     1       1.676  -1.747  -0.024  0.00  0.00    +0.028 A 
ATOM     19  C   UNL     1       1.350  -0.400  -0.013  0.00  0.00    +0.067 A 
ATOM     20  C   UNL     1       0.002  -0.004   0.002  0.00  0.00    +0.090 A 
ATOM     21  C   UNL     1      -1.000  -0.977   0.006  0.00  0.00    +0.033 A 
ATOM     22  N   UNL     1      -0.016   1.355   0.009  0.00  0.00    -0.222 NA
ATOM     23  C   UNL     1       1.212   1.811   0.000  0.00  0.00    +0.168 A 
ATOM     24  N   UNL     1       2.095   0.768  -0.014  0.00  0.00    -0.333 N 
ATOM     25  H   UNL     1       3.092   0.836  -0.023  0.00  0.00    +0.168 HD
ENDBRANCH  14  23
ENDBRANCH   1  14
TORSDOF 4
