REMARK  Name = ZINC39449531
REMARK  7 active torsions:
REMARK  status: ('A' for Active; 'I' for Inactive)
REMARK    1  A    between atoms: C_1  and  C_2
REMARK    2  A    between atoms: C_2  and  C_3
REMARK    3  A    between atoms: C_2  and  S_4
REMARK    4  A    between atoms: S_4  and  N_7
REMARK    5  A    between atoms: C_15  and  O_18
REMARK    6  A    between atoms: C_20  and  C_25
REMARK    7  A    between atoms: C_30  and  O_31
REMARK                            x       y       z     vdW  Elec       q    Type
REMARK                         _______ _______ _______ _____ _____    ______ ____
ROOT
ATOM      1  N   UNL     1      -0.157  -0.174   2.936  0.00  0.00    -0.174 N 
ATOM      2  C   UNL     1       0.118   1.090   3.444  0.00  0.00    +0.134 A 
ATOM      3  C   UNL     1      -0.573   1.582   4.537  0.00  0.00    +0.083 A 
ATOM      4  C   UNL     1      -1.605   0.758   5.179  0.00  0.00    +0.099 A 
ATOM      5  C   UNL     1      -1.863  -0.523   4.644  0.00  0.00    +0.072 A 
ATOM      6  C   UNL     1      -1.096  -0.973   3.474  0.00  0.00    +0.281 A 
ATOM      7  O   UNL     1      -1.308  -2.072   2.993  0.00  0.00    -0.265 OA
ATOM      8  C   UNL     1      -2.839  -1.325   5.235  0.00  0.00    +0.062 A 
ATOM      9  C   UNL     1      -3.519  -0.819   6.336  0.00  0.00    +0.136 A 
ATOM     10  C   UNL     1      -3.208   0.456   6.807  0.00  0.00    +0.156 A 
ATOM     11  N   UNL     1      -2.284   1.194   6.232  0.00  0.00    -0.249 NA
ATOM     12  N   UNL     1      -0.293   2.848   5.015  0.00  0.00    -0.333 N 
ATOM     13  C   UNL     1       0.254   3.842   4.079  0.00  0.00    +0.112 C 
ATOM     14  C   UNL     1       1.479   3.230   3.391  0.00  0.00    +0.108 C 
ATOM     15  C   UNL     1       1.115   1.880   2.830  0.00  0.00    +0.185 C 
ATOM     16  O   UNL     1       1.684   1.467   1.839  0.00  0.00    -0.290 OA
ATOM     17  H   UNL     1      -0.453   3.075   5.945  0.00  0.00    +0.147 HD
ENDROOT
BRANCH  13  18
ATOM     18  C   UNL     1      -0.786   4.194   3.047  0.00  0.00    +0.014 A 
ATOM     19  C   UNL     1      -1.872   3.363   2.848  0.00  0.00    +0.009 A 
ATOM     20  C   UNL     1      -2.826   3.685   1.901  0.00  0.00    +0.001 A 
ATOM     21  C   UNL     1      -2.697   4.840   1.151  0.00  0.00    +0.004 A 
ATOM     22  C   UNL     1      -1.614   5.674   1.347  0.00  0.00    +0.046 A 
ATOM     23  C   UNL     1      -0.657   5.356   2.300  0.00  0.00    +0.122 A 
BRANCH  23  24
ATOM     24  O   UNL     1       0.406   6.178   2.498  0.00  0.00    -0.506 OA
ATOM     25  H   UNL     1       1.171   5.972   1.944  0.00  0.00    +0.292 HD
ENDBRANCH  23  24
ENDBRANCH  13  18
BRANCH   1  26
ATOM     26  S   UNL     1       0.695  -0.711   1.621  0.00  0.00    +0.060 S 
ATOM     27  O   UNL     1       0.570   0.327   0.660  0.00  0.00    -0.153 OA
ATOM     28  O   UNL     1       0.176  -2.008   1.359  0.00  0.00    -0.153 OA
BRANCH  26  30
ATOM     29  C   UNL     1       2.478  -1.737   3.424  0.00  0.00    +0.033 C 
ATOM     30  C   UNL     1       2.412  -0.829   2.195  0.00  0.00    +0.148 C 
ATOM     31  C   UNL     1       3.282  -1.414   1.081  0.00  0.00    +0.033 C 
ENDBRANCH  26  30
ENDBRANCH   1  26
BRANCH   9  32
ATOM     32  O   UNL     1      -4.479  -1.559   6.948  0.00  0.00    -0.505 OA
ATOM     33  H   UNL     1      -4.147  -2.121   7.661  0.00  0.00    +0.292 HD
ENDBRANCH   9  32
TORSDOF 5
