REMARK  Name = ZINC41637600
REMARK  12 active torsions:
REMARK  status: ('A' for Active; 'I' for Inactive)
REMARK    1  A    between atoms: C_1  and  C_2
REMARK    2  A    between atoms: C_2  and  C_3
REMARK    3  A    between atoms: C_3  and  C_4
REMARK    4  A    between atoms: C_4  and  O_5
REMARK    5  A    between atoms: O_5  and  C_6
REMARK    6  A    between atoms: C_6  and  C_8
REMARK    7  A    between atoms: C_11  and  N_14
REMARK    8  A    between atoms: C_15  and  C_17
REMARK    9  A    between atoms: N_19  and  C_20
REMARK   10  A    between atoms: C_20  and  C_21
REMARK   11  A    between atoms: N_27  and  C_28
REMARK   12  A    between atoms: N_27  and  C_29
REMARK                            x       y       z     vdW  Elec       q    Type
REMARK                         _______ _______ _______ _____ _____    ______ ____
ROOT
ATOM      1  N   UNL     1      -8.092  -6.122   0.046  0.00  0.00    -0.278 N 
ATOM      2  C   UNL     1      -8.253  -7.456  -0.055  0.00  0.00    +0.303 C 
ATOM      3  O   UNL     1      -7.283  -8.186  -0.064  0.00  0.00    -0.265 OA
ATOM      4  H   UNL     1      -8.867  -5.545   0.131  0.00  0.00    +0.155 HD
ENDROOT
BRANCH   1   8
ATOM      5  C   UNL     1      -4.268  -4.476  -0.001  0.00  0.00    +0.059 A 
ATOM      6  C   UNL     1      -4.547  -5.621  -0.754  0.00  0.00    +0.017 A 
ATOM      7  C   UNL     1      -5.812  -6.162  -0.736  0.00  0.00    +0.024 A 
ATOM      8  C   UNL     1      -6.813  -5.572   0.031  0.00  0.00    +0.034 A 
ATOM      9  C   UNL     1      -6.538  -4.432   0.781  0.00  0.00    +0.024 A 
ATOM     10  C   UNL     1      -5.274  -3.889   0.772  0.00  0.00    +0.017 A 
BRANCH   5  11
ATOM     11  C   UNL     1      -2.913  -3.893  -0.018  0.00  0.00    +0.339 C 
ATOM     12  O   UNL     1      -2.670  -2.901   0.640  0.00  0.00    -0.245 OA
BRANCH  11  13
ATOM     13  O   UNL     1      -1.945  -4.460  -0.764  0.00  0.00    -0.461 OA
BRANCH  13  14
ATOM     14  C   UNL     1      -0.656  -3.843  -0.733  0.00  0.00    +0.232 C 
BRANCH  14  15
ATOM     15  C   UNL     1       0.304  -4.622  -1.634  0.00  0.00    +0.041 C 
BRANCH  15  17
ATOM     16  C   UNL     1       2.644  -4.739  -2.502  0.00  0.00    +0.004 C 
ATOM     17  C   UNL     1       1.684  -3.961  -1.601  0.00  0.00    -0.000 C 
ENDBRANCH  15  17
ENDBRANCH  14  15
ENDBRANCH  13  14
ENDBRANCH  11  13
ENDBRANCH   5  11
ENDBRANCH   1   8
BRANCH   2  18
ATOM     18  C   UNL     1      -9.625  -8.037  -0.158  0.00  0.00    +0.300 C 
ATOM     19  O   UNL     1     -10.595  -7.308  -0.149  0.00  0.00    -0.265 OA
ATOM     20  N   UNL     1      -9.786  -9.372  -0.259  0.00  0.00    -0.303 N 
ATOM     21  H   UNL     1      -9.011  -9.954  -0.266  0.00  0.00    +0.149 HD
BRANCH  20  22
ATOM     22  C   UNL     1     -11.132  -9.941  -0.359  0.00  0.00    +0.141 C 
BRANCH  22  23
ATOM     23  C   UNL     1     -11.036 -11.442  -0.462  0.00  0.00    -0.014 A 
ATOM     24  C   UNL     1     -10.932 -12.055  -1.703  0.00  0.00    +0.010 A 
ATOM     25  C   UNL     1     -10.847 -13.435  -1.753  0.00  0.00    +0.042 A 
ATOM     26  C   UNL     1     -10.867 -14.157  -0.564  0.00  0.00    +0.098 A 
ATOM     27  N   UNL     1     -10.966 -13.535   0.601  0.00  0.00    -0.349 N 
ATOM     28  C   UNL     1     -11.044 -12.220   0.678  0.00  0.00    +0.089 A 
ATOM     29  N   UNL     1     -10.781 -15.544  -0.599  0.00  0.00    -0.323 N 
ATOM     30  C   UNL     1     -10.671 -16.239  -1.884  0.00  0.00    +0.130 C 
ATOM     31  C   UNL     1     -10.802 -16.311   0.649  0.00  0.00    +0.130 C 
ATOM     32  H   UNL     1     -10.979 -14.059   1.417  0.00  0.00    +0.167 HD
ENDBRANCH  22  23
ENDBRANCH  20  22
ENDBRANCH   2  18
TORSDOF 9
