REMARK  Name = ZINC60241801
REMARK  5 active torsions:
REMARK  status: ('A' for Active; 'I' for Inactive)
REMARK    1  A    between atoms: C_1  and  C_2
REMARK    2  A    between atoms: C_2  and  C_4
REMARK    3  A    between atoms: C_2  and  O_19
REMARK    4  A    between atoms: C_14  and  C_16
REMARK    5  A    between atoms: O_19  and  C_20
REMARK                            x       y       z     vdW  Elec       q    Type
REMARK                         _______ _______ _______ _____ _____    ______ ____
ROOT
ATOM      1  C   UNL     1       0.630  -0.400   1.059  0.00  0.00    +0.261 C 
ATOM      2  O   UNL     1      -0.032  -0.291   0.048  0.00  0.00    -0.271 OA
ATOM      3  N   UNL     1       1.901   0.046   1.084  0.00  0.00    -0.256 N 
ATOM      4  C   UNL     1       2.590   0.567  -0.016  0.00  0.00    +0.040 A 
ATOM      5  C   UNL     1       2.154   0.741  -1.331  0.00  0.00    +0.024 A 
ATOM      6  C   UNL     1       2.999   1.279  -2.278  0.00  0.00    +0.002 A 
ATOM      7  C   UNL     1       4.286   1.651  -1.932  0.00  0.00    +0.000 A 
ATOM      8  C   UNL     1       4.724   1.482  -0.632  0.00  0.00    +0.005 A 
ATOM      9  C   UNL     1       3.880   0.943   0.320  0.00  0.00    -0.024 A 
ATOM     10  C   UNL     1       4.098   0.653   1.788  0.00  0.00    +0.069 C 
ATOM     11  C   UNL     1       2.763   0.062   2.269  0.00  0.00    +0.171 C 
ENDROOT
BRANCH  11  12
ATOM     12  C   UNL     1       2.159   0.932   3.342  0.00  0.00    +0.232 C 
ATOM     13  O   UNL     1       1.103   1.494   3.144  0.00  0.00    -0.274 OA
ATOM     14  N   UNL     1       2.794   1.086   4.521  0.00  0.00    -0.328 N 
ATOM     15  H   UNL     1       3.639   0.637   4.679  0.00  0.00    +0.145 HD
ATOM     16  H   UNL     1       2.405   1.646   5.211  0.00  0.00    +0.145 HD
ENDBRANCH  11  12
BRANCH   1  18
ATOM     17  C   UNL     1       0.711  -2.380   2.550  0.00  0.00    +0.062 C 
ATOM     18  C   UNL     1       0.030  -1.035   2.287  0.00  0.00    +0.256 C 
BRANCH  18  19
ATOM     19  O   UNL     1      -1.369  -1.242   2.081  0.00  0.00    -0.480 OA
BRANCH  19  20
ATOM     20  C   UNL     1      -2.154  -1.299   3.189  0.00  0.00    +0.123 A 
ATOM     21  C   UNL     1      -1.578  -1.268   4.451  0.00  0.00    +0.046 A 
ATOM     22  C   UNL     1      -2.377  -1.325   5.576  0.00  0.00    +0.005 A 
ATOM     23  C   UNL     1      -3.751  -1.414   5.446  0.00  0.00    +0.020 A 
ATOM     24  C   UNL     1      -4.328  -1.445   4.189  0.00  0.00    +0.044 A 
ATOM     25  C   UNL     1      -3.532  -1.382   3.060  0.00  0.00    +0.065 A 
ATOM     26 CL   UNL     1      -6.053  -1.557   4.029  0.00  0.00    -0.083 Cl
ENDBRANCH  19  20
ENDBRANCH  18  19
ENDBRANCH   1  18
TORSDOF 4
