REMARK  Name = ZINC63731999
REMARK  7 active torsions:
REMARK  status: ('A' for Active; 'I' for Inactive)
REMARK    1  A    between atoms: C_6  and  C_11
REMARK    2  A    between atoms: C_11  and  C_12
REMARK    3  A    between atoms: C_12  and  C_14
REMARK    4  A    between atoms: C_12  and  N_23
REMARK    5  A    between atoms: N_16  and  C_17
REMARK    6  A    between atoms: N_23  and  S_24
REMARK    7  A    between atoms: S_24  and  C_27
REMARK                            x       y       z     vdW  Elec       q    Type
REMARK                         _______ _______ _______ _____ _____    ______ ____
ROOT
ATOM      1  C   UNL     1       5.120  -2.820   1.241  0.00  0.00    +0.164 C 
ENDROOT
BRANCH   1   2
ATOM      2  C   UNL     1       5.396  -3.527   2.543  0.00  0.00    +0.232 C 
ATOM      3  O   UNL     1       6.027  -4.563   2.548  0.00  0.00    -0.274 OA
ATOM      4  N   UNL     1       4.943  -3.008   3.701  0.00  0.00    -0.311 N 
ATOM      5  H   UNL     1       4.439  -2.179   3.697  0.00  0.00    +0.149 HD
BRANCH   4   6
ATOM      6  C   UNL     1       5.212  -3.695   4.967  0.00  0.00    +0.073 C 
ATOM      7  C   UNL     1       4.147  -4.768   5.201  0.00  0.00    +0.022 C 
ATOM      8  C   UNL     1       4.428  -5.486   6.522  0.00  0.00    +0.002 C 
ATOM      9  C   UNL     1       4.393  -4.475   7.670  0.00  0.00    +0.000 C 
ATOM     10  C   UNL     1       5.458  -3.402   7.436  0.00  0.00    +0.002 C 
ATOM     11  C   UNL     1       5.178  -2.684   6.114  0.00  0.00    +0.022 C 
ENDBRANCH   4   6
ENDBRANCH   1   2
BRANCH   1  12
ATOM     12  N   UNL     1       5.713  -3.579   0.138  0.00  0.00    -0.178 NA
ATOM     13  H   UNL     1       5.756  -4.547   0.183  0.00  0.00    +0.149 HD
BRANCH  12  14
ATOM     14  S   UNL     1       6.308  -2.785  -1.188  0.00  0.00    +0.059 S 
ATOM     15  O   UNL     1       6.862  -3.777  -2.041  0.00  0.00    -0.153 OA
ATOM     16  O   UNL     1       5.290  -1.892  -1.618  0.00  0.00    -0.153 OA
BRANCH  14  17
ATOM     17  C   UNL     1       7.652  -1.787  -0.637  0.00  0.00    +0.106 A 
ATOM     18  C   UNL     1       7.421  -0.491  -0.212  0.00  0.00    +0.030 A 
ATOM     19  C   UNL     1       8.472   0.293   0.221  0.00  0.00    +0.025 A 
ATOM     20  C   UNL     1       9.762  -0.221   0.229  0.00  0.00    +0.037 A 
ATOM     21  C   UNL     1       9.991  -1.522  -0.198  0.00  0.00    -0.024 A 
ATOM     22  C   UNL     1       8.935  -2.304  -0.625  0.00  0.00    +0.034 A 
ATOM     23  C   UNL     1      11.390  -2.080  -0.188  0.00  0.00    +0.046 C 
ATOM     24  C   UNL     1      12.387  -0.965  -0.507  0.00  0.00    +0.101 C 
ATOM     25  C   UNL     1      12.096   0.242   0.344  0.00  0.00    +0.218 C 
ATOM     26  O   UNL     1      13.012   0.928   0.743  0.00  0.00    -0.275 OA
ATOM     27  N   UNL     1      10.831   0.568   0.666  0.00  0.00    -0.285 N 
ATOM     28  H   UNL     1      10.659   1.356   1.205  0.00  0.00    +0.155 HD
ENDBRANCH  14  17
ENDBRANCH  12  14
ENDBRANCH   1  12
BRANCH   1  29
ATOM     29  C   UNL     1       3.608  -2.711   1.031  0.00  0.00    +0.058 C 
BRANCH  29  35
ATOM     30  C   UNL     1      -0.176  -5.791  -1.825  0.00  0.00    +0.001 A 
ATOM     31  C   UNL     1       0.998  -6.319  -2.379  0.00  0.00    +0.002 A 
ATOM     32  C   UNL     1       2.219  -6.095  -1.849  0.00  0.00    +0.026 A 
ATOM     33  C   UNL     1       2.360  -5.295  -0.681  0.00  0.00    +0.043 A 
ATOM     34  N   UNL     1       3.415  -4.938   0.010  0.00  0.00    -0.378 N 
ATOM     35  C   UNL     1       2.978  -4.101   1.133  0.00  0.00    +0.105 C 
ATOM     36  C   UNL     1       1.473  -4.003   1.015  0.00  0.00    +0.007 C 
ATOM     37  C   UNL     1       1.135  -4.726  -0.077  0.00  0.00    -0.004 A 
ATOM     38  C   UNL     1      -0.154  -5.018  -0.716  0.00  0.00    +0.010 A 
ATOM     39  H   UNL     1       4.332  -5.187  -0.187  0.00  0.00    +0.160 HD
ENDBRANCH  29  35
ENDBRANCH   1  29
TORSDOF 7
