REMARK  Name = ZINC13611126
REMARK  5 active torsions:
REMARK  status: ('A' for Active; 'I' for Inactive)
REMARK    1  A    between atoms: C_1  and  C_2
REMARK    2  A    between atoms: C_2  and  C_3
REMARK    3  A    between atoms: C_6  and  N_9
REMARK    4  A    between atoms: C_13  and  C_17
REMARK    5  A    between atoms: C_18  and  C_33
REMARK                            x       y       z     vdW  Elec       q    Type
REMARK                         _______ _______ _______ _____ _____    ______ ____
ROOT
ATOM      1  C   UNL     1      -8.491  -1.705  -1.127  0.00  0.00    +0.051 A 
ATOM      2  C   UNL     1      -9.555  -1.995  -1.904  0.00  0.00    +0.039 A 
ATOM      3  N   UNL     1     -10.302  -0.862  -2.054  0.00  0.00    -0.292 N 
ATOM      4  N   UNL     1      -9.677   0.171  -1.343  0.00  0.00    -0.186 N 
ATOM      5  C   UNL     1      -8.570  -0.340  -0.768  0.00  0.00    +0.278 A 
ATOM      6  O   UNL     1      -7.779   0.266  -0.067  0.00  0.00    -0.265 OA
ATOM      7  C   UNL     1     -10.120   1.478  -1.244  0.00  0.00    +0.232 A 
ATOM      8  N   UNL     1     -11.252   1.968  -1.828  0.00  0.00    -0.322 N 
ATOM      9  H   UNL     1     -11.879   1.471  -2.376  0.00  0.00    +0.169 HD
ATOM     10  C   UNL     1     -11.340   3.308  -1.491  0.00  0.00    +0.068 A 
ATOM     11  C   UNL     1     -12.250   4.315  -1.779  0.00  0.00    +0.028 A 
ATOM     12  C   UNL     1     -12.050   5.585  -1.278  0.00  0.00    +0.002 A 
ATOM     13  C   UNL     1     -10.945   5.862  -0.487  0.00  0.00    +0.002 A 
ATOM     14  C   UNL     1     -10.032   4.875  -0.191  0.00  0.00    +0.030 A 
ATOM     15  C   UNL     1     -10.220   3.584  -0.690  0.00  0.00    +0.091 A 
ATOM     16  N   UNL     1      -9.518   2.427  -0.573  0.00  0.00    -0.211 NA
ATOM     17  C   UNL     1      -9.866  -3.342  -2.504  0.00  0.00    +0.065 C 
ATOM     18  H   UNL     1     -11.123  -0.785  -2.565  0.00  0.00    +0.187 HD
ENDROOT
BRANCH   1  23
ATOM     19  N   UNL     1      -5.323  -1.969   0.042  0.00  0.00    -0.210 N 
ATOM     20  C   UNL     1      -5.961  -2.308   1.169  0.00  0.00    +0.227 C 
ATOM     21  O   UNL     1      -5.497  -2.240   2.287  0.00  0.00    -0.275 OA
ATOM     22  C   UNL     1      -7.354  -2.790   0.826  0.00  0.00    +0.114 C 
ATOM     23  C   UNL     1      -7.410  -2.669  -0.710  0.00  0.00    +0.122 C 
ATOM     24  C   UNL     1      -6.045  -2.126  -1.074  0.00  0.00    +0.234 C 
ATOM     25  O   UNL     1      -5.665  -1.876  -2.197  0.00  0.00    -0.274 OA
BRANCH  19  29
ATOM     26  C   UNL     1      -1.412  -0.525   0.014  0.00  0.00    -0.048 A 
ATOM     27  C   UNL     1      -2.422   0.231   0.580  0.00  0.00    +0.005 A 
ATOM     28  C   UNL     1      -3.719  -0.245   0.591  0.00  0.00    +0.024 A 
ATOM     29  C   UNL     1      -4.008  -1.483   0.032  0.00  0.00    +0.044 A 
ATOM     30  C   UNL     1      -2.991  -2.239  -0.535  0.00  0.00    +0.024 A 
ATOM     31  C   UNL     1      -1.697  -1.756  -0.548  0.00  0.00    +0.005 A 
BRANCH  26  33
ATOM     32  C   UNL     1       0.236   0.810  -1.271  0.00  0.00    +0.009 C 
ATOM     33  C   UNL     1       0.002  -0.003   0.004  0.00  0.00    +0.032 C 
ENDBRANCH  26  33
ENDBRANCH  19  29
ENDBRANCH   1  23
TORSDOF 3
