REMARK  Name = ZINC58948546
REMARK  11 active torsions:
REMARK  status: ('A' for Active; 'I' for Inactive)
REMARK    1  A    between atoms: C_1  and  C_2
REMARK    2  A    between atoms: C_2  and  O_3
REMARK    3  A    between atoms: O_3  and  C_4
REMARK    4  A    between atoms: C_4  and  C_6
REMARK    5  A    between atoms: C_7  and  C_26
REMARK    6  A    between atoms: C_9  and  N_25
REMARK    7  A    between atoms: C_10  and  C_22
REMARK    8  A    between atoms: C_11  and  C_13
REMARK    9  A    between atoms: C_16  and  N_19
REMARK   10  A    between atoms: N_19  and  C_20
REMARK   11  A    between atoms: N_19  and  C_21
REMARK                            x       y       z     vdW  Elec       q    Type
REMARK                         _______ _______ _______ _____ _____    ______ ____
ROOT
ATOM      1  C   UNL     1      -2.824  -2.397   0.275  0.00  0.00    +0.086 C 
ATOM      2  C   UNL     1      -2.917  -3.683  -0.088  0.00  0.00    +0.115 C 
ATOM      3  O   UNL     1      -4.098  -4.266  -0.344  0.00  0.00    -0.446 OA
ATOM      4  C   UNL     1      -5.177  -3.507  -0.609  0.00  0.00    +0.193 C 
ATOM      5  C   UNL     1      -5.218  -2.193  -0.272  0.00  0.00    +0.083 C 
ATOM      6  C   UNL     1      -4.051  -1.539   0.420  0.00  0.00    +0.099 C 
ATOM      7  C   UNL     1      -1.657  -4.500  -0.212  0.00  0.00    +0.087 C 
ENDROOT
BRANCH   6   8
ATOM      8  C   UNL     1      -4.367  -1.360   1.883  0.00  0.00    -0.035 A 
ATOM      9  C   UNL     1      -4.628  -2.465   2.672  0.00  0.00    +0.006 A 
ATOM     10  C   UNL     1      -4.918  -2.305   4.013  0.00  0.00    +0.023 A 
ATOM     11  C   UNL     1      -4.946  -1.032   4.569  0.00  0.00    +0.029 A 
ATOM     12  C   UNL     1      -4.682   0.075   3.773  0.00  0.00    +0.023 A 
ATOM     13  C   UNL     1      -4.388  -0.092   2.434  0.00  0.00    +0.006 A 
BRANCH  11  14
ATOM     14  N   UNL     1      -5.239  -0.867   5.925  0.00  0.00    -0.336 N 
ATOM     15  C   UNL     1      -5.517  -2.036   6.762  0.00  0.00    +0.129 C 
ATOM     16  C   UNL     1      -5.268   0.476   6.509  0.00  0.00    +0.129 C 
ENDBRANCH  11  14
ENDBRANCH   6   8
BRANCH   5  17
ATOM     17  C   UNL     1      -6.365  -1.435  -0.568  0.00  0.00    +0.243 C 
ATOM     18  O   UNL     1      -6.377  -0.703  -1.542  0.00  0.00    -0.271 OA
ATOM     19  N   UNL     1      -7.451  -1.518   0.226  0.00  0.00    -0.325 N 
ATOM     20  H   UNL     1      -7.441  -2.101   1.002  0.00  0.00    +0.145 HD
ATOM     21  H   UNL     1      -8.242  -0.995   0.022  0.00  0.00    +0.145 HD
ENDBRANCH   5  17
BRANCH   4  22
ATOM     22  N   UNL     1      -6.257  -4.072  -1.233  0.00  0.00    -0.329 N 
ATOM     23  H   UNL     1      -6.280  -5.029  -1.391  0.00  0.00    +0.145 HD
ATOM     24  H   UNL     1      -6.999  -3.516  -1.518  0.00  0.00    +0.145 HD
ENDBRANCH   4  22
BRANCH   1  25
ATOM     25  C   UNL     1      -1.549  -1.837   0.532  0.00  0.00    +0.339 C 
ATOM     26  O   UNL     1      -1.039  -1.087  -0.278  0.00  0.00    -0.245 OA
BRANCH  25  27
ATOM     27  O   UNL     1      -0.899  -2.135   1.677  0.00  0.00    -0.462 OA
BRANCH  27  29
ATOM     28  C   UNL     1       0.960  -1.988   3.213  0.00  0.00    +0.048 C 
ATOM     29  C   UNL     1       0.383  -1.535   1.871  0.00  0.00    +0.229 C 
ENDBRANCH  27  29
ENDBRANCH  25  27
ENDBRANCH   1  25
TORSDOF 7
