REMARK  Name = ZINC48193060
REMARK  9 active torsions:
REMARK  status: ('A' for Active; 'I' for Inactive)
REMARK    1  A    between atoms: C_1  and  C_2
REMARK    2  A    between atoms: C_8  and  C_29
REMARK    3  A    between atoms: C_8  and  C_30
REMARK    4  A    between atoms: C_10  and  N_12
REMARK    5  A    between atoms: N_15  and  C_16
REMARK    6  A    between atoms: C_16  and  C_18
REMARK    7  A    between atoms: C_16  and  C_19
REMARK    8  A    between atoms: C_23  and  S_25
REMARK    9  A    between atoms: S_25  and  N_28
REMARK                            x       y       z     vdW  Elec       q    Type
REMARK                         _______ _______ _______ _____ _____    ______ ____
ROOT
ATOM      1  N   UNL     1      -2.496  -3.308   0.956  0.00  0.00    -0.292 N 
ATOM      2  C   UNL     1      -3.661  -2.739   0.591  0.00  0.00    +0.301 C 
ATOM      3  O   UNL     1      -3.801  -2.309  -0.538  0.00  0.00    -0.253 OA
ATOM      4  N   UNL     1      -4.673  -2.646   1.477  0.00  0.00    -0.293 N 
ATOM      5  H   UNL     1      -2.384  -3.651   1.856  0.00  0.00    +0.151 HD
ATOM      6  H   UNL     1      -4.561  -2.989   2.377  0.00  0.00    +0.151 HD
ENDROOT
BRANCH   1  16
ATOM      7  C   UNL     1      -0.018   1.503   0.010  0.00  0.00    +0.086 C 
ATOM      8  C   UNL     1       0.002  -0.004   0.002  0.00  0.00    +0.103 A 
ATOM      9  C   UNL     1      -1.081  -0.806   0.003  0.00  0.00    +0.050 A 
ATOM     10  C   UNL     1      -0.602  -2.129  -0.007  0.00  0.00    +0.014 A 
ATOM     11  C   UNL     1       0.745  -2.064  -0.014  0.00  0.00    +0.111 A 
ATOM     12  O   UNL     1       1.104  -0.775  -0.013  0.00  0.00    -0.464 OA
ATOM     13  C   UNL     1       1.646  -3.276  -0.028  0.00  0.00    +0.081 C 
ATOM     14  C   UNL     1       0.815  -4.493  -0.450  0.00  0.00    -0.026 C 
ATOM     15  C   UNL     1      -0.462  -4.558   0.393  0.00  0.00    +0.034 C 
ATOM     16  C   UNL     1      -1.397  -3.409  -0.008  0.00  0.00    +0.109 C 
ATOM     17  C   UNL     1       0.444  -4.369  -1.929  0.00  0.00    +0.011 C 
ATOM     18  C   UNL     1       1.633  -5.768  -0.235  0.00  0.00    +0.011 C 
ENDBRANCH   1  16
BRANCH   4  19
ATOM     19  C   UNL     1      -5.940  -2.027   1.080  0.00  0.00    +0.102 C 
ATOM     20  C   UNL     1      -6.827  -3.072   0.400  0.00  0.00    +0.033 C 
BRANCH  19  21
ATOM     21  C   UNL     1      -6.641  -1.492   2.302  0.00  0.00    -0.026 A 
ATOM     22  C   UNL     1      -6.626  -2.214   3.480  0.00  0.00    +0.005 A 
ATOM     23  C   UNL     1      -7.269  -1.723   4.601  0.00  0.00    +0.002 A 
ATOM     24  C   UNL     1      -7.928  -0.509   4.543  0.00  0.00    +0.028 A 
ATOM     25  C   UNL     1      -7.943   0.214   3.365  0.00  0.00    +0.105 A 
ATOM     26  C   UNL     1      -7.295  -0.275   2.245  0.00  0.00    +0.034 A 
BRANCH  25  27
ATOM     27  S   UNL     1      -8.783   1.761   3.291  0.00  0.00    +0.056 S 
ATOM     28  O   UNL     1      -9.111   1.980   1.926  0.00  0.00    -0.153 OA
ATOM     29  O   UNL     1      -9.766   1.739   4.317  0.00  0.00    -0.153 OA
BRANCH  27  30
ATOM     30  N   UNL     1      -7.689   2.933   3.709  0.00  0.00    -0.204 NA
ATOM     31  H   UNL     1      -7.770   3.826   3.339  0.00  0.00    +0.144 HD
ATOM     32  H   UNL     1      -6.967   2.725   4.323  0.00  0.00    +0.144 HD
ENDBRANCH  27  30
ENDBRANCH  25  27
ENDBRANCH  19  21
ENDBRANCH   4  19
TORSDOF 5
