REMARK  Name = ZINC59882810
REMARK  9 active torsions:
REMARK  status: ('A' for Active; 'I' for Inactive)
REMARK    1  A    between atoms: C_1  and  C_2
REMARK    2  A    between atoms: C_2  and  C_4
REMARK    3  A    between atoms: C_2  and  S_14
REMARK    4  A    between atoms: N_6  and  N_7
REMARK    5  A    between atoms: C_8  and  C_10
REMARK    6  A    between atoms: S_14  and  C_15
REMARK    7  A    between atoms: C_18  and  C_21
REMARK    8  A    between atoms: N_19  and  N_20
REMARK    9  A    between atoms: C_25  and  N_27
REMARK                            x       y       z     vdW  Elec       q    Type
REMARK                         _______ _______ _______ _____ _____    ______ ____
ROOT
ATOM      1  C   UNL     1      -2.335  -0.110   1.573  0.00  0.00    +0.209 A 
ATOM      2  N   UNL     1      -1.690   0.582   2.486  0.00  0.00    -0.121 NA
ATOM      3  N   UNL     1      -2.450   0.791   3.501  0.00  0.00    -0.127 NA
ATOM      4  C   UNL     1      -3.627   0.246   3.298  0.00  0.00    +0.182 A 
ATOM      5  N   UNL     1      -3.591  -0.343   2.055  0.00  0.00    -0.224 N 
ENDROOT
BRANCH   4   6
ATOM      6  C   UNL     1      -4.777   0.266   4.228  0.00  0.00    +0.023 A 
ATOM      7  C   UNL     1      -5.848  -0.608   4.037  0.00  0.00    +0.012 A 
ATOM      8  C   UNL     1      -6.918  -0.584   4.908  0.00  0.00    +0.003 A 
ATOM      9  C   UNL     1      -6.930   0.304   5.969  0.00  0.00    +0.033 A 
ATOM     10  C   UNL     1      -5.871   1.173   6.164  0.00  0.00    +0.127 A 
ATOM     11  C   UNL     1      -4.792   1.155   5.303  0.00  0.00    +0.044 A 
BRANCH  10  12
ATOM     12  N   UNL     1      -5.893   2.120   7.301  0.00  0.00    +0.056 N 
ATOM     13  O   UNL     1      -6.835   2.134   8.059  0.00  0.00    -0.126 OA
ATOM     14  O   UNL     1      -4.968   2.880   7.473  0.00  0.00    -0.126 OA
ENDBRANCH  10  12
ENDBRANCH   4   6
BRANCH   5  15
ATOM     15  N   UNL     1      -4.601  -1.023   1.434  0.00  0.00    -0.295 N 
ATOM     16  H   UNL     1      -4.569  -2.005   1.662  0.00  0.00    +0.163 HD
ATOM     17  H   UNL     1      -5.499  -0.627   1.667  0.00  0.00    +0.163 HD
ENDBRANCH   5  15
BRANCH   1  18
ATOM     18  S   UNL     1      -1.700  -0.632   0.015  0.00  0.00    -0.072 S 
BRANCH  18  20
ATOM     19  C   UNL     1      -0.019   1.526   0.010  0.00  0.00    +0.029 C 
ATOM     20  C   UNL     1       0.002  -0.004   0.002  0.00  0.00    +0.138 C 
BRANCH  20  21
ATOM     21  C   UNL     1       0.707  -0.490  -1.238  0.00  0.00    +0.242 C 
ATOM     22  O   UNL     1       0.066  -0.782  -2.225  0.00  0.00    -0.273 OA
ATOM     23  N   UNL     1       2.051  -0.601  -1.250  0.00  0.00    -0.233 N 
ATOM     24  H   UNL     1       2.563  -0.367  -0.460  0.00  0.00    +0.173 HD
BRANCH  23  25
ATOM     25  N   UNL     1       2.706  -1.052  -2.402  0.00  0.00    -0.234 N 
ATOM     26  C   UNL     1       4.050  -1.163  -2.414  0.00  0.00    +0.232 C 
ATOM     27  O   UNL     1       4.691  -0.871  -1.426  0.00  0.00    -0.274 OA
ATOM     28  H   UNL     1       2.194  -1.286  -3.192  0.00  0.00    +0.173 HD
BRANCH  26  29
ATOM     29  C   UNL     1       4.755  -1.649  -3.654  0.00  0.00    +0.076 C 
ATOM     30  C   UNL     1       4.777  -3.180  -3.789  0.00  0.00    +0.013 C 
ATOM     31  C   UNL     1       6.222  -3.036  -4.296  0.00  0.00    +0.001 C 
ATOM     32  C   UNL     1       6.284  -1.718  -3.505  0.00  0.00    +0.013 C 
ENDBRANCH  26  29
ENDBRANCH  23  25
ENDBRANCH  20  21
ENDBRANCH  18  20
ENDBRANCH   1  18
TORSDOF 8
