REMARK  Name = ZINC24056537
REMARK  3 active torsions:
REMARK  status: ('A' for Active; 'I' for Inactive)
REMARK    1  A    between atoms: C_1  and  C_2
REMARK    2  A    between atoms: C_7  and  C_8
REMARK    3  A    between atoms: C_8  and  N_9
REMARK                            x       y       z     vdW  Elec       q    Type
REMARK                         _______ _______ _______ _____ _____    ______ ____
ROOT
ATOM      1  N   UNL     1      -1.591   0.352   2.772  0.00  0.00    -0.295 NA
ATOM      2  C   UNL     1      -2.244   1.129   1.710  0.00  0.00    +0.103 C 
ATOM      3  C   UNL     1      -3.750   1.200   1.987  0.00  0.00    +0.122 C 
ATOM      4  N   UNL     1      -3.950   1.718   3.349  0.00  0.00    -0.313 N 
ATOM      5  C   UNL     1      -3.219   1.076   4.452  0.00  0.00    +0.122 C 
ATOM      6  C   UNL     1      -1.735   1.009   4.078  0.00  0.00    +0.103 C 
ATOM      7  C   UNL     1      -4.806   2.781   3.586  0.00  0.00    +0.128 A 
ATOM      8  C   UNL     1      -5.579   3.313   2.553  0.00  0.00    +0.084 A 
ATOM      9  C   UNL     1      -6.419   4.374   2.836  0.00  0.00    +0.136 A 
ATOM     10  N   UNL     1      -6.465   4.852   4.072  0.00  0.00    -0.203 NA
ATOM     11  C   UNL     1      -5.720   4.327   5.033  0.00  0.00    +0.216 A 
ATOM     12  N   UNL     1      -4.906   3.307   4.803  0.00  0.00    -0.200 NA
ATOM     13  N   UNL     1      -5.796   4.854   6.311  0.00  0.00    -0.327 N 
ATOM     14 CL   UNL     1      -7.401   5.074   1.587  0.00  0.00    -0.062 Cl
ATOM     15  H   UNL     1      -6.390   5.599   6.493  0.00  0.00    +0.145 HD
ATOM     16  H   UNL     1      -5.255   4.479   7.023  0.00  0.00    +0.145 HD
ENDROOT
BRANCH   1  17
ATOM     17  C   UNL     1      -0.176   0.114   2.456  0.00  0.00    +0.120 C 
BRANCH  17  24
ATOM     18  C   UNL     1      -0.691  -2.683   2.967  0.00  0.00    +0.044 C 
ATOM     19  C   UNL     1      -0.320  -2.226   1.580  0.00  0.00    -0.046 A 
ATOM     20  C   UNL     1      -0.232  -3.145   0.551  0.00  0.00    +0.003 A 
ATOM     21  C   UNL     1       0.108  -2.727  -0.722  0.00  0.00    +0.000 A 
ATOM     22  C   UNL     1       0.359  -1.389  -0.966  0.00  0.00    +0.000 A 
ATOM     23  C   UNL     1       0.270  -0.470   0.063  0.00  0.00    +0.005 A 
ATOM     24  C   UNL     1      -0.074  -0.888   1.335  0.00  0.00    -0.030 A 
ENDBRANCH  17  24
ENDBRANCH   1  17
TORSDOF 2
