REMARK  Name = ZINC40149642
REMARK  10 active torsions:
REMARK  status: ('A' for Active; 'I' for Inactive)
REMARK    1  A    between atoms: C_1  and  C_2
REMARK    2  A    between atoms: C_2  and  C_3
REMARK    3  A    between atoms: C_2  and  C_4
REMARK    4  A    between atoms: C_2  and  O_5
REMARK    5  A    between atoms: O_5  and  C_6
REMARK    6  A    between atoms: C_12  and  C_15
REMARK    7  A    between atoms: N_17  and  C_18
REMARK    8  A    between atoms: N_23  and  C_25
REMARK    9  A    between atoms: C_25  and  C_26
REMARK   10  A    between atoms: C_29  and  C_32
REMARK                            x       y       z     vdW  Elec       q    Type
REMARK                         _______ _______ _______ _____ _____    ______ ____
ROOT
ATOM      1  C   UNL     1       6.303  -0.939  -3.172  0.00  0.00    +0.218 C 
ATOM      2  O   UNL     1       6.794  -1.260  -4.233  0.00  0.00    -0.275 OA
ATOM      3  N   UNL     1       7.023  -0.224  -2.285  0.00  0.00    -0.314 N 
ATOM      4  H   UNL     1       6.631   0.034  -1.436  0.00  0.00    +0.149 HD
ENDROOT
BRANCH   1  11
ATOM      5  C   UNL     1       1.952  -0.085  -1.337  0.00  0.00    +0.403 C 
ATOM      6  O   UNL     1       2.488   0.619  -0.503  0.00  0.00    -0.226 OA
ATOM      7  N   UNL     1       2.641  -0.485  -2.424  0.00  0.00    -0.267 N 
ATOM      8  C   UNL     1       2.005  -1.331  -3.443  0.00  0.00    +0.111 C 
ATOM      9  C   UNL     1       2.874  -2.573  -3.666  0.00  0.00    +0.020 C 
ATOM     10  C   UNL     1       4.300  -2.137  -4.011  0.00  0.00    +0.016 C 
ATOM     11  C   UNL     1       4.888  -1.339  -2.845  0.00  0.00    +0.092 C 
ATOM     12  C   UNL     1       4.040  -0.078  -2.616  0.00  0.00    +0.123 C 
BRANCH   5  13
ATOM     13  O   UNL     1       0.671  -0.465  -1.174  0.00  0.00    -0.445 OA
BRANCH  13  15
ATOM     14  C   UNL     1      -0.019   1.526   0.010  0.00  0.00    +0.055 C 
ATOM     15  C   UNL     1       0.002  -0.004   0.002  0.00  0.00    +0.107 C 
ATOM     16  C   UNL     1       0.742  -0.511   1.242  0.00  0.00    +0.055 C 
ATOM     17  C   UNL     1      -1.433  -0.534   0.013  0.00  0.00    +0.055 C 
ENDBRANCH  13  15
ENDBRANCH   5  13
ENDBRANCH   1  11
BRANCH   3  18
ATOM     18  C   UNL     1       8.400   0.166  -2.603  0.00  0.00    +0.056 C 
ATOM     19  C   UNL     1       8.389   1.464  -3.416  0.00  0.00    +0.018 C 
ATOM     20  C   UNL     1       9.833   1.903  -3.676  0.00  0.00    -0.017 C 
ATOM     21  C   UNL     1      10.561   2.061  -2.339  0.00  0.00    -0.078 C 
ATOM     22  N   UNL     1      10.559   0.780  -1.622  0.00  0.00    +0.384 N 
ATOM     23  C   UNL     1       9.181   0.387  -1.306  0.00  0.00    -0.056 C 
ATOM     24  H   UNL     1      10.985   0.072  -2.200  0.00  0.00    -0.081 HD
BRANCH  22  25
ATOM     25  C   UNL     1      11.325   0.917  -0.376  0.00  0.00    -0.043 C 
BRANCH  25  26
ATOM     26  C   UNL     1      12.771   1.190  -0.703  0.00  0.00    -0.064 A 
ATOM     27  C   UNL     1      13.651   0.135  -0.864  0.00  0.00    +0.003 A 
ATOM     28  C   UNL     1      14.976   0.378  -1.163  0.00  0.00    +0.019 A 
ATOM     29  C   UNL     1      15.427   1.692  -1.304  0.00  0.00    +0.052 A 
ATOM     30  C   UNL     1      14.533   2.752  -1.140  0.00  0.00    +0.019 A 
ATOM     31  C   UNL     1      13.210   2.494  -0.846  0.00  0.00    +0.003 A 
BRANCH  29  32
ATOM     32  C   UNL     1      16.801   1.951  -1.614  0.00  0.00    +0.099 C 
ATOM     33  N   UNL     1      17.891   2.157  -1.860  0.00  0.00    -0.191 NA
ENDBRANCH  29  32
ENDBRANCH  25  26
ENDBRANCH  22  25
ENDBRANCH   3  18
TORSDOF 7
