REMARK  Name = ZINC67546687
REMARK  11 active torsions:
REMARK  status: ('A' for Active; 'I' for Inactive)
REMARK    1  A    between atoms: C_1  and  C_2
REMARK    2  A    between atoms: C_2  and  C_3
REMARK    3  A    between atoms: C_3  and  C_4
REMARK    4  A    between atoms: C_3  and  C_5
REMARK    5  A    between atoms: C_3  and  N_6
REMARK    6  A    between atoms: C_7  and  C_9
REMARK    7  A    between atoms: C_12  and  N_16
REMARK    8  A    between atoms: N_19  and  C_20
REMARK    9  A    between atoms: C_20  and  C_21
REMARK   10  A    between atoms: C_22  and  C_27
REMARK   11  A    between atoms: C_25  and  C_26
REMARK                            x       y       z     vdW  Elec       q    Type
REMARK                         _______ _______ _______ _____ _____    ______ ____
ROOT
ATOM      1  C   UNL     1       1.367  -4.097  -2.295  0.00  0.00    +0.055 A 
ATOM      2  C   UNL     1       0.766  -4.808  -1.252  0.00  0.00    +0.016 A 
ATOM      3  C   UNL     1       0.778  -6.184  -1.262  0.00  0.00    +0.024 A 
ATOM      4  C   UNL     1       1.388  -6.869  -2.308  0.00  0.00    +0.036 A 
ATOM      5  C   UNL     1       1.988  -6.168  -3.348  0.00  0.00    +0.044 A 
ATOM      6  C   UNL     1       1.974  -4.789  -3.349  0.00  0.00    +0.055 A 
ATOM      7 CL   UNL     1       2.716  -3.913  -4.651  0.00  0.00    -0.083 Cl
ENDROOT
BRANCH   4   8
ATOM      8  N   UNL     1       1.398  -8.264  -2.314  0.00  0.00    -0.269 N 
ATOM      9  C   UNL     1       1.300  -8.934  -3.479  0.00  0.00    +0.304 C 
ATOM     10  O   UNL     1       1.287  -8.325  -4.532  0.00  0.00    -0.252 OA
ATOM     11  N   UNL     1       1.216 -10.279  -3.478  0.00  0.00    -0.295 N 
ATOM     12  H   UNL     1       1.475  -8.752  -1.479  0.00  0.00    +0.156 HD
ATOM     13  H   UNL     1       1.227 -10.765  -2.639  0.00  0.00    +0.151 HD
BRANCH  11  14
ATOM     14  C   UNL     1       1.110 -11.007  -4.745  0.00  0.00    +0.146 C 
BRANCH  14  15
ATOM     15  C   UNL     1       1.032 -12.486  -4.469  0.00  0.00    +0.034 A 
ATOM     16  C   UNL     1       2.124 -13.366  -4.367  0.00  0.00    +0.085 A 
ATOM     17  N   UNL     1       1.661 -14.559  -4.122  0.00  0.00    -0.083 NA
ATOM     18  O   UNL     1       0.249 -14.474  -4.060  0.00  0.00    -0.359 OA
ATOM     19  C   UNL     1      -0.097 -13.195  -4.272  0.00  0.00    +0.139 A 
ATOM     20  C   UNL     1      -1.501 -12.648  -4.289  0.00  0.00    +0.089 C 
ATOM     21  C   UNL     1       3.577 -12.994  -4.515  0.00  0.00    +0.069 C 
ENDBRANCH  14  15
ENDBRANCH  11  14
ENDBRANCH   4   8
BRANCH   1  23
ATOM     22  N   UNL     1       0.771  -1.958  -1.272  0.00  0.00    -0.306 N 
ATOM     23  C   UNL     1       1.357  -2.622  -2.288  0.00  0.00    +0.246 C 
ATOM     24  O   UNL     1       1.876  -2.006  -3.199  0.00  0.00    -0.270 OA
ATOM     25  H   UNL     1       0.357  -2.449  -0.546  0.00  0.00    +0.150 HD
BRANCH  22  26
ATOM     26  C   UNL     1       0.761  -0.493  -1.265  0.00  0.00    +0.029 C 
ATOM     27  C   UNL     1       0.032   0.018  -2.509  0.00  0.00    +0.031 C 
ATOM     28  C   UNL     1       2.200   0.028  -1.267  0.00  0.00    +0.031 C 
BRANCH  26  30
ATOM     29  C   UNL     1       0.029   1.536  -0.003  0.00  0.00    +0.006 C 
ATOM     30  C   UNL     1       0.040   0.006  -0.011  0.00  0.00    +0.022 C 
ENDBRANCH  26  30
ENDBRANCH  22  26
ENDBRANCH   1  23
TORSDOF 6
