REMARK  Name = ZINC62102096
REMARK  4 active torsions:
REMARK  status: ('A' for Active; 'I' for Inactive)
REMARK    1  A    between atoms: C_1  and  C_2
REMARK    2  A    between atoms: C_2  and  C_3
REMARK    3  A    between atoms: C_2  and  C_11
REMARK    4  A    between atoms: C_2  and  N_14
REMARK                            x       y       z     vdW  Elec       q    Type
REMARK                         _______ _______ _______ _____ _____    ______ ____
ROOT
ATOM      1  C   UNL     1       0.266   1.499  -0.105  0.00  0.00    +0.007 C 
ATOM      2  C   UNL     1       0.002  -0.004   0.002  0.00  0.00    +0.062 C 
ENDROOT
BRANCH   2   3
ATOM      3  N   UNL     1      -1.428  -0.266  -0.206  0.00  0.00    +0.395 N 
ATOM      4  C   UNL     1      -2.160   0.247   0.941  0.00  0.00    -0.068 C 
ATOM      5  C   UNL     1      -3.619  -0.219   0.910  0.00  0.00    +0.077 C 
ATOM      6  C   UNL     1      -4.406   0.740   0.040  0.00  0.00    +0.211 C 
ATOM      7  O   UNL     1      -5.218   1.489   0.540  0.00  0.00    -0.276 OA
ATOM      8  N   UNL     1      -4.204   0.757  -1.281  0.00  0.00    -0.317 N 
ATOM      9  C   UNL     1      -3.221  -0.158  -1.888  0.00  0.00    +0.086 C 
ATOM     10  C   UNL     1      -1.817   0.303  -1.486  0.00  0.00    -0.058 C 
ATOM     11  H   UNL     1      -4.704   1.373  -1.840  0.00  0.00    +0.149 HD
ATOM     12  H   UNL     1      -1.565  -1.265  -0.247  0.00  0.00    -0.080 HD
ENDBRANCH   2   3
BRANCH   2  13
ATOM     13  C   UNL     1       0.408  -0.489   1.370  0.00  0.00    -0.029 A 
ATOM     14  C   UNL     1       0.857   0.411   2.318  0.00  0.00    +0.005 A 
ATOM     15  C   UNL     1       1.229  -0.033   3.572  0.00  0.00    +0.020 A 
ATOM     16  C   UNL     1       1.153  -1.380   3.880  0.00  0.00    +0.042 A 
ATOM     17  C   UNL     1       0.703  -2.281   2.933  0.00  0.00    +0.040 A 
ATOM     18  C   UNL     1       0.326  -1.835   1.678  0.00  0.00    +0.045 A 
ATOM     19 CL   UNL     1      -0.244  -2.965   0.490  0.00  0.00    -0.083 Cl
ATOM     20 CL   UNL     1       1.621  -1.938   5.456  0.00  0.00    -0.083 Cl
ENDBRANCH   2  13
BRANCH   2  21
ATOM     21  C   UNL     1       0.804  -0.730  -1.047  0.00  0.00    +0.350 C 
ATOM     22  O   UNL     1       2.010  -0.566  -1.115  0.00  0.00    -0.248 OA
ATOM     23  O   UNL     1       0.246  -1.483  -1.828  0.00  0.00    -0.248 OA
ENDBRANCH   2  21
TORSDOF 3
