REMARK  Name = ZINC36491856
REMARK  12 active torsions:
REMARK  status: ('A' for Active; 'I' for Inactive)
REMARK    1  A    between atoms: C_1  and  C_2
REMARK    2  A    between atoms: C_2  and  C_3
REMARK    3  A    between atoms: C_2  and  C_4
REMARK    4  A    between atoms: C_2  and  N_5
REMARK    5  A    between atoms: C_6  and  C_8
REMARK    6  A    between atoms: C_8  and  C_10
REMARK    7  A    between atoms: C_8  and  N_19
REMARK    8  A    between atoms: C_11  and  O_18
REMARK    9  A    between atoms: C_13  and  O_17
REMARK   10  A    between atoms: C_15  and  O_16
REMARK   11  A    between atoms: N_19  and  C_20
REMARK   12  A    between atoms: C_26  and  C_28
REMARK                            x       y       z     vdW  Elec       q    Type
REMARK                         _______ _______ _______ _____ _____    ______ ____
ROOT
ATOM      1  C   UNL     1       2.658  -0.800  -2.078  0.00  0.00    +0.200 C 
ENDROOT
BRANCH   1   2
ATOM      2  C   UNL     1       1.210  -0.416  -2.239  0.00  0.00    +0.065 A 
ATOM      3  C   UNL     1       0.500  -0.840  -3.352  0.00  0.00    +0.129 A 
ATOM      4  C   UNL     1      -0.833  -0.487  -3.501  0.00  0.00    +0.091 A 
ATOM      5  C   UNL     1      -1.456   0.290  -2.536  0.00  0.00    +0.124 A 
ATOM      6  C   UNL     1      -0.746   0.714  -1.422  0.00  0.00    +0.091 A 
ATOM      7  C   UNL     1       0.586   0.357  -1.272  0.00  0.00    +0.129 A 
BRANCH   7   8
ATOM      8  O   UNL     1       1.280   0.768  -0.178  0.00  0.00    -0.506 OA
ATOM      9  H   UNL     1       1.631   1.666  -0.250  0.00  0.00    +0.292 HD
ENDBRANCH   7   8
BRANCH   5  10
ATOM     10  O   UNL     1      -2.761   0.637  -2.681  0.00  0.00    -0.507 OA
ATOM     11  H   UNL     1      -3.382   0.007  -2.291  0.00  0.00    +0.292 HD
ENDBRANCH   5  10
BRANCH   3  12
ATOM     12  O   UNL     1       1.110  -1.601  -4.298  0.00  0.00    -0.506 OA
ATOM     13  H   UNL     1       1.111  -2.548  -4.101  0.00  0.00    +0.292 HD
ENDBRANCH   3  12
ENDBRANCH   1   2
BRANCH   1  15
ATOM     14  N   UNL     1       2.873  -0.183   0.307  0.00  0.00    -0.309 N 
ATOM     15  C   UNL     1       3.272   0.010  -0.965  0.00  0.00    +0.239 C 
ATOM     16  O   UNL     1       4.125   0.836  -1.215  0.00  0.00    -0.273 OA
ATOM     17  H   UNL     1       2.191  -0.843   0.507  0.00  0.00    +0.149 HD
BRANCH  14  19
ATOM     18  C   UNL     1       3.208   2.091   1.142  0.00  0.00    +0.031 C 
ATOM     19  C   UNL     1       3.470   0.604   1.389  0.00  0.00    +0.026 C 
ATOM     20  C   UNL     1       4.978   0.352   1.432  0.00  0.00    +0.031 C 
ATOM     21  C   UNL     1       2.845   0.192   2.724  0.00  0.00    +0.031 C 
ENDBRANCH  14  19
ENDBRANCH   1  15
BRANCH   1  22
ATOM     22  N   UNL     1       3.376  -0.535  -3.328  0.00  0.00    -0.279 N 
ATOM     23  C   UNL     1       4.205  -1.466  -3.840  0.00  0.00    +0.249 C 
ATOM     24  O   UNL     1       4.268  -2.568  -3.331  0.00  0.00    -0.270 OA
BRANCH  22  25
ATOM     25  C   UNL     1       3.192   0.743  -4.021  0.00  0.00    +0.077 C 
ATOM     26  C   UNL     1       3.946   1.843  -3.272  0.00  0.00    +0.022 C 
ATOM     27  C   UNL     1       3.754   3.177  -3.996  0.00  0.00    +0.002 C 
ATOM     28  C   UNL     1       2.264   3.522  -4.044  0.00  0.00    +0.000 C 
ATOM     29  C   UNL     1       1.510   2.421  -4.793  0.00  0.00    +0.002 C 
ATOM     30  C   UNL     1       1.702   1.087  -4.069  0.00  0.00    +0.022 C 
ENDBRANCH  22  25
BRANCH  23  31
ATOM     31  C   UNL     1       5.036  -1.147  -5.020  0.00  0.00    +0.055 A 
ATOM     32  C   UNL     1       5.323  -2.130  -5.975  0.00  0.00    +0.016 A 
ATOM     33  C   UNL     1       6.106  -1.780  -7.061  0.00  0.00    +0.020 A 
ATOM     34  C   UNL     1       6.575  -0.483  -7.167  0.00  0.00    +0.111 A 
ATOM     35  N   UNL     1       6.289   0.422  -6.252  0.00  0.00    -0.263 NA
ATOM     36  C   UNL     1       5.544   0.139  -5.203  0.00  0.00    +0.123 A 
ENDBRANCH  23  31
ENDBRANCH   1  22
TORSDOF 9
