REMARK  Name = ZINC15277499
REMARK  6 active torsions:
REMARK  status: ('A' for Active; 'I' for Inactive)
REMARK    1  A    between atoms: C_1  and  C_2
REMARK    2  A    between atoms: C_18  and  S_19
REMARK    3  A    between atoms: S_19  and  C_20
REMARK    4  A    between atoms: C_20  and  C_21
REMARK    5  A    between atoms: N_23  and  N_24
REMARK    6  A    between atoms: C_25  and  C_27
REMARK                            x       y       z     vdW  Elec       q    Type
REMARK                         _______ _______ _______ _____ _____    ______ ____
ROOT
ATOM      1  C   UNL     1       4.946   0.401   2.430  0.00  0.00    +0.044 C 
ATOM      2  C   UNL     1       4.208   0.720   1.156  0.00  0.00    -0.046 A 
ATOM      3  C   UNL     1       4.701   0.305  -0.073  0.00  0.00    +0.023 A 
ATOM      4  C   UNL     1       4.000   0.614  -1.222  0.00  0.00    +0.113 A 
ATOM      5  N   UNL     1       2.872   1.295  -1.163  0.00  0.00    -0.237 NA
ATOM      6  C   UNL     1       2.369   1.708  -0.011  0.00  0.00    +0.142 A 
ATOM      7  C   UNL     1       3.025   1.438   1.185  0.00  0.00    +0.050 A 
ATOM      8  N   UNL     1       1.172   2.427   0.004  0.00  0.00    -0.239 N 
ATOM      9  C   UNL     1       1.199   3.778  -0.065  0.00  0.00    +0.268 A 
ATOM     10  O   UNL     1       2.252   4.385  -0.141  0.00  0.00    -0.267 OA
ATOM     11  C   UNL     1      -0.088   4.486  -0.045  0.00  0.00    +0.065 A 
ATOM     12  C   UNL     1      -0.165   5.876  -0.113  0.00  0.00    +0.015 A 
ATOM     13  C   UNL     1      -1.389   6.485  -0.091  0.00  0.00    +0.001 A 
ATOM     14  C   UNL     1      -2.554   5.734  -0.004  0.00  0.00    +0.002 A 
ATOM     15  C   UNL     1      -2.508   4.370   0.063  0.00  0.00    +0.028 A 
ATOM     16  C   UNL     1      -1.271   3.718   0.044  0.00  0.00    +0.079 A 
ATOM     17  N   UNL     1      -1.180   2.369   0.102  0.00  0.00    -0.223 NA
ATOM     18  C   UNL     1      -0.020   1.760   0.089  0.00  0.00    +0.178 A 
ENDROOT
BRANCH  18  19
ATOM     19  S   UNL     1       0.007  -0.000   0.176  0.00  0.00    -0.078 S 
BRANCH  19  20
ATOM     20  C   UNL     1      -1.769  -0.337   0.269  0.00  0.00    +0.174 C 
BRANCH  20  21
ATOM     21  C   UNL     1      -1.995  -1.825   0.353  0.00  0.00    +0.239 C 
ATOM     22  O   UNL     1      -1.048  -2.583   0.351  0.00  0.00    -0.273 OA
ATOM     23  N   UNL     1      -3.249  -2.313   0.432  0.00  0.00    -0.233 N 
ATOM     24  H   UNL     1      -4.006  -1.706   0.434  0.00  0.00    +0.173 HD
BRANCH  23  25
ATOM     25  N   UNL     1      -3.458  -3.696   0.510  0.00  0.00    -0.230 N 
ATOM     26  C   UNL     1      -4.712  -4.184   0.589  0.00  0.00    +0.267 C 
ATOM     27  O   UNL     1      -5.662  -3.423   0.591  0.00  0.00    -0.268 OA
ATOM     28  H   UNL     1      -2.701  -4.302   0.508  0.00  0.00    +0.173 HD
BRANCH  26  29
ATOM     29  C   UNL     1      -4.931  -5.631   0.671  0.00  0.00    +0.075 A 
ATOM     30  C   UNL     1      -6.125  -6.330   0.763  0.00  0.00    +0.021 A 
ATOM     31  C   UNL     1      -6.044  -7.699   0.823  0.00  0.00    +0.008 A 
ATOM     32  C   UNL     1      -4.823  -8.293   0.801  0.00  0.00    +0.046 A 
ATOM     33  S   UNL     1      -3.731  -6.951   0.686  0.00  0.00    -0.092 S 
ENDBRANCH  26  29
ENDBRANCH  23  25
ENDBRANCH  20  21
ENDBRANCH  19  20
ENDBRANCH  18  19
TORSDOF 5
