REMARK  Name = ZINC54829515
REMARK  4 active torsions:
REMARK  status: ('A' for Active; 'I' for Inactive)
REMARK    1  A    between atoms: C_4  and  O_19
REMARK    2  A    between atoms: C_6  and  N_9
REMARK    3  A    between atoms: N_9  and  C_10
REMARK    4  A    between atoms: C_15  and  C_17
REMARK                            x       y       z     vdW  Elec       q    Type
REMARK                         _______ _______ _______ _____ _____    ______ ____
ROOT
ATOM      1  N   UNL     1       0.738  -1.966  -1.265  0.00  0.00    -0.307 NA
ATOM      2  H   UNL     1       1.545  -2.314  -1.760  0.00  0.00    +0.123 HD
ENDROOT
BRANCH   1   7
ATOM      3  C   UNL     1      -0.019   1.526   0.010  0.00  0.00    +0.002 C 
ATOM      4  C   UNL     1       1.417   2.055  -0.000  0.00  0.00    +0.003 C 
ATOM      5  C   UNL     1       2.133   1.562  -1.259  0.00  0.00    +0.033 C 
ATOM      6  C   UNL     1       2.154   0.032  -1.268  0.00  0.00    +0.131 C 
ATOM      7  C   UNL     1       0.718  -0.497  -1.257  0.00  0.00    +0.082 C 
ATOM      8  C   UNL     1       0.002  -0.004   0.002  0.00  0.00    +0.021 C 
BRANCH   6   9
ATOM      9  O   UNL     1       2.822  -0.429  -2.443  0.00  0.00    -0.390 OA
ATOM     10  H   UNL     1       3.739  -0.131  -2.517  0.00  0.00    +0.210 HD
ENDBRANCH   6   9
ENDBRANCH   1   7
BRANCH   1  11
ATOM     11  C   UNL     1      -0.503  -2.506  -1.835  0.00  0.00    +0.071 C 
ATOM     12  C   UNL     1      -1.573  -2.648  -0.734  0.00  0.00    +0.020 C 
ATOM     13  C   UNL     1      -2.324  -3.953  -1.098  0.00  0.00    +0.003 C 
ATOM     14  C   UNL     1      -1.185  -4.870  -1.609  0.00  0.00    +0.020 C 
ATOM     15  C   UNL     1      -0.256  -3.919  -2.393  0.00  0.00    +0.108 C 
BRANCH  15  16
ATOM     16  C   UNL     1       1.150  -4.304  -2.187  0.00  0.00    +0.067 C 
ATOM     17  N   UNL     1       2.235  -4.600  -2.028  0.00  0.00    -0.196 NA
ENDBRANCH  15  16
ENDBRANCH   1  11
TORSDOF 4
