REMARK  Name = ZINC39611767
REMARK  11 active torsions:
REMARK  status: ('A' for Active; 'I' for Inactive)
REMARK    1  A    between atoms: C_1  and  C_2
REMARK    2  A    between atoms: C_2  and  C_3
REMARK    3  A    between atoms: C_2  and  C_4
REMARK    4  A    between atoms: C_4  and  C_6
REMARK    5  A    between atoms: C_4  and  N_24
REMARK    6  A    between atoms: C_6  and  O_8
REMARK    7  A    between atoms: O_8  and  C_9
REMARK    8  A    between atoms: C_9  and  C_10
REMARK    9  A    between atoms: N_12  and  C_13
REMARK   10  A    between atoms: C_14  and  C_21
REMARK   11  A    between atoms: C_25  and  C_27
REMARK                            x       y       z     vdW  Elec       q    Type
REMARK                         _______ _______ _______ _____ _____    ______ ____
ROOT
ATOM      1  O   UNL     1      -1.637  -0.547  -2.448  0.00  0.00    -0.454 OA
ENDROOT
BRANCH   1   2
ATOM      2  C   UNL     1      -2.125  -0.137  -1.266  0.00  0.00    +0.328 C 
ATOM      3  O   UNL     1      -3.118   0.549  -1.228  0.00  0.00    -0.249 OA
BRANCH   2   4
ATOM      4  C   UNL     1      -1.433  -0.534   0.013  0.00  0.00    +0.185 C 
BRANCH   4   5
ATOM      5  N   UNL     1      -2.155   0.035   1.154  0.00  0.00    -0.298 N 
ATOM      6  C   UNL     1      -2.067  -0.550   2.366  0.00  0.00    +0.246 C 
ATOM      7  O   UNL     1      -1.389  -1.549   2.511  0.00  0.00    -0.270 OA
ATOM      8  H   UNL     1      -2.696   0.831   1.038  0.00  0.00    +0.150 HD
BRANCH   6   9
ATOM      9  C   UNL     1      -2.795   0.023   3.517  0.00  0.00    +0.055 A 
ATOM     10  C   UNL     1      -3.579   1.167   3.352  0.00  0.00    +0.014 A 
ATOM     11  C   UNL     1      -4.256   1.696   4.431  0.00  0.00    +0.001 A 
ATOM     12  C   UNL     1      -4.160   1.097   5.675  0.00  0.00    +0.001 A 
ATOM     13  C   UNL     1      -3.385  -0.035   5.847  0.00  0.00    +0.021 A 
ATOM     14  C   UNL     1      -2.706  -0.580   4.774  0.00  0.00    +0.053 A 
ATOM     15 CL   UNL     1      -1.740  -2.006   4.989  0.00  0.00    -0.083 Cl
ENDBRANCH   6   9
ENDBRANCH   4   5
BRANCH   4  17
ATOM     16  C   UNL     1      -0.019   1.526   0.010  0.00  0.00    +0.009 C 
ATOM     17  C   UNL     1       0.002  -0.004   0.002  0.00  0.00    +0.014 C 
ATOM     18  C   UNL     1       0.742  -0.511   1.242  0.00  0.00    +0.009 C 
ENDBRANCH   4  17
ENDBRANCH   2   4
ENDBRANCH   1   2
BRANCH   1  19
ATOM     19  C   UNL     1      -2.343  -0.134  -3.619  0.00  0.00    +0.328 C 
BRANCH  19  20
ATOM     20  C   UNL     1      -1.654  -0.685  -4.841  0.00  0.00    +0.255 C 
ATOM     21  O   UNL     1      -0.656  -1.364  -4.720  0.00  0.00    -0.272 OA
ATOM     22  N   UNL     1      -2.146  -0.422  -6.068  0.00  0.00    -0.277 N 
ATOM     23  H   UNL     1      -2.943   0.121  -6.165  0.00  0.00    +0.155 HD
BRANCH  22  24
ATOM     24  C   UNL     1      -1.512  -0.929  -7.192  0.00  0.00    +0.084 A 
ATOM     25  C   UNL     1      -1.867  -0.760  -8.518  0.00  0.00    +0.068 A 
ATOM     26  C   UNL     1      -1.025  -1.404  -9.525  0.00  0.00    -0.023 A 
ATOM     27  C   UNL     1       0.010  -2.094  -9.014  0.00  0.00    -0.004 A 
ATOM     28  S   UNL     1      -0.133  -1.882  -7.258  0.00  0.00    -0.077 S 
ATOM     29  C   UNL     1       0.841  -2.739 -10.091  0.00  0.00    +0.043 C 
ATOM     30  C   UNL     1      -0.061  -2.716 -11.345  0.00  0.00    +0.010 C 
ATOM     31  C   UNL     1      -0.984  -1.517 -11.047  0.00  0.00    +0.037 C 
BRANCH  25  32
ATOM     32  C   UNL     1      -3.041   0.032  -8.898  0.00  0.00    +0.244 C 
ATOM     33  O   UNL     1      -2.928   1.226  -9.107  0.00  0.00    -0.270 OA
ATOM     34  N   UNL     1      -4.245  -0.562  -9.016  0.00  0.00    -0.325 N 
ATOM     35  H   UNL     1      -4.335  -1.514  -8.850  0.00  0.00    +0.145 HD
ATOM     36  H   UNL     1      -5.022  -0.038  -9.268  0.00  0.00    +0.145 HD
ENDBRANCH  25  32
ENDBRANCH  22  24
ENDBRANCH  19  20
ENDBRANCH   1  19
TORSDOF 9
