REMARK  Name = ZINC35934598
REMARK  8 active torsions:
REMARK  status: ('A' for Active; 'I' for Inactive)
REMARK    1  A    between atoms: C_1  and  C_2
REMARK    2  A    between atoms: C_2  and  C_3
REMARK    3  A    between atoms: C_2  and  N_4
REMARK    4  A    between atoms: C_5  and  C_7
REMARK    5  A    between atoms: C_7  and  C_8
REMARK    6  A    between atoms: C_8  and  N_9
REMARK    7  A    between atoms: C_15  and  C_22
REMARK    8  A    between atoms: N_20  and  C_21
REMARK                            x       y       z     vdW  Elec       q    Type
REMARK                         _______ _______ _______ _____ _____    ______ ____
ROOT
ATOM      1  N   UNL     1      -4.463  -4.163  -1.081  0.00  0.00    -0.292 N 
ATOM      2  C   UNL     1      -5.100  -4.935  -0.003  0.00  0.00    +0.159 C 
ATOM      3  C   UNL     1      -6.505  -5.201  -0.494  0.00  0.00    +0.042 C 
ATOM      4  C   UNL     1      -6.598  -4.625  -1.710  0.00  0.00    +0.058 C 
ATOM      5  C   UNL     1      -5.380  -4.004  -2.053  0.00  0.00    +0.247 C 
ATOM      6  O   UNL     1      -5.182  -3.404  -3.093  0.00  0.00    -0.270 OA
ATOM      7  C   UNL     1      -7.919  -4.739  -2.445  0.00  0.00    +0.143 C 
ATOM      8  N   UNL     1      -8.998  -5.474  -1.765  0.00  0.00    -0.288 N 
ATOM      9  C   UNL     1      -8.752  -5.995  -0.546  0.00  0.00    +0.307 C 
ATOM     10  O   UNL     1      -9.638  -6.604   0.023  0.00  0.00    -0.252 OA
ATOM     11  N   UNL     1      -7.564  -5.864   0.058  0.00  0.00    -0.260 N 
ATOM     12  C   UNL     1      -7.391  -6.465   1.383  0.00  0.00    +0.139 C 
ATOM     13  H   UNL     1      -9.867  -5.581  -2.184  0.00  0.00    +0.151 HD
ENDROOT
BRANCH   7  14
ATOM     14  C   UNL     1      -8.414  -3.345  -2.729  0.00  0.00    -0.003 A 
ATOM     15  C   UNL     1      -9.301  -2.736  -1.861  0.00  0.00    +0.007 A 
ATOM     16  C   UNL     1      -9.756  -1.457  -2.121  0.00  0.00    +0.002 A 
ATOM     17  C   UNL     1      -9.325  -0.785  -3.249  0.00  0.00    +0.021 A 
ATOM     18  C   UNL     1      -8.437  -1.392  -4.119  0.00  0.00    +0.060 A 
ATOM     19  C   UNL     1      -7.976  -2.671  -3.855  0.00  0.00    +0.064 A 
ATOM     20 CL   UNL     1      -6.856  -3.432  -4.941  0.00  0.00    -0.082 Cl
ATOM     21 CL   UNL     1      -7.894  -0.549  -5.536  0.00  0.00    -0.082 Cl
ENDBRANCH   7  14
BRANCH   1  22
ATOM     22  C   UNL     1      -3.089  -3.656  -1.091  0.00  0.00    +0.117 C 
BRANCH  22  23
ATOM     23  C   UNL     1      -3.057  -2.256  -0.474  0.00  0.00    +0.114 C 
BRANCH  23  25
ATOM     24  N   UNL     1      -1.372  -0.511   0.012  0.00  0.00    -0.313 N 
ATOM     25  C   UNL     1      -1.643  -1.734  -0.485  0.00  0.00    +0.215 C 
ATOM     26  O   UNL     1      -0.749  -2.415  -0.941  0.00  0.00    -0.276 OA
ATOM     27  H   UNL     1      -2.087   0.033   0.377  0.00  0.00    +0.149 HD
BRANCH  24  29
ATOM     28  C   UNL     1      -0.019   1.526   0.010  0.00  0.00    +0.027 C 
ATOM     29  C   UNL     1       0.002  -0.004   0.002  0.00  0.00    +0.067 C 
ATOM     30  C   UNL     1       0.742  -0.511   1.242  0.00  0.00    +0.027 C 
ENDBRANCH  24  29
ENDBRANCH  23  25
ENDBRANCH  22  23
ENDBRANCH   1  22
TORSDOF 5
