REMARK  Name = ZINC28535009
REMARK  7 active torsions:
REMARK  status: ('A' for Active; 'I' for Inactive)
REMARK    1  A    between atoms: C_1  and  C_2
REMARK    2  A    between atoms: C_5  and  C_9
REMARK    3  A    between atoms: C_6  and  C_8
REMARK    4  A    between atoms: C_9  and  C_11
REMARK    5  A    between atoms: C_11  and  N_12
REMARK    6  A    between atoms: N_15  and  N_19
REMARK    7  A    between atoms: N_19  and  C_20
REMARK                            x       y       z     vdW  Elec       q    Type
REMARK                         _______ _______ _______ _____ _____    ______ ____
ROOT
ATOM      1  N   UNL     1       0.281   2.672   1.177  0.00  0.00    -0.230 N 
ATOM      2  C   UNL     1       1.303   3.284   0.543  0.00  0.00    +0.197 A 
ATOM      3  S   UNL     1       1.334   4.911   0.013  0.00  0.00    -0.010 S 
ATOM      4  N   UNL     1       2.294   2.381   0.404  0.00  0.00    -0.206 N 
ATOM      5  C   UNL     1       1.880   1.194   0.960  0.00  0.00    +0.231 A 
ATOM      6  N   UNL     1       0.678   1.352   1.433  0.00  0.00    -0.133 NA
ATOM      7  N   UNL     1       2.622   0.023   1.013  0.00  0.00    -0.326 N 
ATOM      8  H   UNL     1       2.197  -0.877   1.482  0.00  0.00    +0.145 HD
ATOM      9  H   UNL     1       3.635  -0.005   0.585  0.00  0.00    +0.145 HD
ENDROOT
BRANCH   4  10
ATOM     10  N   UNL     1       3.535   2.614  -0.204  0.00  0.00    -0.249 N 
ATOM     11  H   UNL     1       4.370   3.019   0.387  0.00  0.00    +0.173 HD
BRANCH  10  12
ATOM     12  C   UNL     1       3.711   2.332  -1.556  0.00  0.00    +0.050 A 
ATOM     13  C   UNL     1       2.643   1.897  -2.341  0.00  0.00    +0.042 A 
ATOM     14  C   UNL     1       2.858   1.632  -3.677  0.00  0.00    +0.084 A 
ATOM     15  N   UNL     1       4.057   1.777  -4.211  0.00  0.00    -0.367 N 
ATOM     16  C   UNL     1       5.093   2.181  -3.500  0.00  0.00    +0.084 A 
ATOM     17  C   UNL     1       4.961   2.471  -2.159  0.00  0.00    +0.042 A 
ATOM     18  H   UNL     1       4.214   1.558  -5.277  0.00  0.00    +0.165 HD
ENDBRANCH  10  12
ENDBRANCH   4  10
BRANCH   1  19
ATOM     19  C   UNL     1      -1.004   3.276   1.538  0.00  0.00    +0.225 C 
BRANCH  19  20
ATOM     20  C   UNL     1      -1.983   3.086   0.408  0.00  0.00    +0.185 C 
ATOM     21  O   UNL     1      -1.641   2.502  -0.598  0.00  0.00    -0.290 OA
BRANCH  20  26
ATOM     22  C   UNL     1      -7.338   5.126   0.871  0.00  0.00    +0.044 C 
ATOM     23  C   UNL     1      -5.934   4.590   0.750  0.00  0.00    -0.050 A 
ATOM     24  C   UNL     1      -5.076   4.656   1.834  0.00  0.00    +0.004 A 
ATOM     25  C   UNL     1      -3.790   4.169   1.731  0.00  0.00    +0.012 A 
ATOM     26  C   UNL     1      -3.354   3.607   0.527  0.00  0.00    +0.022 A 
ATOM     27  C   UNL     1      -4.225   3.550  -0.566  0.00  0.00    -0.040 A 
ATOM     28  C   UNL     1      -5.510   4.036  -0.445  0.00  0.00    +0.007 A 
ATOM     29  C   UNL     1      -3.763   2.952  -1.869  0.00  0.00    +0.044 C 
ENDBRANCH  20  26
ENDBRANCH  19  20
ENDBRANCH   1  19
TORSDOF 5
