REMARK  Name = ZINC36929417
REMARK  8 active torsions:
REMARK  status: ('A' for Active; 'I' for Inactive)
REMARK    1  A    between atoms: C_1  and  C_2
REMARK    2  A    between atoms: C_2  and  C_3
REMARK    3  A    between atoms: C_2  and  N_4
REMARK    4  A    between atoms: C_5  and  N_9
REMARK    5  A    between atoms: N_9  and  S_10
REMARK    6  A    between atoms: S_10  and  C_13
REMARK    7  A    between atoms: C_16  and  C_18
REMARK    8  A    between atoms: C_18  and  N_19
REMARK                            x       y       z     vdW  Elec       q    Type
REMARK                         _______ _______ _______ _____ _____    ______ ____
ROOT
ATOM      1  S   UNL     1      -1.569  -2.761   3.455  0.00  0.00    +0.080 S 
ATOM      2  O   UNL     1      -2.933  -3.089   3.228  0.00  0.00    -0.149 OA
ATOM      3  O   UNL     1      -0.562  -3.752   3.603  0.00  0.00    -0.149 OA
ENDROOT
BRANCH   1   4
ATOM      4  C   UNL     1      -1.525  -1.774   4.914  0.00  0.00    +0.146 A 
ATOM      5  C   UNL     1      -2.507  -1.021   5.466  0.00  0.00    +0.037 A 
ATOM      6  C   UNL     1      -2.243  -0.323   6.629  0.00  0.00    +0.011 A 
ATOM      7  C   UNL     1      -1.010  -0.412   7.184  0.00  0.00    -0.026 A 
ATOM      8  S   UNL     1      -0.176  -1.515   6.054  0.00  0.00    -0.075 S 
BRANCH   7   9
ATOM      9  C   UNL     1      -0.481   0.245   8.433  0.00  0.00    -0.043 C 
BRANCH   9  10
ATOM     10  N   UNL     1      -0.725  -0.631   9.587  0.00  0.00    +0.381 N 
ATOM     11  H   UNL     1      -1.717  -0.791   9.685  0.00  0.00    -0.090 HD
ATOM     12  H   UNL     1      -0.255  -1.513   9.446  0.00  0.00    -0.090 HD
ATOM     13  H   UNL     1      -0.371  -0.192  10.424  0.00  0.00    -0.090 HD
ENDBRANCH   9  10
ENDBRANCH   7   9
ENDBRANCH   1   4
BRANCH   1  14
ATOM     14  N   UNL     1      -1.100  -1.794   2.195  0.00  0.00    -0.199 N 
ATOM     15  H   UNL     1      -1.728  -1.580   1.488  0.00  0.00    +0.175 HD
BRANCH  14  17
ATOM     16  N   UNL     1       0.711  -0.489   1.189  0.00  0.00    -0.247 N 
ATOM     17  C   UNL     1       0.196  -1.287   2.152  0.00  0.00    +0.136 A 
ATOM     18  C   UNL     1       1.176  -1.504   3.073  0.00  0.00    +0.066 A 
ATOM     19  C   UNL     1       2.317  -0.816   2.652  0.00  0.00    +0.136 A 
ATOM     20  N   UNL     1       2.043  -0.214   1.523  0.00  0.00    -0.178 NA
BRANCH  16  22
ATOM     21  C   UNL     1      -0.019   1.526   0.010  0.00  0.00    +0.032 C 
ATOM     22  C   UNL     1       0.002  -0.004   0.002  0.00  0.00    +0.103 C 
ATOM     23  C   UNL     1       0.718  -0.497  -1.257  0.00  0.00    +0.032 C 
ENDBRANCH  16  22
ENDBRANCH  14  17
ENDBRANCH   1  14
TORSDOF 6
