REMARK  Name = ZINC16782338
REMARK  10 active torsions:
REMARK  status: ('A' for Active; 'I' for Inactive)
REMARK    1  A    between atoms: C_1  and  C_2
REMARK    2  A    between atoms: C_2  and  C_3
REMARK    3  A    between atoms: C_7  and  C_26
REMARK    4  A    between atoms: C_8  and  N_9
REMARK    5  A    between atoms: N_9  and  C_10
REMARK    6  A    between atoms: C_10  and  N_12
REMARK    7  A    between atoms: N_12  and  N_13
REMARK    8  A    between atoms: C_14  and  C_16
REMARK    9  A    between atoms: C_20  and  N_23
REMARK   10  A    between atoms: C_21  and  C_22
REMARK                            x       y       z     vdW  Elec       q    Type
REMARK                         _______ _______ _______ _____ _____    ______ ____
ROOT
ATOM      1  N   UNL     1      -1.065   1.293  -0.433  0.00  0.00    -0.245 N 
ATOM      2  H   UNL     1      -1.017   2.024  -1.069  0.00  0.00    +0.172 HD
ENDROOT
BRANCH   1   3
ATOM      3  N   UNL     1       0.032   1.005   0.389  0.00  0.00    -0.231 N 
ATOM      4  C   UNL     1       1.157   1.741   0.293  0.00  0.00    +0.260 C 
ATOM      5  O   UNL     1       1.218   2.658  -0.503  0.00  0.00    -0.269 OA
ATOM      6  H   UNL     1      -0.016   0.274   1.024  0.00  0.00    +0.173 HD
BRANCH   4   7
ATOM      7  C   UNL     1       2.317   1.433   1.156  0.00  0.00    +0.043 A 
ATOM      8  C   UNL     1       2.208   0.470   2.160  0.00  0.00    +0.013 A 
ATOM      9  C   UNL     1       3.294   0.188   2.962  0.00  0.00    +0.003 A 
ATOM     10  C   UNL     1       4.490   0.858   2.773  0.00  0.00    +0.033 A 
ATOM     11  C   UNL     1       4.606   1.813   1.780  0.00  0.00    +0.130 A 
ATOM     12  C   UNL     1       3.528   2.101   0.967  0.00  0.00    -0.008 A 
ATOM     13  C   UNL     1       3.657   3.138  -0.119  0.00  0.00    +0.047 C 
BRANCH  11  14
ATOM     14  N   UNL     1       5.889   2.524   1.584  0.00  0.00    +0.057 N 
ATOM     15  O   UNL     1       6.875   2.185   2.214  0.00  0.00    -0.126 OA
ATOM     16  O   UNL     1       5.959   3.449   0.794  0.00  0.00    -0.126 OA
ENDBRANCH  11  14
ENDBRANCH   4   7
ENDBRANCH   1   3
BRANCH   1  17
ATOM     17  C   UNL     1      -2.188   0.553  -0.342  0.00  0.00    +0.151 C 
ATOM     18  S   UNL     1      -3.529   0.905  -1.346  0.00  0.00    -0.017 S 
BRANCH  17  19
ATOM     19  N   UNL     1      -2.256  -0.463   0.541  0.00  0.00    -0.295 N 
ATOM     20  H   UNL     1      -1.480  -0.692   1.077  0.00  0.00    +0.154 HD
BRANCH  19  26
ATOM     21  C   UNL     1      -3.436  -2.570   0.551  0.00  0.00    -0.026 A 
ATOM     22  C   UNL     1      -4.611  -3.282   0.693  0.00  0.00    +0.005 A 
ATOM     23  C   UNL     1      -5.793  -2.620   0.968  0.00  0.00    +0.001 A 
ATOM     24  C   UNL     1      -5.804  -1.244   1.101  0.00  0.00    +0.005 A 
ATOM     25  C   UNL     1      -4.633  -0.526   0.965  0.00  0.00    -0.029 A 
ATOM     26  C   UNL     1      -3.444  -1.188   0.684  0.00  0.00    +0.039 A 
ATOM     27  C   UNL     1      -4.644   0.973   1.117  0.00  0.00    +0.045 C 
BRANCH  21  29
ATOM     28  C   UNL     1      -1.398  -3.560   1.557  0.00  0.00    +0.009 C 
ATOM     29  C   UNL     1      -2.148  -3.292   0.251  0.00  0.00    +0.033 C 
ENDBRANCH  21  29
ENDBRANCH  19  26
ENDBRANCH  17  19
ENDBRANCH   1  17
TORSDOF 7
