REMARK  Name = ZINC21503610
REMARK  3 active torsions:
REMARK  status: ('A' for Active; 'I' for Inactive)
REMARK    1  A    between atoms: C_9  and  C_12
REMARK    2  A    between atoms: N_14  and  C_15
REMARK    3  A    between atoms: C_18  and  N_22
REMARK                            x       y       z     vdW  Elec       q    Type
REMARK                         _______ _______ _______ _____ _____    ______ ____
ROOT
ATOM      1  C   UNL     1      -1.213   7.308   0.020  0.00  0.00    +0.261 C 
ATOM      2  O   UNL     1      -0.257   7.742  -0.589  0.00  0.00    -0.271 OA
ATOM      3  N   UNL     1      -2.222   8.132   0.364  0.00  0.00    -0.281 N 
ATOM      4  H   UNL     1      -3.122   7.726   0.851  0.00  0.00    +0.155 HD
ENDROOT
BRANCH   1  13
ATOM      5  C   UNL     1      -0.036   1.071  -0.042  0.00  0.00    +0.004 A 
ATOM      6  C   UNL     1       1.155   1.774  -0.044  0.00  0.00    +0.004 A 
ATOM      7  C   UNL     1       1.145   3.156  -0.028  0.00  0.00    +0.049 A 
ATOM      8  C   UNL     1      -0.060   3.842  -0.010  0.00  0.00    +0.163 A 
ATOM      9  C   UNL     1      -1.257   3.135  -0.005  0.00  0.00    +0.162 A 
ATOM     10  C   UNL     1      -1.240   1.749  -0.028  0.00  0.00    +0.049 A 
ATOM     11  O   UNL     1      -2.451   3.788   0.017  0.00  0.00    -0.484 OA
ATOM     12  C   UNL     1      -2.434   5.173  -0.347  0.00  0.00    +0.283 C 
ATOM     13  C   UNL     1      -1.270   5.849   0.391  0.00  0.00    +0.296 C 
ATOM     14  O   UNL     1      -0.055   5.203  -0.001  0.00  0.00    -0.473 OA
ENDBRANCH   1  13
BRANCH   3  15
ATOM     15  C   UNL     1      -2.127   9.506   0.102  0.00  0.00    +0.052 A 
ATOM     16  C   UNL     1      -1.473   9.951  -1.039  0.00  0.00    +0.026 A 
ATOM     17  C   UNL     1      -1.383  11.304  -1.299  0.00  0.00    +0.024 A 
ATOM     18  C   UNL     1      -1.938  12.221  -0.415  0.00  0.00    +0.026 A 
ATOM     19  C   UNL     1      -2.586  11.776   0.730  0.00  0.00    +0.044 A 
ATOM     20  C   UNL     1      -2.681  10.422   0.988  0.00  0.00    +0.064 A 
ATOM     21 CL   UNL     1      -3.491   9.866   2.419  0.00  0.00    -0.082 Cl
BRANCH  18  22
ATOM     22  N   UNL     1      -1.842  13.592  -0.677  0.00  0.00    -0.358 N 
ATOM     23  H   UNL     1      -2.281  14.317   0.024  0.00  0.00    +0.142 HD
ATOM     24  H   UNL     1      -1.328  13.944  -1.583  0.00  0.00    +0.142 HD
ENDBRANCH  18  22
ENDBRANCH   3  15
TORSDOF 3
