REMARK  Name = ZINC00758794
REMARK  5 active torsions:
REMARK  status: ('A' for Active; 'I' for Inactive)
REMARK    1  A    between atoms: C_1  and  C_2
REMARK    2  A    between atoms: C_3  and  C_17
REMARK    3  A    between atoms: C_4  and  C_10
REMARK    4  A    between atoms: C_17  and  O_19
REMARK    5  A    between atoms: O_19  and  C_20
REMARK                            x       y       z     vdW  Elec       q    Type
REMARK                         _______ _______ _______ _____ _____    ______ ____
ROOT
ATOM      1  C   UNL     1      -1.542   7.748  -3.078  0.00  0.00    +0.061 C 
ATOM      2  C   UNL     1      -1.326   7.257  -1.670  0.00  0.00    +0.019 C 
ATOM      3  C   UNL     1      -0.260   6.475  -1.395  0.00  0.00    +0.078 C 
ATOM      4  C   UNL     1      -0.079   6.003   0.034  0.00  0.00    +0.141 C 
ATOM      5  N   UNL     1      -1.090   6.439   1.012  0.00  0.00    -0.315 N 
ATOM      6  C   UNL     1      -2.102   7.221   0.584  0.00  0.00    +0.135 C 
ATOM      7  S   UNL     1      -3.284   7.735   1.710  0.00  0.00    -0.019 S 
ATOM      8  N   UNL     1      -2.212   7.608  -0.693  0.00  0.00    -0.300 N 
ATOM      9  H   UNL     1      -1.009   6.126   2.063  0.00  0.00    +0.149 HD
ATOM     10  H   UNL     1      -3.075   8.245  -0.936  0.00  0.00    +0.154 HD
ENDROOT
BRANCH   4  11
ATOM     11  C   UNL     1      -0.059   4.497   0.026  0.00  0.00    -0.022 A 
ATOM     12  C   UNL     1       1.148   3.822   0.012  0.00  0.00    +0.007 A 
ATOM     13  C   UNL     1       1.167   2.440   0.004  0.00  0.00    +0.020 A 
ATOM     14  C   UNL     1      -0.021   1.732   0.012  0.00  0.00    +0.041 A 
ATOM     15  C   UNL     1      -1.229   2.407   0.021  0.00  0.00    +0.020 A 
ATOM     16  C   UNL     1      -1.247   3.789   0.034  0.00  0.00    +0.007 A 
ATOM     17 CL   UNL     1       0.002  -0.004   0.002  0.00  0.00    -0.084 Cl
ENDBRANCH   4  11
BRANCH   3  18
ATOM     18  C   UNL     1       0.658   6.110  -2.407  0.00  0.00    +0.338 C 
ATOM     19  O   UNL     1       0.493   6.500  -3.548  0.00  0.00    -0.245 OA
BRANCH  18  20
ATOM     20  O   UNL     1       1.716   5.328  -2.108  0.00  0.00    -0.465 OA
ATOM     21  C   UNL     1       2.603   4.998  -3.179  0.00  0.00    +0.280 C 
ENDBRANCH  18  20
ENDBRANCH   3  18
TORSDOF 3
