REMARK  Name = ZINC67312552
REMARK  8 active torsions:
REMARK  status: ('A' for Active; 'I' for Inactive)
REMARK    1  A    between atoms: C_1  and  C_2
REMARK    2  A    between atoms: C_5  and  N_11
REMARK    3  A    between atoms: C_7  and  C_8
REMARK    4  A    between atoms: N_14  and  C_15
REMARK    5  A    between atoms: N_14  and  C_16
REMARK    6  A    between atoms: C_16  and  C_17
REMARK    7  A    between atoms: C_17  and  O_18
REMARK    8  A    between atoms: O_18  and  C_19
REMARK                            x       y       z     vdW  Elec       q    Type
REMARK                         _______ _______ _______ _____ _____    ______ ____
ROOT
ATOM      1  N   UNL     1       0.144  -4.328   0.193  0.00  0.00    -0.269 N 
ATOM      2  C   UNL     1       0.207  -5.123  -0.894  0.00  0.00    +0.306 C 
ATOM      3  O   UNL     1       0.130  -4.639  -2.007  0.00  0.00    -0.252 OA
ATOM      4  N   UNL     1       0.356  -6.454  -0.747  0.00  0.00    -0.285 N 
ATOM      5  C   UNL     1       0.449  -7.038   0.593  0.00  0.00    +0.133 C 
ATOM      6  H   UNL     1       0.130  -4.720   1.080  0.00  0.00    +0.156 HD
ENDROOT
BRANCH   1  11
ATOM      7  C   UNL     1      -0.020   1.322  -0.399  0.00  0.00    +0.044 C 
ATOM      8  C   UNL     1       0.021  -0.177  -0.245  0.00  0.00    -0.038 A 
ATOM      9  C   UNL     1       0.698  -0.743   0.816  0.00  0.00    +0.006 A 
ATOM     10  C   UNL     1       0.739  -2.117   0.962  0.00  0.00    +0.023 A 
ATOM     11  C   UNL     1       0.099  -2.937   0.041  0.00  0.00    +0.036 A 
ATOM     12  C   UNL     1      -0.584  -2.379  -1.028  0.00  0.00    +0.036 A 
ATOM     13  C   UNL     1      -0.629  -0.992  -1.173  0.00  0.00    +0.041 A 
BRANCH  13  14
ATOM     14  C   UNL     1      -1.360  -0.388  -2.307  0.00  0.00    +0.242 C 
ATOM     15  O   UNL     1      -1.346   0.817  -2.467  0.00  0.00    -0.270 OA
ATOM     16  N   UNL     1      -2.041  -1.174  -3.165  0.00  0.00    -0.325 N 
ATOM     17  H   UNL     1      -2.052  -2.135  -3.038  0.00  0.00    +0.145 HD
ATOM     18  H   UNL     1      -2.521  -0.777  -3.909  0.00  0.00    +0.145 HD
ENDBRANCH  13  14
ENDBRANCH   1  11
BRANCH   4  19
ATOM     19  C   UNL     1       0.425  -7.318  -1.929  0.00  0.00    +0.150 C 
BRANCH  19  20
ATOM     20  C   UNL     1       1.882  -7.462  -2.371  0.00  0.00    +0.248 C 
BRANCH  20  21
ATOM     21  O   UNL     1       2.622  -8.147  -1.358  0.00  0.00    -0.490 OA
BRANCH  21  22
ATOM     22  C   UNL     1       3.943  -8.359  -1.596  0.00  0.00    +0.122 A 
ATOM     23  C   UNL     1       4.517  -7.911  -2.777  0.00  0.00    +0.046 A 
ATOM     24  C   UNL     1       5.861  -8.126  -3.016  0.00  0.00    +0.005 A 
ATOM     25  C   UNL     1       6.634  -8.787  -2.080  0.00  0.00    +0.020 A 
ATOM     26  C   UNL     1       6.064  -9.236  -0.902  0.00  0.00    +0.044 A 
ATOM     27  C   UNL     1       4.721  -9.017  -0.655  0.00  0.00    +0.065 A 
ATOM     28 CL   UNL     1       7.038 -10.066   0.272  0.00  0.00    -0.083 Cl
ENDBRANCH  21  22
ENDBRANCH  20  21
ENDBRANCH  19  20
ENDBRANCH   4  19
TORSDOF 6
