REMARK  Name = ZINC04697809
REMARK  7 active torsions:
REMARK  status: ('A' for Active; 'I' for Inactive)
REMARK    1  A    between atoms: C_1  and  C_2
REMARK    2  A    between atoms: C_2  and  N_3
REMARK    3  A    between atoms: N_3  and  N_4
REMARK    4  A    between atoms: C_5  and  C_7
REMARK    5  A    between atoms: C_16  and  O_17
REMARK    6  A    between atoms: C_18  and  C_19
REMARK    7  A    between atoms: N_21  and  C_22
REMARK                            x       y       z     vdW  Elec       q    Type
REMARK                         _______ _______ _______ _____ _____    ______ ____
ROOT
ATOM      1  N   UNL     1       0.050   3.491  -1.935  0.00  0.00    -0.268 N 
ATOM      2  H   UNL     1      -0.523   3.854  -2.627  0.00  0.00    +0.170 HD
ENDROOT
BRANCH   1   3
ATOM      3  N   UNL     1       1.422   3.776  -1.940  0.00  0.00    -0.233 N 
ATOM      4  C   UNL     1       1.928   4.637  -2.846  0.00  0.00    +0.264 C 
ATOM      5  O   UNL     1       1.211   5.095  -3.715  0.00  0.00    -0.269 OA
ATOM      6  H   UNL     1       2.008   3.355  -1.292  0.00  0.00    +0.173 HD
BRANCH   4   7
ATOM      7  C   UNL     1       3.351   5.022  -2.783  0.00  0.00    +0.080 A 
ATOM      8  C   UNL     1       4.188   4.416  -1.861  0.00  0.00    +0.025 A 
ATOM      9  C   UNL     1       5.539   4.786  -1.807  0.00  0.00    -0.017 A 
ATOM     10  C   UNL     1       6.418   4.190  -0.883  0.00  0.00    +0.008 A 
ATOM     11  C   UNL     1       7.724   4.570  -0.855  0.00  0.00    +0.001 A 
ATOM     12  C   UNL     1       8.208   5.543  -1.728  0.00  0.00    +0.001 A 
ATOM     13  C   UNL     1       7.388   6.141  -2.635  0.00  0.00    +0.008 A 
ATOM     14  C   UNL     1       6.032   5.776  -2.696  0.00  0.00    -0.014 A 
ATOM     15  C   UNL     1       5.162   6.376  -3.622  0.00  0.00    +0.054 A 
ATOM     16  C   UNL     1       3.851   6.002  -3.667  0.00  0.00    +0.130 A 
BRANCH  16  17
ATOM     17  O   UNL     1       3.018   6.582  -4.568  0.00  0.00    -0.506 OA
ATOM     18  H   UNL     1       2.580   7.380  -4.241  0.00  0.00    +0.292 HD
ENDBRANCH  16  17
ENDBRANCH   4   7
ENDBRANCH   1   3
BRANCH   1  20
ATOM     19  C   UNL     1       0.385   2.241   0.193  0.00  0.00    +0.062 C 
ATOM     20  C   UNL     1      -0.479   2.700  -0.954  0.00  0.00    +0.024 C 
ATOM     21  C   UNL     1      -1.775   2.329  -1.012  0.00  0.00    +0.087 C 
BRANCH  21  22
ATOM     22  C   UNL     1      -2.620   2.866  -2.011  0.00  0.00    +0.243 C 
ATOM     23  O   UNL     1      -2.157   3.586  -2.877  0.00  0.00    -0.270 OA
ATOM     24  N   UNL     1      -3.937   2.581  -2.004  0.00  0.00    -0.282 N 
ATOM     25  H   UNL     1      -4.324   2.094  -1.260  0.00  0.00    +0.155 HD
BRANCH  24  26
ATOM     26  C   UNL     1      -4.747   2.988  -3.072  0.00  0.00    +0.037 A 
ATOM     27  C   UNL     1      -4.221   3.060  -4.355  0.00  0.00    +0.027 A 
ATOM     28  C   UNL     1      -5.019   3.462  -5.408  0.00  0.00    +0.051 A 
ATOM     29  C   UNL     1      -6.347   3.796  -5.188  0.00  0.00    +0.162 A 
ATOM     30  C   UNL     1      -6.877   3.723  -3.905  0.00  0.00    +0.164 A 
ATOM     31  C   UNL     1      -6.077   3.315  -2.849  0.00  0.00    +0.072 A 
ATOM     32  O   UNL     1      -8.181   4.039  -3.670  0.00  0.00    -0.485 OA
ATOM     33  C   UNL     1      -8.852   4.794  -4.684  0.00  0.00    +0.270 C 
ATOM     34  C   UNL     1      -8.536   4.160  -6.045  0.00  0.00    +0.270 C 
ATOM     35  O   UNL     1      -7.118   4.195  -6.237  0.00  0.00    -0.485 OA
ENDBRANCH  24  26
ENDBRANCH  21  22
ENDBRANCH   1  20
TORSDOF 6
