REMARK  Name = ZINC65326029
REMARK  11 active torsions:
REMARK  status: ('A' for Active; 'I' for Inactive)
REMARK    1  A    between atoms: C_1  and  C_2
REMARK    2  A    between atoms: C_2  and  O_3
REMARK    3  A    between atoms: O_3  and  C_4
REMARK    4  A    between atoms: C_4  and  C_6
REMARK    5  A    between atoms: C_9  and  N_12
REMARK    6  A    between atoms: C_16  and  N_20
REMARK    7  A    between atoms: N_20  and  C_21
REMARK    8  A    between atoms: C_21  and  C_22
REMARK    9  A    between atoms: C_22  and  C_23
REMARK   10  A    between atoms: C_26  and  O_32
REMARK   11  A    between atoms: O_32  and  C_33
REMARK                            x       y       z     vdW  Elec       q    Type
REMARK                         _______ _______ _______ _____ _____    ______ ____
ROOT
ATOM      1  N   UNL     1       3.369  -3.896  -5.888  0.00  0.00    -0.212 N 
ATOM      2  C   UNL     1       3.822  -3.124  -6.883  0.00  0.00    +0.225 C 
ATOM      3  O   UNL     1       3.736  -1.915  -6.930  0.00  0.00    -0.275 OA
ATOM      4  C   UNL     1       4.460  -3.998  -7.941  0.00  0.00    +0.090 C 
ATOM      5  C   UNL     1       4.294  -5.425  -7.378  0.00  0.00    +0.026 C 
ATOM      6  C   UNL     1       3.586  -5.206  -6.059  0.00  0.00    +0.213 C 
ATOM      7  O   UNL     1       3.263  -6.078  -5.282  0.00  0.00    -0.277 OA
ENDROOT
BRANCH   1  11
ATOM      8  C   UNL     1       1.455  -2.346  -2.524  0.00  0.00    +0.059 A 
ATOM      9  C   UNL     1       2.713  -2.943  -2.402  0.00  0.00    +0.017 A 
ATOM     10  C   UNL     1       3.342  -3.454  -3.515  0.00  0.00    +0.025 A 
ATOM     11  C   UNL     1       2.727  -3.376  -4.760  0.00  0.00    +0.044 A 
ATOM     12  C   UNL     1       1.475  -2.783  -4.886  0.00  0.00    +0.025 A 
ATOM     13  C   UNL     1       0.838  -2.275  -3.776  0.00  0.00    +0.017 A 
BRANCH   8  14
ATOM     14  C   UNL     1       0.778  -1.797  -1.334  0.00  0.00    +0.339 C 
ATOM     15  O   UNL     1      -0.318  -1.283  -1.442  0.00  0.00    -0.245 OA
BRANCH  14  16
ATOM     16  O   UNL     1       1.374  -1.866  -0.128  0.00  0.00    -0.461 OA
BRANCH  16  18
ATOM     17  C   UNL     1       1.490  -1.484   2.256  0.00  0.00    +0.048 C 
ATOM     18  C   UNL     1       0.661  -1.315   0.981  0.00  0.00    +0.229 C 
ENDBRANCH  16  18
ENDBRANCH  14  16
ENDBRANCH   8  14
ENDBRANCH   1  11
BRANCH   5  19
ATOM     19  N   UNL     1       5.606  -6.051  -7.162  0.00  0.00    +0.387 N 
ATOM     20  H   UNL     1       6.136  -6.026  -8.020  0.00  0.00    -0.085 HD
ATOM     21  H   UNL     1       6.104  -5.546  -6.444  0.00  0.00    -0.085 HD
BRANCH  19  22
ATOM     22  C   UNL     1       5.419  -7.445  -6.740  0.00  0.00    -0.077 C 
BRANCH  22  23
ATOM     23  C   UNL     1       6.785  -8.097  -6.515  0.00  0.00    +0.014 C 
BRANCH  23  24
ATOM     24  C   UNL     1       6.593  -9.528  -6.083  0.00  0.00    -0.043 C 
ATOM     25  C   UNL     1       6.609 -10.625  -6.873  0.00  0.00    +0.002 A 
ATOM     26  C   UNL     1       6.801 -10.809  -8.316  0.00  0.00    +0.055 A 
ATOM     27  C   UNL     1       6.764 -12.058  -8.839  0.00  0.00    +0.121 A 
ATOM     28  C   UNL     1       6.546 -13.198  -8.046  0.00  0.00    +0.047 A 
ATOM     29  C   UNL     1       6.359 -13.130  -6.711  0.00  0.00    +0.029 A 
ATOM     30  C   UNL     1       6.380 -11.827  -6.039  0.00  0.00    +0.043 A 
ATOM     31  N   UNL     1       6.228 -11.487  -4.783  0.00  0.00    -0.380 N 
ATOM     32  C   UNL     1       6.351 -10.028  -4.676  0.00  0.00    +0.144 C 
ATOM     33  H   UNL     1       6.066 -12.097  -4.047  0.00  0.00    +0.160 HD
BRANCH  27  34
ATOM     34  O   UNL     1       6.943 -12.214 -10.178  0.00  0.00    -0.495 OA
ATOM     35  C   UNL     1       6.896 -13.548 -10.688  0.00  0.00    +0.277 C 
ENDBRANCH  27  34
ENDBRANCH  23  24
ENDBRANCH  22  23
ENDBRANCH  19  22
ENDBRANCH   5  19
TORSDOF 9
