REMARK  Name = ZINC40834858
REMARK  2 active torsions:
REMARK  status: ('A' for Active; 'I' for Inactive)
REMARK    1  A    between atoms: C_7  and  C_15
REMARK    2  A    between atoms: C_15  and  N_17
REMARK                            x       y       z     vdW  Elec       q    Type
REMARK                         _______ _______ _______ _____ _____    ______ ____
ROOT
ATOM      1  C   UNL     1       0.001   1.367  -0.109  0.00  0.00    +0.001 A 
ATOM      2  C   UNL     1       1.189   2.086  -0.118  0.00  0.00    +0.001 A 
ATOM      3  C   UNL     1       2.397   1.446  -0.100  0.00  0.00    +0.013 A 
ATOM      4  C   UNL     1       2.439   0.051  -0.070  0.00  0.00    +0.045 A 
ATOM      5  C   UNL     1       1.234  -0.686  -0.060  0.00  0.00    -0.000 A 
ATOM      6  C   UNL     1       0.013  -0.010  -0.080  0.00  0.00    +0.009 A 
ATOM      7  C   UNL     1       1.310  -2.149  -0.029  0.00  0.00    +0.051 C 
ATOM      8  C   UNL     1       2.555  -2.782  -0.011  0.00  0.00    +0.112 C 
ATOM      9  N   UNL     1       3.706  -2.055  -0.022  0.00  0.00    -0.252 N 
ATOM     10  C   UNL     1       3.705  -0.684  -0.050  0.00  0.00    +0.253 C 
ATOM     11  O   UNL     1       4.760  -0.077  -0.058  0.00  0.00    -0.270 OA
ATOM     12  C   UNL     1       4.862  -2.971   0.002  0.00  0.00    +0.136 C 
ATOM     13  C   UNL     1       4.241  -4.377   0.028  0.00  0.00    +0.133 C 
ATOM     14  N   UNL     1       2.795  -4.137   0.017  0.00  0.00    -0.371 N 
ATOM     15  H   UNL     1       2.113  -4.826   0.029  0.00  0.00    +0.161 HD
ENDROOT
BRANCH   7  16
ATOM     16  C   UNL     1       0.078  -2.949  -0.017  0.00  0.00    +0.110 C 
ATOM     17  S   UNL     1       0.163  -4.653  -0.158  0.00  0.00    -0.033 S 
BRANCH  16  18
ATOM     18  N   UNL     1      -1.110  -2.346   0.103  0.00  0.00    -0.189 NA
ATOM     19  C   UNL     1      -1.865  -2.566   1.183  0.00  0.00    +0.121 A 
ATOM     20  C   UNL     1      -1.364  -3.334   2.247  0.00  0.00    +0.043 A 
ATOM     21  C   UNL     1      -2.148  -3.549   3.343  0.00  0.00    +0.005 A 
ATOM     22  C   UNL     1      -3.437  -3.000   3.388  0.00  0.00    +0.018 A 
ATOM     23  C   UNL     1      -3.899  -2.263   2.351  0.00  0.00    +0.084 A 
ATOM     24  N   UNL     1      -3.123  -2.040   1.259  0.00  0.00    -0.348 N 
ATOM     25  H   UNL     1      -3.467  -1.506   0.526  0.00  0.00    +0.167 HD
ENDBRANCH  16  18
ENDBRANCH   7  16
TORSDOF 2
