REMARK  Name = ZINC27345671
REMARK  8 active torsions:
REMARK  status: ('A' for Active; 'I' for Inactive)
REMARK    1  A    between atoms: C_5  and  C_7
REMARK    2  A    between atoms: C_7  and  C_9
REMARK    3  A    between atoms: C_7  and  N_25
REMARK    4  A    between atoms: C_9  and  N_10
REMARK    5  A    between atoms: C_11  and  C_13
REMARK    6  A    between atoms: C_13  and  C_14
REMARK    7  A    between atoms: C_14  and  N_15
REMARK    8  A    between atoms: N_18  and  C_19
REMARK                            x       y       z     vdW  Elec       q    Type
REMARK                         _______ _______ _______ _____ _____    ______ ____
ROOT
ATOM      1  N   UNL     1      -1.184   4.067   0.094  0.00  0.00    -0.316 N 
ATOM      2  C   UNL     1      -1.298   5.408   0.026  0.00  0.00    +0.214 C 
ATOM      3  O   UNL     1      -0.902   6.098   0.941  0.00  0.00    -0.276 OA
ATOM      4  H   UNL     1      -1.543   3.442  -0.736  0.00  0.00    +0.149 HD
ENDROOT
BRANCH   1   5
ATOM      5  C   UNL     1      -0.583   3.442   1.275  0.00  0.00    +0.093 C 
BRANCH   5   6
ATOM      6  C   UNL     1      -0.419   1.941   1.030  0.00  0.00    -0.019 C 
BRANCH   6  11
ATOM      7  C   UNL     1       1.902   0.518   3.646  0.00  0.00    +0.000 A 
ATOM      8  C   UNL     1       1.004   0.063   4.594  0.00  0.00    +0.001 A 
ATOM      9  C   UNL     1      -0.354   0.215   4.389  0.00  0.00    +0.020 A 
ATOM     10  C   UNL     1      -0.815   0.828   3.238  0.00  0.00    +0.043 A 
ATOM     11  C   UNL     1       0.083   1.279   2.287  0.00  0.00    -0.041 A 
ATOM     12  C   UNL     1       1.441   1.126   2.493  0.00  0.00    +0.003 A 
ATOM     13 CL   UNL     1      -2.521   1.026   2.983  0.00  0.00    -0.083 Cl
ENDBRANCH   6  11
BRANCH   6  14
ATOM     14  N   UNL     1       0.546   1.725  -0.056  0.00  0.00    +0.385 N 
ATOM     15  C   UNL     1       0.868   0.282  -0.203  0.00  0.00    -0.078 C 
ATOM     16  C   UNL     1       1.428   0.189  -1.644  0.00  0.00    -0.020 C 
ATOM     17  C   UNL     1       0.545   1.189  -2.425  0.00  0.00    -0.020 C 
ATOM     18  C   UNL     1      -0.017   2.147  -1.357  0.00  0.00    -0.078 C 
ATOM     19  H   UNL     1       1.434   2.317   0.210  0.00  0.00    -0.081 HD
ENDBRANCH   6  14
ENDBRANCH   5   6
ENDBRANCH   1   5
BRANCH   2  20
ATOM     20  C   UNL     1      -1.917   6.051  -1.189  0.00  0.00    +0.114 C 
BRANCH  20  21
ATOM     21  C   UNL     1      -1.925   7.571  -1.013  0.00  0.00    +0.115 C 
BRANCH  21  22
ATOM     22  N   UNL     1      -2.527   8.195  -2.194  0.00  0.00    -0.299 N 
ATOM     23  C   UNL     1      -2.640   9.537  -2.263  0.00  0.00    +0.300 C 
ATOM     24  O   UNL     1      -2.244  10.228  -1.345  0.00  0.00    -0.253 OA
ATOM     25  N   UNL     1      -3.194  10.111  -3.349  0.00  0.00    -0.297 N 
ATOM     26  H   UNL     1      -2.885   7.570  -3.025  0.00  0.00    +0.150 HD
ATOM     27  H   UNL     1      -3.553   9.486  -4.179  0.00  0.00    +0.151 HD
BRANCH  25  28
ATOM     28  C   UNL     1      -3.317  11.569  -3.424  0.00  0.00    +0.074 C 
ATOM     29  C   UNL     1      -4.602  12.009  -2.718  0.00  0.00    +0.022 C 
ATOM     30  C   UNL     1      -4.731  13.531  -2.796  0.00  0.00    +0.002 C 
ATOM     31  C   UNL     1      -4.781  13.965  -4.262  0.00  0.00    +0.000 C 
ATOM     32  C   UNL     1      -3.497  13.525  -4.968  0.00  0.00    +0.002 C 
ATOM     33  C   UNL     1      -3.367  12.003  -4.890  0.00  0.00    +0.022 C 
ENDBRANCH  25  28
ENDBRANCH  21  22
ENDBRANCH  20  21
ENDBRANCH   2  20
TORSDOF 8
