REMARK  Name = ZINC39214564
REMARK  4 active torsions:
REMARK  status: ('A' for Active; 'I' for Inactive)
REMARK    1  A    between atoms: C_6  and  C_21
REMARK    2  A    between atoms: C_7  and  N_9
REMARK    3  A    between atoms: C_10  and  C_12
REMARK    4  A    between atoms: C_12  and  C_13
REMARK                            x       y       z     vdW  Elec       q    Type
REMARK                         _______ _______ _______ _____ _____    ______ ____
ROOT
ATOM      1  C   UNL     1      -0.019   1.526   0.010  0.00  0.00    +0.005 C 
ATOM      2  C   UNL     1       1.414   2.067  -0.000  0.00  0.00    +0.005 C 
ATOM      3  C   UNL     1       2.067   1.772   1.358  0.00  0.00    +0.043 C 
ATOM      4  C   UNL     1       1.810   0.337   1.702  0.00  0.00    -0.004 A 
ATOM      5  C   UNL     1       0.907  -0.486   1.127  0.00  0.00    -0.023 A 
ATOM      6  C   UNL     1       0.892  -1.829   1.677  0.00  0.00    +0.068 A 
ATOM      7  C   UNL     1       1.783  -2.104   2.703  0.00  0.00    +0.084 A 
ATOM      8  S   UNL     1       2.603  -0.656   2.932  0.00  0.00    -0.077 S 
ATOM      9  C   UNL     1       0.002  -0.004   0.002  0.00  0.00    +0.037 C 
ENDROOT
BRANCH   6  10
ATOM     10  C   UNL     1      -0.027  -2.853   1.169  0.00  0.00    +0.244 C 
ATOM     11  O   UNL     1       0.315  -3.576   0.252  0.00  0.00    -0.270 OA
ATOM     12  N   UNL     1      -1.249  -2.994   1.719  0.00  0.00    -0.325 N 
ATOM     13  H   UNL     1      -1.521  -2.418   2.451  0.00  0.00    +0.145 HD
ATOM     14  H   UNL     1      -1.857  -3.671   1.383  0.00  0.00    +0.145 HD
ENDBRANCH   6  10
BRANCH   7  15
ATOM     15  N   UNL     1       1.957  -3.299   3.385  0.00  0.00    -0.279 N 
ATOM     16  C   UNL     1       2.878  -3.388   4.364  0.00  0.00    +0.226 C 
ATOM     17  O   UNL     1       3.555  -2.423   4.650  0.00  0.00    -0.275 OA
ATOM     18  H   UNL     1       1.415  -4.071   3.156  0.00  0.00    +0.155 HD
BRANCH  16  19
ATOM     19  C   UNL     1       3.067  -4.687   5.104  0.00  0.00    +0.192 C 
BRANCH  19  20
ATOM     20  C   UNL     1       4.149  -4.522   6.141  0.00  0.00    +0.225 C 
ATOM     21  O   UNL     1       4.711  -3.454   6.266  0.00  0.00    -0.275 OA
ATOM     22  N   UNL     1       4.492  -5.560   6.928  0.00  0.00    -0.297 N 
ATOM     23  C   UNL     1       3.828  -6.867   6.791  0.00  0.00    +0.136 C 
ATOM     24  C   UNL     1       4.909  -7.948   6.677  0.00  0.00    +0.179 C 
ATOM     25  O   UNL     1       5.827  -7.813   7.765  0.00  0.00    -0.377 OA
ATOM     26  C   UNL     1       6.538  -6.573   7.780  0.00  0.00    +0.179 C 
ATOM     27  C   UNL     1       5.545  -5.423   7.947  0.00  0.00    +0.136 C 
ENDBRANCH  19  20
ENDBRANCH  16  19
ENDBRANCH   7  15
TORSDOF 4
