REMARK  Name = ZINC13724829
REMARK  6 active torsions:
REMARK  status: ('A' for Active; 'I' for Inactive)
REMARK    1  A    between atoms: C_3  and  C_8
REMARK    2  A    between atoms: C_5  and  O_7
REMARK    3  A    between atoms: C_15  and  C_17
REMARK    4  A    between atoms: C_17  and  O_18
REMARK    5  A    between atoms: C_20  and  N_24
REMARK    6  A    between atoms: C_21  and  C_22
REMARK                            x       y       z     vdW  Elec       q    Type
REMARK                         _______ _______ _______ _____ _____    ______ ____
ROOT
ATOM      1  C   UNL     1      -0.076   5.351   0.032  0.00  0.00    +0.134 C 
ATOM      2  C   UNL     1      -0.788   5.845  -1.203  0.00  0.00    +0.164 A 
ATOM      3  C   UNL     1      -2.058   6.292  -1.124  0.00  0.00    +0.215 A 
ATOM      4  C   UNL     1      -2.706   6.752  -2.306  0.00  0.00    +0.228 A 
ATOM      5  O   UNL     1      -3.856   7.164  -2.276  0.00  0.00    -0.284 OA
ATOM      6  C   UNL     1      -1.973   6.715  -3.519  0.00  0.00    +0.098 A 
ATOM      7  C   UNL     1      -0.709   6.251  -3.494  0.00  0.00    +0.134 A 
ATOM      8  O   UNL     1      -0.131   5.827  -2.373  0.00  0.00    -0.457 OA
ATOM      9  O   UNL     1      -2.733   6.317   0.051  0.00  0.00    -0.434 OA
ATOM     10  C   UNL     1      -2.058   6.282   1.213  0.00  0.00    +0.199 C 
ATOM     11  C   UNL     1      -0.781   5.829   1.269  0.00  0.00    +0.101 C 
ENDROOT
BRANCH   1  14
ATOM     12  C   UNL     1      -1.218   1.751   0.017  0.00  0.00    +0.004 A 
ATOM     13  C   UNL     1      -1.237   3.133   0.031  0.00  0.00    +0.005 A 
ATOM     14  C   UNL     1      -0.051   3.844   0.023  0.00  0.00    -0.028 A 
ATOM     15  C   UNL     1       1.157   3.173   0.008  0.00  0.00    +0.050 A 
ATOM     16  C   UNL     1       1.179   1.786   0.000  0.00  0.00    +0.117 A 
ATOM     17  C   UNL     1      -0.013   1.076   0.008  0.00  0.00    +0.045 A 
BRANCH  16  18
ATOM     18  O   UNL     1       2.366   1.125  -0.014  0.00  0.00    -0.507 OA
ATOM     19  H   UNL     1       2.701   0.938  -0.902  0.00  0.00    +0.292 HD
ENDBRANCH  16  18
ENDBRANCH   1  14
BRANCH  10  20
ATOM     20  N   UNL     1      -2.672   6.711   2.363  0.00  0.00    -0.328 N 
ATOM     21  H   UNL     1      -2.193   6.690   3.206  0.00  0.00    +0.145 HD
ATOM     22  H   UNL     1      -3.586   7.037   2.333  0.00  0.00    +0.145 HD
ENDBRANCH  10  20
BRANCH  11  23
ATOM     23  C   UNL     1      -0.094   5.808   2.525  0.00  0.00    +0.101 C 
ATOM     24  N   UNL     1       0.450   5.790   3.522  0.00  0.00    -0.191 NA
ENDBRANCH  11  23
BRANCH   7  25
ATOM     25  C   UNL     1       0.077   6.208  -4.780  0.00  0.00    +0.230 C 
BRANCH  25  26
ATOM     26  O   UNL     1       0.779   7.442  -4.950  0.00  0.00    -0.387 OA
ATOM     27  H   UNL     1       1.307   7.485  -5.758  0.00  0.00    +0.210 HD
ENDBRANCH  25  26
ENDBRANCH   7  25
TORSDOF 6
