REMARK  Name = ZINC15007923
REMARK  7 active torsions:
REMARK  status: ('A' for Active; 'I' for Inactive)
REMARK    1  A    between atoms: C_1  and  O_2
REMARK    2  A    between atoms: O_2  and  C_3
REMARK    3  A    between atoms: C_3  and  C_5
REMARK    4  A    between atoms: C_6  and  N_20
REMARK    5  A    between atoms: C_10  and  C_14
REMARK    6  A    between atoms: C_14  and  N_49
REMARK    7  A    between atoms: C_21  and  C_23
REMARK                            x       y       z     vdW  Elec       q    Type
REMARK                         _______ _______ _______ _____ _____    ______ ____
ROOT
ATOM      1  C   UNL     1      -3.403  -2.465   0.150  0.00  0.00    +0.120 A 
ATOM      2  C   UNL     1      -2.156  -3.007  -0.076  0.00  0.00    +0.064 A 
ATOM      3  C   UNL     1      -2.067  -4.421  -0.405  0.00  0.00    +0.030 A 
ATOM      4  C   UNL     1      -0.911  -5.196  -0.672  0.00  0.00    +0.014 A 
ATOM      5  C   UNL     1      -1.058  -6.531  -0.965  0.00  0.00    +0.022 A 
ATOM      6  C   UNL     1      -2.319  -7.108  -0.999  0.00  0.00    +0.026 A 
ATOM      7  N   UNL     1      -3.392  -6.384  -0.750  0.00  0.00    -0.246 NA
ATOM      8  C   UNL     1      -3.304  -5.102  -0.465  0.00  0.00    +0.111 A 
ATOM      9  S   UNL     1      -4.502  -3.848  -0.086  0.00  0.00    -0.060 S 
ENDROOT
BRANCH   2  10
ATOM     10  N   UNL     1      -1.012  -2.223   0.015  0.00  0.00    -0.277 N 
ATOM     11  C   UNL     1      -0.072  -2.290  -0.948  0.00  0.00    +0.284 C 
ATOM     12  O   UNL     1      -0.175  -3.107  -1.844  0.00  0.00    -0.266 OA
ATOM     13  H   UNL     1      -0.890  -1.628   0.771  0.00  0.00    +0.155 HD
BRANCH  11  14
ATOM     14  C   UNL     1       1.076  -1.378  -0.917  0.00  0.00    +0.189 A 
ATOM     15  C   UNL     1       2.095  -1.339  -1.825  0.00  0.00    +0.054 A 
ATOM     16  C   UNL     1       2.968  -0.322  -1.409  0.00  0.00    +0.042 A 
ATOM     17  C   UNL     1       2.450   0.209  -0.279  0.00  0.00    +0.196 A 
ATOM     18  O   UNL     1       1.310  -0.430   0.014  0.00  0.00    -0.458 OA
ENDBRANCH  11  14
ENDBRANCH   2  10
BRANCH   1  19
ATOM     19  C   UNL     1      -3.732  -1.129   0.487  0.00  0.00    +0.348 C 
ATOM     20  O   UNL     1      -2.864  -0.276   0.513  0.00  0.00    -0.244 OA
BRANCH  19  22
ATOM     21  C   UNL     1      -5.269   0.565   1.108  0.00  0.00    +0.280 C 
ATOM     22  O   UNL     1      -5.009  -0.801   0.777  0.00  0.00    -0.464 OA
ENDBRANCH  19  22
ENDBRANCH   1  19
BRANCH   6  23
ATOM     23  C   UNL     1      -2.463  -8.573  -1.321  0.00  0.00    -0.022 C 
BRANCH  23  29
ATOM     24  C   UNL     1      -1.254  -9.267   0.658  0.00  0.00    -0.078 C 
ATOM     25  C   UNL     1      -1.402  -9.958   2.015  0.00  0.00    -0.019 C 
ATOM     26  C   UNL     1      -1.797 -11.421   1.797  0.00  0.00    -0.004 C 
ATOM     27  C   UNL     1      -3.098 -11.476   0.992  0.00  0.00    -0.019 C 
ATOM     28  C   UNL     1      -2.901 -10.741  -0.336  0.00  0.00    -0.078 C 
ATOM     29  N   UNL     1      -2.547  -9.333  -0.057  0.00  0.00    +0.383 N 
ATOM     30  H   UNL     1      -3.276  -8.917   0.534  0.00  0.00    -0.081 HD
ENDBRANCH  23  29
ENDBRANCH   6  23
TORSDOF 6
