REMARK  Name = ZINC19096728
REMARK  7 active torsions:
REMARK  status: ('A' for Active; 'I' for Inactive)
REMARK    1  A    between atoms: C_4  and  S_21
REMARK    2  A    between atoms: C_5  and  N_7
REMARK    3  A    between atoms: N_7  and  C_8
REMARK    4  A    between atoms: C_8  and  C_9
REMARK    5  A    between atoms: N_11  and  C_12
REMARK    6  A    between atoms: S_21  and  C_22
REMARK    7  A    between atoms: C_22  and  C_23
REMARK                            x       y       z     vdW  Elec       q    Type
REMARK                         _______ _______ _______ _____ _____    ______ ____
ROOT
ATOM      1  N   UNL     1       1.234  -2.081  -0.009  0.00  0.00    -0.335 N 
ATOM      2  H   UNL     1       2.081  -2.553  -0.026  0.00  0.00    +0.147 HD
ENDROOT
BRANCH   1   7
ATOM      3  C   UNL     1      -0.015   1.378   0.048  0.00  0.00    +0.002 A 
ATOM      4  C   UNL     1       1.170   2.090   0.041  0.00  0.00    +0.001 A 
ATOM      5  C   UNL     1       2.381   1.423   0.017  0.00  0.00    +0.016 A 
ATOM      6  C   UNL     1       2.409   0.036   0.000  0.00  0.00    +0.029 A 
ATOM      7  C   UNL     1       1.213  -0.681   0.008  0.00  0.00    +0.041 A 
ATOM      8  C   UNL     1       0.003  -0.004   0.032  0.00  0.00    +0.024 A 
BRANCH   6   9
ATOM      9  S   UNL     1       3.951  -0.816  -0.031  0.00  0.00    -0.114 S 
BRANCH   9  10
ATOM     10  C   UNL     1       5.187   0.512  -0.033  0.00  0.00    +0.169 C 
BRANCH  10  11
ATOM     11  C   UNL     1       6.569  -0.088  -0.059  0.00  0.00    +0.221 C 
ATOM     12  O   UNL     1       6.707  -1.292  -0.074  0.00  0.00    -0.275 OA
ATOM     13  N   UNL     1       7.652   0.715  -0.064  0.00  0.00    -0.329 N 
ATOM     14  H   UNL     1       7.541   1.678  -0.052  0.00  0.00    +0.145 HD
ATOM     15  H   UNL     1       8.541   0.329  -0.081  0.00  0.00    +0.145 HD
ENDBRANCH  10  11
ENDBRANCH   9  10
ENDBRANCH   6   9
ENDBRANCH   1   7
BRANCH   1  16
ATOM     16  C   UNL     1      -0.024  -2.833  -0.001  0.00  0.00    +0.198 C 
BRANCH  16  17
ATOM     17  C   UNL     1       0.274  -4.310  -0.022  0.00  0.00    +0.234 C 
ATOM     18  O   UNL     1       1.423  -4.697  -0.042  0.00  0.00    -0.274 OA
ATOM     19  N   UNL     1      -0.737  -5.201  -0.019  0.00  0.00    -0.282 N 
ATOM     20  H   UNL     1      -1.654  -4.894   0.064  0.00  0.00    +0.155 HD
BRANCH  19  21
ATOM     21  C   UNL     1      -0.465  -6.566  -0.135  0.00  0.00    +0.062 A 
ATOM     22  C   UNL     1       0.657  -7.087   0.431  0.00  0.00    +0.025 A 
ATOM     23  C   UNL     1       0.957  -8.444   0.333  0.00  0.00    +0.004 A 
ATOM     24  C   UNL     1       0.147  -9.303  -0.328  0.00  0.00    +0.031 A 
ATOM     25  C   UNL     1      -1.045  -8.834  -0.946  0.00  0.00    +0.102 A 
ATOM     26  C   UNL     1      -1.368  -7.416  -0.841  0.00  0.00    +0.121 A 
ATOM     27  N   UNL     1      -2.508  -7.091  -1.450  0.00  0.00    -0.189 NA
ATOM     28  S   UNL     1      -3.078  -8.464  -2.066  0.00  0.00    +0.117 S 
ATOM     29  N   UNL     1      -1.953  -9.529  -1.632  0.00  0.00    -0.191 NA
ENDBRANCH  19  21
ENDBRANCH  16  17
ENDBRANCH   1  16
TORSDOF 7
