REMARK  Name = ZINC32796463
REMARK  14 active torsions:
REMARK  status: ('A' for Active; 'I' for Inactive)
REMARK    1  A    between atoms: C_1  and  C_2
REMARK    2  A    between atoms: C_2  and  O_3
REMARK    3  A    between atoms: O_3  and  C_4
REMARK    4  A    between atoms: C_7  and  C_12
REMARK    5  A    between atoms: C_9  and  O_10
REMARK    6  A    between atoms: O_10  and  C_11
REMARK    7  A    between atoms: N_16  and  C_20
REMARK    8  A    between atoms: C_20  and  C_21
REMARK    9  A    between atoms: C_21  and  N_22
REMARK   10  A    between atoms: C_23  and  C_25
REMARK   11  A    between atoms: C_25  and  C_26
REMARK   12  A    between atoms: C_26  and  C_28
REMARK   13  A    between atoms: C_26  and  N_35
REMARK   14  A    between atoms: C_33  and  C_34
REMARK                            x       y       z     vdW  Elec       q    Type
REMARK                         _______ _______ _______ _____ _____    ______ ____
ROOT
ATOM      1  C   UNL     1       1.494   9.225   1.548  0.00  0.00    +0.123 C 
ENDROOT
BRANCH   1   2
ATOM      2  N   UNL     1       1.594   7.879   2.118  0.00  0.00    -0.314 N 
ATOM      3  C   UNL     1       1.599   6.802   1.307  0.00  0.00    +0.215 C 
ATOM      4  O   UNL     1       1.522   6.948   0.105  0.00  0.00    -0.276 OA
ATOM      5  H   UNL     1       1.664   7.747   3.208  0.00  0.00    +0.149 HD
BRANCH   3   6
ATOM      6  C   UNL     1       1.702   5.418   1.893  0.00  0.00    +0.123 C 
BRANCH   6   7
ATOM      7  C   UNL     1       1.687   4.384   0.765  0.00  0.00    +0.114 C 
BRANCH   7   8
ATOM      8  C   UNL     1       1.912   3.009   1.341  0.00  0.00    -0.024 A 
ATOM      9  C   UNL     1       1.776   2.798   2.701  0.00  0.00    +0.006 A 
ATOM     10  C   UNL     1       1.983   1.538   3.228  0.00  0.00    +0.000 A 
ATOM     11  C   UNL     1       2.325   0.488   2.397  0.00  0.00    +0.000 A 
ATOM     12  C   UNL     1       2.462   0.699   1.038  0.00  0.00    +0.004 A 
ATOM     13  C   UNL     1       2.254   1.960   0.510  0.00  0.00    -0.045 A 
ATOM     14  C   UNL     1       2.403   2.190  -0.972  0.00  0.00    +0.044 C 
ENDBRANCH   7   8
BRANCH   7  15
ATOM     15  N   UNL     1       0.390   4.422   0.085  0.00  0.00    -0.292 N 
ATOM     16  C   UNL     1      -0.731   4.079   0.751  0.00  0.00    +0.298 C 
ATOM     17  O   UNL     1      -0.678   3.824   1.939  0.00  0.00    -0.253 OA
ATOM     18  N   UNL     1      -1.910   4.019   0.101  0.00  0.00    -0.313 N 
ATOM     19  H   UNL     1       0.330   4.730  -0.969  0.00  0.00    +0.151 HD
ATOM     20  H   UNL     1      -2.824   3.739   0.645  0.00  0.00    +0.146 HD
ATOM     21  H   UNL     1      -1.957   4.250  -0.973  0.00  0.00    +0.146 HD
ENDBRANCH   7  15
ENDBRANCH   6   7
ENDBRANCH   3   6
ENDBRANCH   1   2
BRANCH   1  22
ATOM     22  C   UNL     1       1.509  10.258   2.675  0.00  0.00    +0.136 C 
BRANCH  22  27
ATOM     23  C   UNL     1      -0.882  14.288   1.047  0.00  0.00    +0.028 C 
ATOM     24  C   UNL     1       0.182  13.500   1.343  0.00  0.00    +0.080 C 
ATOM     25  C   UNL     1       0.215  12.141   1.921  0.00  0.00    +0.260 C 
ATOM     26  O   UNL     1      -0.805  11.546   2.213  0.00  0.00    -0.269 OA
ATOM     27  N   UNL     1       1.409  11.604   2.105  0.00  0.00    -0.227 N 
ATOM     28  C   UNL     1       2.538  12.270   1.786  0.00  0.00    +0.286 C 
ATOM     29  O   UNL     1       3.691  11.902   1.905  0.00  0.00    -0.262 OA
ATOM     30  S   UNL     1       1.929  13.820   1.141  0.00  0.00    -0.026 S 
BRANCH  23  34
ATOM     31  C   UNL     1      -0.277  18.313  -0.156  0.00  0.00    +0.162 A 
ATOM     32  C   UNL     1      -1.501  17.697  -0.383  0.00  0.00    +0.050 A 
ATOM     33  C   UNL     1      -1.702  16.391   0.006  0.00  0.00    +0.012 A 
ATOM     34  C   UNL     1      -0.670  15.681   0.631  0.00  0.00    -0.020 A 
ATOM     35  C   UNL     1       0.562  16.304   0.864  0.00  0.00    +0.057 A 
ATOM     36  C   UNL     1       0.756  17.612   0.467  0.00  0.00    +0.162 A 
BRANCH  36  37
ATOM     37  O   UNL     1       1.952  18.219   0.687  0.00  0.00    -0.491 OA
ATOM     38  C   UNL     1       2.966  17.442   1.329  0.00  0.00    +0.277 C 
ENDBRANCH  36  37
BRANCH  31  39
ATOM     39  O   UNL     1      -0.085  19.601  -0.541  0.00  0.00    -0.489 OA
BRANCH  39  41
ATOM     40  C   UNL     1      -0.783  21.692  -1.532  0.00  0.00    +0.048 C 
ATOM     41  C   UNL     1      -1.185  20.260  -1.172  0.00  0.00    +0.226 C 
ENDBRANCH  39  41
ENDBRANCH  31  39
ENDBRANCH  23  34
ENDBRANCH  22  27
ENDBRANCH   1  22
TORSDOF 11
