REMARK  Name = ZINC63562339
REMARK  7 active torsions:
REMARK  status: ('A' for Active; 'I' for Inactive)
REMARK    1  A    between atoms: C_1  and  C_2
REMARK    2  A    between atoms: C_7  and  S_12
REMARK    3  A    between atoms: S_12  and  C_13
REMARK    4  A    between atoms: C_13  and  C_14
REMARK    5  A    between atoms: N_16  and  C_17
REMARK    6  A    between atoms: C_20  and  O_26
REMARK    7  A    between atoms: C_21  and  C_23
REMARK                            x       y       z     vdW  Elec       q    Type
REMARK                         _______ _______ _______ _____ _____    ______ ____
ROOT
ATOM      1  C   UNL     1      -4.091  -4.911   1.843  0.00  0.00    +0.227 C 
ATOM      2  O   UNL     1      -4.084  -5.983   2.410  0.00  0.00    -0.275 OA
ATOM      3  N   UNL     1      -5.261  -4.324   1.526  0.00  0.00    -0.285 N 
ATOM      4  H   UNL     1      -5.269  -3.437   1.133  0.00  0.00    +0.155 HD
ENDROOT
BRANCH   3   5
ATOM      5  C   UNL     1      -6.469  -4.994   1.764  0.00  0.00    +0.034 A 
ATOM      6  C   UNL     1      -6.600  -5.810   2.884  0.00  0.00    +0.027 A 
ATOM      7  C   UNL     1      -7.784  -6.474   3.128  0.00  0.00    +0.048 A 
ATOM      8  C   UNL     1      -8.855  -6.333   2.257  0.00  0.00    +0.131 A 
ATOM      9  C   UNL     1      -8.731  -5.512   1.126  0.00  0.00    +0.106 A 
ATOM     10  C   UNL     1      -7.529  -4.838   0.889  0.00  0.00    +0.042 A 
BRANCH   9  11
ATOM     11  C   UNL     1      -9.862  -5.357   0.198  0.00  0.00    +0.390 C 
ATOM     12  O   UNL     1      -9.750  -4.640  -0.788  0.00  0.00    -0.240 OA
ATOM     13  O   UNL     1     -10.914  -5.944   0.411  0.00  0.00    -0.240 OA
ENDBRANCH   9  11
BRANCH   8  14
ATOM     14  O   UNL     1     -10.019  -6.987   2.498  0.00  0.00    -0.506 OA
ATOM     15  H   UNL     1     -10.647  -6.487   3.038  0.00  0.00    +0.292 HD
ENDBRANCH   8  14
ENDBRANCH   3   5
BRANCH   1  16
ATOM     16  C   UNL     1      -2.790  -4.236   1.491  0.00  0.00    +0.169 C 
BRANCH  16  17
ATOM     17  S   UNL     1      -1.404  -5.269   2.045  0.00  0.00    -0.106 S 
BRANCH  17  24
ATOM     18  C   UNL     1      -0.023   1.520   0.062  0.00  0.00    +0.044 C 
ATOM     19  C   UNL     1      -0.000   0.013   0.044  0.00  0.00    -0.048 A 
ATOM     20  C   UNL     1       0.006  -0.646  -1.198  0.00  0.00    +0.005 A 
ATOM     21  C   UNL     1       0.026  -1.990  -1.308  0.00  0.00    +0.028 A 
ATOM     22  C   UNL     1       0.041  -2.816  -0.092  0.00  0.00    +0.061 A 
ATOM     23  N   UNL     1       0.060  -4.103   0.103  0.00  0.00    -0.355 N 
ATOM     24  C   UNL     1       0.067  -4.328   1.554  0.00  0.00    +0.236 C 
ATOM     25  N   UNL     1       0.050  -3.000   2.179  0.00  0.00    -0.355 N 
ATOM     26  C   UNL     1       0.035  -2.118   1.222  0.00  0.00    +0.061 A 
ATOM     27  C   UNL     1       0.018  -0.648   1.218  0.00  0.00    +0.030 A 
ATOM     28  H   UNL     1       0.068  -4.787  -0.585  0.00  0.00    +0.162 HD
ATOM     29  H   UNL     1       0.050  -2.814   3.131  0.00  0.00    +0.162 HD
ENDBRANCH  17  24
ENDBRANCH  16  17
ENDBRANCH   1  16
TORSDOF 6
