REMARK  Name = ZINC39561063
REMARK  6 active torsions:
REMARK  status: ('A' for Active; 'I' for Inactive)
REMARK    1  A    between atoms: C_1  and  N_2
REMARK    2  A    between atoms: C_6  and  C_8
REMARK    3  A    between atoms: C_8  and  O_9
REMARK    4  A    between atoms: O_9  and  C_10
REMARK    5  A    between atoms: C_10  and  C_12
REMARK    6  A    between atoms: C_14  and  N_20
REMARK                            x       y       z     vdW  Elec       q    Type
REMARK                         _______ _______ _______ _____ _____    ______ ____
ROOT
ATOM      1  C   UNL     1       1.980  -5.973  -3.390  0.00  0.00    +0.360 C 
ATOM      2  O   UNL     1       1.517  -6.724  -2.556  0.00  0.00    -0.243 OA
ENDROOT
BRANCH   1   3
ATOM      3  C   UNL     1       2.660  -6.523  -4.584  0.00  0.00    +0.169 A 
ATOM      4  C   UNL     1       2.760  -7.902  -4.746  0.00  0.00    +0.095 A 
ATOM      5  C   UNL     1       3.404  -8.405  -5.878  0.00  0.00    +0.067 A 
ATOM      6  C   UNL     1       3.922  -7.498  -6.801  0.00  0.00    +0.100 A 
ATOM      7  C   UNL     1       3.783  -6.139  -6.568  0.00  0.00    +0.150 A 
ATOM      8  N   UNL     1       3.166  -5.696  -5.493  0.00  0.00    -0.226 NA
ATOM      9 CL   UNL     1       4.426  -5.005  -7.714  0.00  0.00    -0.060 Cl
ATOM     10 CL   UNL     1       4.734  -8.066  -8.227  0.00  0.00    -0.078 Cl
ATOM     11 CL   UNL     1       2.094  -8.980  -3.560  0.00  0.00    -0.079 Cl
BRANCH   5  12
ATOM     12  N   UNL     1       3.526  -9.778  -6.080  0.00  0.00    -0.356 N 
ATOM     13  H   UNL     1       3.161 -10.398  -5.429  0.00  0.00    +0.142 HD
ATOM     14  H   UNL     1       3.976 -10.114  -6.870  0.00  0.00    +0.142 HD
ENDBRANCH   5  12
ENDBRANCH   1   3
BRANCH   1  15
ATOM     15  O   UNL     1       1.876  -4.640  -3.229  0.00  0.00    -0.451 OA
BRANCH  15  16
ATOM     16  C   UNL     1       1.207  -4.179  -2.054  0.00  0.00    +0.328 C 
BRANCH  16  22
ATOM     17  C   UNL     1      -0.018   1.461   0.010  0.00  0.00    +0.129 C 
ATOM     18  N   UNL     1       0.002  -0.004   0.002  0.00  0.00    -0.302 N 
ATOM     19  C   UNL     1       0.585  -0.664  -1.018  0.00  0.00    +0.306 C 
ATOM     20  O   UNL     1       1.094  -0.045  -1.931  0.00  0.00    -0.252 OA
ATOM     21  N   UNL     1       0.603  -2.012  -1.025  0.00  0.00    -0.237 N 
ATOM     22  C   UNL     1       1.186  -2.673  -2.045  0.00  0.00    +0.258 C 
ATOM     23  O   UNL     1       1.694  -2.054  -2.956  0.00  0.00    -0.272 OA
ATOM     24  H   UNL     1      -0.404  -0.499   0.731  0.00  0.00    +0.150 HD
ATOM     25  H   UNL     1       0.197  -2.507  -0.297  0.00  0.00    +0.159 HD
ENDBRANCH  16  22
ENDBRANCH  15  16
ENDBRANCH   1  15
TORSDOF 5
