REMARK  Name = ZINC04938576
REMARK  6 active torsions:
REMARK  status: ('A' for Active; 'I' for Inactive)
REMARK    1  A    between atoms: C_1  and  C_2
REMARK    2  A    between atoms: C_2  and  C_3
REMARK    3  A    between atoms: C_3  and  N_4
REMARK    4  A    between atoms: C_10  and  S_11
REMARK    5  A    between atoms: S_11  and  C_12
REMARK    6  A    between atoms: C_12  and  C_13
REMARK                            x       y       z     vdW  Elec       q    Type
REMARK                         _______ _______ _______ _____ _____    ______ ____
ROOT
ATOM      1  C   UNL     1       5.285  -3.337  -1.433  0.00  0.00    +0.121 A 
ATOM      2  N   UNL     1       6.084  -4.327  -1.908  0.00  0.00    -0.310 N 
ATOM      3  H   UNL     1       5.832  -5.252  -1.762  0.00  0.00    +0.170 HD
ATOM      4  C   UNL     1       7.218  -4.049  -2.579  0.00  0.00    +0.260 A 
ATOM      5  O   UNL     1       7.926  -4.947  -3.000  0.00  0.00    -0.267 OA
ATOM      6  C   UNL     1       7.577  -2.678  -2.788  0.00  0.00    +0.075 A 
ATOM      7  C   UNL     1       8.758  -2.146  -3.485  0.00  0.00    -0.023 A 
ATOM      8  C   UNL     1       8.874  -0.808  -3.549  0.00  0.00    -0.004 A 
ATOM      9  S   UNL     1       7.441  -0.182  -2.701  0.00  0.00    -0.073 S 
ATOM     10  C   UNL     1       6.692  -1.728  -2.262  0.00  0.00    +0.116 A 
ATOM     11  N   UNL     1       5.584  -2.079  -1.613  0.00  0.00    -0.226 NA
ATOM     12  C   UNL     1      10.118  -0.380  -4.278  0.00  0.00    +0.043 C 
ATOM     13  C   UNL     1      11.008  -1.642  -4.301  0.00  0.00    +0.010 C 
ATOM     14  C   UNL     1       9.959  -2.767  -4.203  0.00  0.00    +0.037 C 
ENDROOT
BRANCH   1  15
ATOM     15  C   UNL     1       4.025  -3.698  -0.688  0.00  0.00    +0.151 C 
BRANCH  15  16
ATOM     16  S   UNL     1       3.165  -2.182  -0.185  0.00  0.00    -0.078 S 
BRANCH  16  23
ATOM     17  N   UNL     1       0.762  -1.976   1.234  0.00  0.00    -0.271 N 
ATOM     18  C   UNL     1      -0.171  -2.780   1.779  0.00  0.00    +0.345 A 
ATOM     19  O   UNL     1      -1.178  -2.422   2.365  0.00  0.00    -0.245 OA
ATOM     20  N   UNL     1       0.211  -4.055   1.560  0.00  0.00    -0.226 N 
ATOM     21  H   UNL     1      -0.264  -4.854   1.838  0.00  0.00    +0.194 HD
ATOM     22  N   UNL     1       1.421  -4.014   0.854  0.00  0.00    -0.145 NA
ATOM     23  C   UNL     1       1.734  -2.765   0.662  0.00  0.00    +0.192 A 
BRANCH  17  24
ATOM     24  C   UNL     1       0.742  -0.511   1.242  0.00  0.00    +0.129 C 
BRANCH  24  26
ATOM     25  C   UNL     1      -0.019   1.526   0.010  0.00  0.00    +0.005 C 
ATOM     26  C   UNL     1       0.002  -0.004   0.002  0.00  0.00    +0.018 C 
ENDBRANCH  24  26
ENDBRANCH  17  24
ENDBRANCH  16  23
ENDBRANCH  15  16
ENDBRANCH   1  15
TORSDOF 5
