REMARK  Name = ZINC08812122
REMARK  12 active torsions:
REMARK  status: ('A' for Active; 'I' for Inactive)
REMARK    1  A    between atoms: C_1  and  C_2
REMARK    2  A    between atoms: C_2  and  N_3
REMARK    3  A    between atoms: N_3  and  C_4
REMARK    4  A    between atoms: N_3  and  C_33
REMARK    5  A    between atoms: C_4  and  C_5
REMARK    6  A    between atoms: C_5  and  C_6
REMARK    7  A    between atoms: C_6  and  N_7
REMARK    8  A    between atoms: C_8  and  C_10
REMARK    9  A    between atoms: C_19  and  S_22
REMARK   10  A    between atoms: S_22  and  N_25
REMARK   11  A    between atoms: C_30  and  C_32
REMARK   12  A    between atoms: C_37  and  C_39
REMARK                            x       y       z     vdW  Elec       q    Type
REMARK                         _______ _______ _______ _____ _____    ______ ____
ROOT
ATOM      1  C   UNL     1       1.015  -3.138  -6.451  0.00  0.00    +0.051 A 
ATOM      2  C   UNL     1       0.948  -3.239  -7.811  0.00  0.00    +0.083 A 
ATOM      3  C   UNL     1       1.757  -2.347  -8.639  0.00  0.00    +0.250 A 
ATOM      4  O   UNL     1       1.698  -2.437  -9.852  0.00  0.00    -0.268 OA
ATOM      5  N   UNL     1       2.566  -1.429  -8.081  0.00  0.00    -0.322 N 
ATOM      6  H   UNL     1       3.092  -0.849  -8.653  0.00  0.00    +0.169 HD
ATOM      7  C   UNL     1       2.661  -1.295  -6.712  0.00  0.00    +0.050 A 
ATOM      8  C   UNL     1       1.906  -2.126  -5.865  0.00  0.00    +0.012 A 
ATOM      9  C   UNL     1       2.014  -1.987  -4.478  0.00  0.00    +0.039 A 
ATOM     10  C   UNL     1       2.843  -1.037  -3.952  0.00  0.00    +0.106 A 
ATOM     11  C   UNL     1       3.590  -0.214  -4.785  0.00  0.00    +0.030 A 
ATOM     12  C   UNL     1       3.504  -0.337  -6.154  0.00  0.00    +0.028 A 
ENDROOT
BRANCH   1  14
ATOM     13  N   UNL     1      -0.697  -4.866  -6.133  0.00  0.00    -0.311 N 
ATOM     14  C   UNL     1       0.205  -4.029  -5.584  0.00  0.00    +0.245 C 
ATOM     15  O   UNL     1       0.356  -4.005  -4.379  0.00  0.00    -0.270 OA
ATOM     16  H   UNL     1      -0.767  -4.938  -7.098  0.00  0.00    +0.149 HD
BRANCH  13  17
ATOM     17  C   UNL     1      -1.573  -5.666  -5.274  0.00  0.00    +0.106 C 
BRANCH  17  18
ATOM     18  C   UNL     1      -2.410  -6.611  -6.137  0.00  0.00    +0.037 C 
BRANCH  18  19
ATOM     19  C   UNL     1      -3.409  -7.360  -5.252  0.00  0.00    +0.106 C 
BRANCH  19  20
ATOM     20  N   UNL     1      -4.211  -8.265  -6.079  0.00  0.00    -0.330 N 
BRANCH  20  21
ATOM     21  C   UNL     1      -5.406  -7.818  -6.647  0.00  0.00    +0.030 A 
ATOM     22  C   UNL     1      -5.838  -6.516  -6.424  0.00  0.00    +0.023 A 
ATOM     23  C   UNL     1      -7.018  -6.076  -6.991  0.00  0.00    +0.002 A 
ATOM     24  C   UNL     1      -7.774  -6.932  -7.771  0.00  0.00    +0.003 A 
ATOM     25  C   UNL     1      -7.349  -8.229  -7.991  0.00  0.00    -0.049 A 
ATOM     26  C   UNL     1      -6.167  -8.675  -7.431  0.00  0.00    +0.026 A 
ATOM     27  C   UNL     1      -8.176  -9.159  -8.842  0.00  0.00    +0.044 C 
ENDBRANCH  20  21
BRANCH  20  29
ATOM     28  C   UNL     1      -4.322 -10.551  -5.218  0.00  0.00    +0.024 C 
ATOM     29  C   UNL     1      -3.759  -9.640  -6.310  0.00  0.00    +0.102 C 
ENDBRANCH  20  29
ENDBRANCH  19  20
ENDBRANCH  18  19
ENDBRANCH  17  18
ENDBRANCH  13  17
ENDBRANCH   1  14
BRANCH  10  30
ATOM     30  S   UNL     1       2.971  -0.860  -2.204  0.00  0.00    +0.061 S 
ATOM     31  O   UNL     1       4.296  -0.420  -1.937  0.00  0.00    -0.153 OA
ATOM     32  O   UNL     1       2.432  -2.045  -1.635  0.00  0.00    -0.153 OA
BRANCH  30  33
ATOM     33  N   UNL     1       1.964   0.378  -1.762  0.00  0.00    -0.174 NA
ATOM     34  C   UNL     1       2.494   1.728  -1.528  0.00  0.00    +0.110 C 
ATOM     35  C   UNL     1       2.051   2.197  -0.139  0.00  0.00    +0.017 C 
ATOM     36  C   UNL     1       0.528   2.093  -0.031  0.00  0.00    +0.003 C 
ATOM     37  C   UNL     1       0.101   0.634  -0.206  0.00  0.00    +0.020 C 
ATOM     38  C   UNL     1       0.522   0.147  -1.597  0.00  0.00    +0.077 C 
ATOM     39  C   UNL     1       0.221  -1.347  -1.729  0.00  0.00    +0.026 C 
ENDBRANCH  30  33
ENDBRANCH  10  30
TORSDOF 9
