REMARK  Name = ZINC00134007
REMARK  5 active torsions:
REMARK  status: ('A' for Active; 'I' for Inactive)
REMARK    1  A    between atoms: C_1  and  N_2
REMARK    2  A    between atoms: C_3  and  C_5
REMARK    3  A    between atoms: C_10  and  S_11
REMARK    4  A    between atoms: S_11  and  C_13
REMARK    5  A    between atoms: C_18  and  C_19
REMARK                            x       y       z     vdW  Elec       q    Type
REMARK                         _______ _______ _______ _____ _____    ______ ____
ROOT
ATOM      1  S   UNL     1      -3.860  -2.036   0.279  0.00  0.00    +0.087 S 
ATOM      2  O   UNL     1      -3.725  -0.799  -0.407  0.00  0.00    -0.247 OA
ENDROOT
BRANCH   1   3
ATOM      3  C   UNL     1      -3.917  -1.576   1.979  0.00  0.00    +0.058 A 
ATOM      4  C   UNL     1      -3.580  -0.293   2.360  0.00  0.00    +0.020 A 
ATOM      5  C   UNL     1      -3.629   0.071   3.693  0.00  0.00    +0.021 A 
ATOM      6  C   UNL     1      -4.006  -0.850   4.656  0.00  0.00    +0.042 A 
ATOM      7  C   UNL     1      -4.340  -2.139   4.289  0.00  0.00    +0.036 A 
ATOM      8  C   UNL     1      -4.298  -2.511   2.944  0.00  0.00    +0.081 A 
ATOM      9 CL   UNL     1      -4.058  -0.385   6.327  0.00  0.00    -0.084 Cl
BRANCH   8  10
ATOM     10  C   UNL     1      -4.654  -3.887   2.544  0.00  0.00    +0.388 C 
ATOM     11  O   UNL     1      -4.615  -4.208   1.373  0.00  0.00    -0.241 OA
ATOM     12  O   UNL     1      -5.020  -4.787   3.477  0.00  0.00    -0.241 OA
ENDBRANCH   8  10
ENDBRANCH   1   3
BRANCH   1  18
ATOM     13  C   UNL     1      -1.154  -2.020  -0.162  0.00  0.00    +0.053 A 
ATOM     14  C   UNL     1       0.093  -2.631  -0.300  0.00  0.00    +0.014 A 
ATOM     15  C   UNL     1       0.202  -4.002  -0.185  0.00  0.00    +0.001 A 
ATOM     16  C   UNL     1      -0.921  -4.769   0.068  0.00  0.00    +0.001 A 
ATOM     17  C   UNL     1      -2.160  -4.169   0.205  0.00  0.00    +0.018 A 
ATOM     18  C   UNL     1      -2.282  -2.799   0.097  0.00  0.00    +0.056 A 
BRANCH  13  21
ATOM     19  C   UNL     1      -1.081   1.513  -1.564  0.00  0.00    +0.128 C 
ATOM     20  N   UNL     1      -0.958   0.058  -1.443  0.00  0.00    -0.314 N 
ATOM     21  C   UNL     1      -1.278  -0.551  -0.284  0.00  0.00    +0.245 C 
ATOM     22  O   UNL     1      -1.669   0.106   0.660  0.00  0.00    -0.270 OA
ATOM     23  H   UNL     1      -0.647  -0.467  -2.197  0.00  0.00    +0.149 HD
ENDBRANCH  13  21
ENDBRANCH   1  18
TORSDOF 4
