REMARK  Name = ZINC04894732
REMARK  7 active torsions:
REMARK  status: ('A' for Active; 'I' for Inactive)
REMARK    1  A    between atoms: C_1  and  C_2
REMARK    2  A    between atoms: C_2  and  C_3
REMARK    3  A    between atoms: C_3  and  C_5
REMARK    4  A    between atoms: C_3  and  C_6
REMARK    5  A    between atoms: C_9  and  C_20
REMARK    6  A    between atoms: C_15  and  N_19
REMARK    7  A    between atoms: C_16  and  C_17
REMARK                            x       y       z     vdW  Elec       q    Type
REMARK                         _______ _______ _______ _____ _____    ______ ____
ROOT
ATOM      1  C   UNL     1       0.695  -2.026  -1.311  0.00  0.00    +0.074 C 
ATOM      2  C   UNL     1       1.496  -2.505  -2.494  0.00  0.00    +0.045 A 
ATOM      3  C   UNL     1       2.872  -2.508  -2.681  0.00  0.00    +0.067 A 
ATOM      4  N   UNL     1       3.121  -3.018  -3.864  0.00  0.00    -0.176 NA
ATOM      5  N   UNL     1       1.900  -3.356  -4.467  0.00  0.00    -0.246 N 
ATOM      6  H   UNL     1       1.787  -3.752  -5.346  0.00  0.00    +0.192 HD
ATOM      7  C   UNL     1       0.916  -3.035  -3.612  0.00  0.00    +0.222 A 
ATOM      8  O   UNL     1      -0.427  -3.175  -3.744  0.00  0.00    -0.423 OA
ATOM      9  C   UNL     1      -1.181  -3.032  -2.636  0.00  0.00    +0.200 C 
ATOM     10  C   UNL     1      -0.724  -2.510  -1.475  0.00  0.00    +0.094 C 
ATOM     11  C   UNL     1       3.900  -2.013  -1.696  0.00  0.00    +0.068 C 
ENDROOT
BRANCH   9  12
ATOM     12  N   UNL     1      -2.491  -3.440  -2.689  0.00  0.00    -0.328 N 
ATOM     13  H   UNL     1      -2.849  -3.818  -3.507  0.00  0.00    +0.145 HD
ATOM     14  H   UNL     1      -3.059  -3.350  -1.907  0.00  0.00    +0.145 HD
ENDBRANCH   9  12
BRANCH   1  15
ATOM     15  C   UNL     1       0.717  -0.497  -1.258  0.00  0.00    -0.002 C 
ATOM     16  C   UNL     1       0.003  -0.020   0.008  0.00  0.00    +0.008 C 
BRANCH  15  18
ATOM     17  C   UNL     1       0.132   1.590  -2.500  0.00  0.00    +0.004 C 
ATOM     18  C   UNL     1       0.003   0.066  -2.489  0.00  0.00    +0.001 C 
ENDBRANCH  15  18
ENDBRANCH   1  15
BRANCH  10  19
ATOM     19  C   UNL     1      -1.619  -2.412  -0.361  0.00  0.00    +0.100 C 
ATOM     20  N   UNL     1      -2.329  -2.335   0.522  0.00  0.00    -0.191 NA
ENDBRANCH  10  19
TORSDOF 4
