REMARK  Name = ZINC65137107
REMARK  4 active torsions:
REMARK  status: ('A' for Active; 'I' for Inactive)
REMARK    1  A    between atoms: C_3  and  C_20
REMARK    2  A    between atoms: C_5  and  C_7
REMARK    3  A    between atoms: C_9  and  C_12
REMARK    4  A    between atoms: C_12  and  C_13
REMARK                            x       y       z     vdW  Elec       q    Type
REMARK                         _______ _______ _______ _____ _____    ______ ____
ROOT
ATOM      1  C   UNL     1       1.234  -2.172  -0.022  0.00  0.00    +0.202 A 
ATOM      2  N   UNL     1       0.151  -2.970  -0.021  0.00  0.00    -0.191 NA
ATOM      3  C   UNL     1       0.517  -4.220  -0.030  0.00  0.00    +0.232 A 
ATOM      4  O   UNL     1       1.856  -4.270  -0.038  0.00  0.00    -0.337 OA
ATOM      5  N   UNL     1       2.307  -2.924  -0.037  0.00  0.00    -0.056 NA
ENDROOT
BRANCH   1  10
ATOM      6  C   UNL     1      -0.017   1.377   0.010  0.00  0.00    +0.001 A 
ATOM      7  C   UNL     1       1.166   2.089   0.002  0.00  0.00    +0.010 A 
ATOM      8  C   UNL     1       2.389   1.416  -0.014  0.00  0.00    +0.000 A 
ATOM      9  C   UNL     1       2.413   0.022  -0.021  0.00  0.00    +0.021 A 
ATOM     10  C   UNL     1       1.217  -0.688  -0.013  0.00  0.00    +0.023 A 
ATOM     11  C   UNL     1       0.002  -0.004   0.002  0.00  0.00    +0.012 A 
BRANCH   8  12
ATOM     12  C   UNL     1       3.656   2.179  -0.022  0.00  0.00    +0.066 A 
ATOM     13  C   UNL     1       3.782   3.540  -0.011  0.00  0.00    +0.049 A 
ATOM     14  C   UNL     1       5.143   3.844  -0.026  0.00  0.00    +0.135 A 
ATOM     15  N   UNL     1       5.821   2.724  -0.045  0.00  0.00    -0.182 NA
ATOM     16  N   UNL     1       4.914   1.656  -0.037  0.00  0.00    -0.277 N 
ATOM     17  H   UNL     1       5.141   0.713  -0.044  0.00  0.00    +0.189 HD
ENDBRANCH   8  12
ENDBRANCH   1  10
BRANCH   3  18
ATOM     18  C   UNL     1      -0.409  -5.409  -0.032  0.00  0.00    +0.134 C 
BRANCH  18  19
ATOM     19  C   UNL     1      -0.726  -5.796  -1.453  0.00  0.00    -0.038 A 
ATOM     20  C   UNL     1      -1.812  -5.234  -2.097  0.00  0.00    +0.007 A 
ATOM     21  C   UNL     1      -2.103  -5.589  -3.400  0.00  0.00    +0.038 A 
ATOM     22  C   UNL     1      -1.306  -6.508  -4.062  0.00  0.00    +0.123 A 
ATOM     23  C   UNL     1      -0.218  -7.070  -3.416  0.00  0.00    +0.038 A 
ATOM     24  C   UNL     1       0.074  -6.710  -2.115  0.00  0.00    +0.007 A 
ATOM     25  F   UNL     1      -1.590  -6.855  -5.336  0.00  0.00    -0.205 F 
ENDBRANCH  18  19
ENDBRANCH   3  18
TORSDOF 4
