REMARK  Name = ZINC66439235
REMARK  6 active torsions:
REMARK  status: ('A' for Active; 'I' for Inactive)
REMARK    1  A    between atoms: C_1  and  C_2
REMARK    2  A    between atoms: C_5  and  N_9
REMARK    3  A    between atoms: C_10  and  C_12
REMARK    4  A    between atoms: C_12  and  C_13
REMARK    5  A    between atoms: C_13  and  N_14
REMARK    6  A    between atoms: C_15  and  C_17
REMARK                            x       y       z     vdW  Elec       q    Type
REMARK                         _______ _______ _______ _____ _____    ______ ____
ROOT
ATOM      1  C   UNL     1      -0.136  -6.343  -1.191  0.00  0.00    +0.115 C 
ENDROOT
BRANCH   1   3
ATOM      2  N   UNL     1       0.057  -4.171  -0.023  0.00  0.00    -0.284 N 
ATOM      3  C   UNL     1      -0.042  -4.839  -1.190  0.00  0.00    +0.219 C 
ATOM      4  O   UNL     1      -0.055  -4.230  -2.238  0.00  0.00    -0.275 OA
ATOM      5  H   UNL     1       0.149  -4.660   0.809  0.00  0.00    +0.155 HD
BRANCH   2  10
ATOM      6  C   UNL     1      -0.064   1.502   0.016  0.00  0.00    +0.044 C 
ATOM      7  C   UNL     1      -0.031  -0.005   0.006  0.00  0.00    -0.049 A 
ATOM      8  C   UNL     1      -0.622  -0.701  -1.033  0.00  0.00    +0.005 A 
ATOM      9  C   UNL     1      -0.594  -2.082  -1.045  0.00  0.00    +0.025 A 
ATOM     10  C   UNL     1       0.028  -2.772  -0.014  0.00  0.00    +0.052 A 
ATOM     11  C   UNL     1       0.621  -2.070   1.029  0.00  0.00    +0.062 A 
ATOM     12  C   UNL     1       0.595  -0.688   1.032  0.00  0.00    +0.025 A 
ATOM     13 CL   UNL     1       1.401  -2.928   2.321  0.00  0.00    -0.082 Cl
ENDBRANCH   2  10
ENDBRANCH   1   3
BRANCH   1  14
ATOM     14  C   UNL     1      -0.238  -6.847  -2.632  0.00  0.00    +0.113 C 
BRANCH  14  15
ATOM     15  N   UNL     1      -0.330  -8.309  -2.633  0.00  0.00    -0.311 N 
ATOM     16  C   UNL     1      -0.429  -8.977  -3.799  0.00  0.00    +0.241 C 
ATOM     17  O   UNL     1      -0.442  -8.366  -4.851  0.00  0.00    -0.271 OA
ATOM     18  H   UNL     1      -0.319  -8.796  -1.794  0.00  0.00    +0.149 HD
BRANCH  16  19
ATOM     19  C   UNL     1      -0.520 -10.442  -3.800  0.00  0.00    +0.029 C 
ATOM     20  C   UNL     1      -0.611 -11.059  -4.963  0.00  0.00    +0.027 C 
ATOM     21  C   UNL     1      -0.719 -12.549  -5.111  0.00  0.00    +0.048 C 
ATOM     22  C   UNL     1      -0.288 -13.239  -3.815  0.00  0.00    +0.006 C 
ATOM     23  C   UNL     1      -1.027 -12.582  -2.643  0.00  0.00    +0.005 C 
ATOM     24  C   UNL     1      -0.500 -11.154  -2.479  0.00  0.00    +0.041 C 
ATOM     25 CL   UNL     1      -0.604 -10.092  -6.405  0.00  0.00    -0.088 Cl
ENDBRANCH  16  19
ENDBRANCH  14  15
ENDBRANCH   1  14
TORSDOF 5
