REMARK  Name = ZINC08609948
REMARK  7 active torsions:
REMARK  status: ('A' for Active; 'I' for Inactive)
REMARK    1  A    between atoms: C_1  and  C_2
REMARK    2  A    between atoms: C_2  and  O_3
REMARK    3  A    between atoms: O_3  and  C_4
REMARK    4  A    between atoms: C_6  and  C_12
REMARK    5  A    between atoms: C_9  and  O_10
REMARK    6  A    between atoms: C_14  and  C_23
REMARK    7  A    between atoms: C_15  and  C_22
REMARK                            x       y       z     vdW  Elec       q    Type
REMARK                         _______ _______ _______ _____ _____    ______ ____
ROOT
ATOM      1  C   UNL     1      -0.164  -4.952   0.413  0.00  0.00    +0.177 C 
ATOM      2  C   UNL     1      -1.165  -5.786  -0.341  0.00  0.00    +0.060 C 
ATOM      3  C   UNL     1      -1.032  -7.109  -0.517  0.00  0.00    +0.018 C 
ATOM      4  N   UNL     1       0.034  -7.811  -0.010  0.00  0.00    -0.287 N 
ATOM      5  C   UNL     1       0.840  -7.166   0.917  0.00  0.00    +0.218 A 
ATOM      6  N   UNL     1       0.757  -5.829   1.131  0.00  0.00    -0.221 N 
ATOM      7  N   UNL     1       1.691  -5.526   2.120  0.00  0.00    -0.156 NA
ATOM      8  C   UNL     1       2.278  -6.652   2.443  0.00  0.00    +0.247 A 
ATOM      9  N   UNL     1       1.761  -7.644   1.710  0.00  0.00    -0.201 NA
ATOM     10  C   UNL     1      -2.086  -7.849  -1.299  0.00  0.00    +0.061 C 
ATOM     11  H   UNL     1       0.215  -8.722  -0.289  0.00  0.00    +0.155 HD
ENDROOT
BRANCH   1  14
ATOM     12  C   UNL     1       1.285  -1.933  -1.337  0.00  0.00    +0.163 A 
ATOM     13  C   UNL     1       0.574  -2.721  -0.445  0.00  0.00    +0.055 A 
ATOM     14  C   UNL     1       0.610  -4.098  -0.558  0.00  0.00    -0.014 A 
ATOM     15  C   UNL     1       1.355  -4.693  -1.558  0.00  0.00    +0.025 A 
ATOM     16  C   UNL     1       2.068  -3.913  -2.451  0.00  0.00    +0.063 A 
ATOM     17  C   UNL     1       2.030  -2.531  -2.348  0.00  0.00    +0.173 A 
ATOM     18 BR   UNL     1       3.087  -4.732  -3.818  0.00  0.00    -0.046 Br
BRANCH  17  19
ATOM     19  O   UNL     1       2.725  -1.762  -3.228  0.00  0.00    -0.503 OA
ATOM     20  H   UNL     1       3.630  -1.565  -2.949  0.00  0.00    +0.292 HD
ENDBRANCH  17  19
BRANCH  12  21
ATOM     21  O   UNL     1       1.250  -0.578  -1.227  0.00  0.00    -0.489 OA
BRANCH  21  23
ATOM     22  C   UNL     1       0.546   1.494  -0.201  0.00  0.00    +0.048 C 
ATOM     23  C   UNL     1       0.464  -0.033  -0.165  0.00  0.00    +0.226 C 
ENDBRANCH  21  23
ENDBRANCH  12  21
ENDBRANCH   1  14
BRANCH   2  24
ATOM     24  C   UNL     1      -2.302  -5.144  -0.888  0.00  0.00    +0.241 C 
ATOM     25  O   UNL     1      -3.208  -4.784  -0.158  0.00  0.00    -0.271 OA
ATOM     26  N   UNL     1      -2.381  -4.931  -2.216  0.00  0.00    -0.325 N 
ATOM     27  H   UNL     1      -1.659  -5.218  -2.797  0.00  0.00    +0.145 HD
ATOM     28  H   UNL     1      -3.160  -4.491  -2.591  0.00  0.00    +0.145 HD
ENDBRANCH   2  24
TORSDOF 5
