REMARK  Name = ZINC39480642
REMARK  5 active torsions:
REMARK  status: ('A' for Active; 'I' for Inactive)
REMARK    1  A    between atoms: C_1  and  C_2
REMARK    2  A    between atoms: C_2  and  C_3
REMARK    3  A    between atoms: C_2  and  S_4
REMARK    4  A    between atoms: S_4  and  C_7
REMARK    5  A    between atoms: N_14  and  C_26
REMARK                            x       y       z     vdW  Elec       q    Type
REMARK                         _______ _______ _______ _____ _____    ______ ____
ROOT
ATOM      1  C   UNL     1      -2.085  -2.315   0.590  0.00  0.00    +0.090 A 
ATOM      2  C   UNL     1      -1.898  -2.946  -0.638  0.00  0.00    +0.033 A 
ATOM      3  C   UNL     1      -1.660  -4.271  -0.633  0.00  0.00    -0.016 A 
ATOM      4  C   UNL     1      -1.771  -5.039   0.519  0.00  0.00    +0.053 A 
ATOM      5  C   UNL     1      -1.773  -4.415   1.746  0.00  0.00    +0.041 A 
ATOM      6  C   UNL     1      -1.946  -3.035   1.766  0.00  0.00    +0.044 A 
ATOM      7 BR   UNL     1      -1.544  -5.397   3.346  0.00  0.00    -0.048 Br
ATOM      8  N   UNL     1      -2.341  -6.284   0.297  0.00  0.00    -0.285 N 
ATOM      9  C   UNL     1      -2.194  -7.469   0.959  0.00  0.00    +0.156 A 
ATOM     10  C   UNL     1      -1.547  -8.293  -0.084  0.00  0.00    +0.142 A 
ATOM     11  C   UNL     1      -1.223  -9.569   0.232  0.00  0.00    +0.160 A 
ATOM     12  N   UNL     1      -1.508 -10.019   1.456  0.00  0.00    -0.222 NA
ATOM     13  C   UNL     1      -2.097  -9.252   2.353  0.00  0.00    +0.225 A 
ATOM     14  N   UNL     1      -2.434  -7.991   2.100  0.00  0.00    -0.218 NA
ATOM     15 CL   UNL     1      -0.450 -10.599  -0.932  0.00  0.00    -0.060 Cl
ATOM     16  N   UNL     1      -1.446  -7.503  -1.184  0.00  0.00    -0.233 NA
ATOM     17  C   UNL     1      -0.800  -6.403  -1.034  0.00  0.00    +0.112 C 
ATOM     18  C   UNL     1      -1.023  -5.094  -1.783  0.00  0.00    +0.105 C 
ATOM     19 CL   UNL     1       0.466  -6.407   0.154  0.00  0.00    -0.066 Cl
ATOM     20  C   UNL     1      -3.258  -6.336  -0.844  0.00  0.00    +0.137 C 
ENDROOT
BRANCH   1  21
ATOM     21  S   UNL     1      -2.490  -0.602   0.649  0.00  0.00    -0.001 S 
ATOM     22  O   UNL     1      -3.181  -0.434   1.879  0.00  0.00    -0.169 OA
ATOM     23  O   UNL     1      -3.139  -0.340  -0.588  0.00  0.00    -0.169 OA
BRANCH  21  25
ATOM     24  C   UNL     1      -1.124   1.756   0.888  0.00  0.00    +0.032 C 
ATOM     25  C   UNL     1      -0.892   0.254   0.709  0.00  0.00    +0.130 C 
ATOM     26  C   UNL     1      -0.072  -0.280   1.885  0.00  0.00    +0.032 C 
ENDBRANCH  21  25
ENDBRANCH   1  21
TORSDOF 2
