REMARK  Name = ZINC40159227
REMARK  7 active torsions:
REMARK  status: ('A' for Active; 'I' for Inactive)
REMARK    1  A    between atoms: C_1  and  C_2
REMARK    2  A    between atoms: C_2  and  C_4
REMARK    3  A    between atoms: C_2  and  S_24
REMARK    4  A    between atoms: C_7  and  C_19
REMARK    5  A    between atoms: C_10  and  C_12
REMARK    6  A    between atoms: S_24  and  C_25
REMARK    7  A    between atoms: C_29  and  N_31
REMARK                            x       y       z     vdW  Elec       q    Type
REMARK                         _______ _______ _______ _____ _____    ______ ____
ROOT
ATOM      1  C   UNL     1      -1.412  -0.526   0.013  0.00  0.00    +0.249 C 
ATOM      2  O   UNL     1      -1.939  -0.827   1.063  0.00  0.00    -0.273 OA
ATOM      3  N   UNL     1      -2.090  -0.657  -1.144  0.00  0.00    -0.181 N 
ATOM      4  C   UNL     1      -3.472  -1.146  -1.276  0.00  0.00    +0.173 C 
ATOM      5  C   UNL     1      -3.733  -1.089  -2.794  0.00  0.00    +0.090 C 
ATOM      6  C   UNL     1      -2.437  -0.561  -3.366  0.00  0.00    +0.069 C 
ATOM      7  N   UNL     1      -1.600  -0.347  -2.411  0.00  0.00    -0.181 NA
ENDROOT
BRANCH   6   8
ATOM      8  C   UNL     1      -2.174  -0.322  -4.798  0.00  0.00    -0.002 A 
ATOM      9  C   UNL     1      -3.167  -0.582  -5.746  0.00  0.00    +0.011 A 
ATOM     10  C   UNL     1      -2.914  -0.356  -7.083  0.00  0.00    +0.020 A 
ATOM     11  C   UNL     1      -1.680   0.127  -7.486  0.00  0.00    +0.041 A 
ATOM     12  C   UNL     1      -0.692   0.386  -6.551  0.00  0.00    +0.020 A 
ATOM     13  C   UNL     1      -0.934   0.170  -5.210  0.00  0.00    +0.011 A 
ATOM     14 CL   UNL     1      -1.371   0.407  -9.171  0.00  0.00    -0.084 Cl
ENDBRANCH   6   8
BRANCH   4  15
ATOM     15  C   UNL     1      -4.426  -0.244  -0.536  0.00  0.00    +0.128 A 
ATOM     16  C   UNL     1      -5.494  -0.645   0.177  0.00  0.00    +0.046 A 
ATOM     17  C   UNL     1      -6.101   0.522   0.696  0.00  0.00    +0.041 A 
ATOM     18  C   UNL     1      -5.368   1.566   0.269  0.00  0.00    +0.195 A 
ATOM     19  O   UNL     1      -4.351   1.095  -0.472  0.00  0.00    -0.466 OA
ENDBRANCH   4  15
BRANCH   1  21
ATOM     20  C   UNL     1      -0.019   1.526   0.010  0.00  0.00    +0.029 C 
ATOM     21  C   UNL     1       0.002  -0.004   0.002  0.00  0.00    +0.139 C 
BRANCH  21  22
ATOM     22  S   UNL     1       0.879  -0.605   1.472  0.00  0.00    -0.073 S 
BRANCH  22  23
ATOM     23  C   UNL     1       2.533  -0.042   1.241  0.00  0.00    +0.192 A 
ATOM     24  N   UNL     1       2.831   0.656   0.155  0.00  0.00    -0.207 NA
ATOM     25  C   UNL     1       4.070   1.098  -0.053  0.00  0.00    +0.122 A 
ATOM     26  C   UNL     1       5.056   0.817   0.889  0.00  0.00    +0.086 A 
ATOM     27  C   UNL     1       4.705   0.082   2.017  0.00  0.00    +0.122 A 
ATOM     28  N   UNL     1       3.445  -0.323   2.160  0.00  0.00    -0.207 NA
ATOM     29  N   UNL     1       4.373   1.827  -1.192  0.00  0.00    -0.343 N 
ATOM     30  H   UNL     1       3.682   2.018  -1.844  0.00  0.00    +0.144 HD
ATOM     31  H   UNL     1       5.278   2.146  -1.337  0.00  0.00    +0.144 HD
BRANCH  27  32
ATOM     32  N   UNL     1       5.654  -0.222   2.981  0.00  0.00    -0.343 N 
ATOM     33  H   UNL     1       6.569   0.079   2.872  0.00  0.00    +0.144 HD
ATOM     34  H   UNL     1       5.402  -0.735   3.765  0.00  0.00    +0.144 HD
ENDBRANCH  27  32
ENDBRANCH  22  23
ENDBRANCH  21  22
ENDBRANCH   1  21
TORSDOF 6
