REMARK  Name = ZINC02880984
REMARK  8 active torsions:
REMARK  status: ('A' for Active; 'I' for Inactive)
REMARK    1  A    between atoms: C_1  and  C_2
REMARK    2  A    between atoms: C_7  and  O_8
REMARK    3  A    between atoms: O_8  and  C_9
REMARK    4  A    between atoms: C_9  and  C_10
REMARK    5  A    between atoms: C_10  and  S_11
REMARK    6  A    between atoms: S_11  and  C_12
REMARK    7  A    between atoms: C_15  and  C_18
REMARK    8  A    between atoms: N_16  and  C_17
REMARK                            x       y       z     vdW  Elec       q    Type
REMARK                         _______ _______ _______ _____ _____    ______ ____
ROOT
ATOM      1  C   UNL     1       0.004   0.302   7.604  0.00  0.00    +0.192 A 
ATOM      2  N   UNL     1       0.122   1.601   7.463  0.00  0.00    -0.122 NA
ATOM      3  N   UNL     1       0.168   2.169   8.614  0.00  0.00    -0.128 NA
ATOM      4  C   UNL     1       0.082   1.266   9.564  0.00  0.00    +0.167 A 
ATOM      5  N   UNL     1      -0.032   0.042   8.947  0.00  0.00    -0.305 N 
ATOM      6  C   UNL     1      -0.162  -1.267   9.593  0.00  0.00    +0.153 C 
ENDROOT
BRANCH   4   7
ATOM      7  C   UNL     1       0.098   1.518  11.019  0.00  0.00    +0.044 A 
ATOM      8  C   UNL     1       0.827   0.850  11.950  0.00  0.00    +0.095 A 
ATOM      9  N   UNL     1       0.579   1.368  13.188  0.00  0.00    -0.360 N 
ATOM     10  H   UNL     1       0.984   1.054  14.012  0.00  0.00    +0.165 HD
ATOM     11  C   UNL     1      -0.330   2.400  13.099  0.00  0.00    +0.047 A 
ATOM     12  C   UNL     1      -0.668   2.547  11.743  0.00  0.00    +0.010 A 
ATOM     13  C   UNL     1      -1.574   3.531  11.352  0.00  0.00    +0.011 A 
ATOM     14  C   UNL     1      -2.132   4.359  12.300  0.00  0.00    +0.001 A 
ATOM     15  C   UNL     1      -1.797   4.217  13.639  0.00  0.00    +0.002 A 
ATOM     16  C   UNL     1      -0.908   3.244  14.041  0.00  0.00    +0.026 A 
ENDBRANCH   4   7
BRANCH   1  17
ATOM     17  S   UNL     1      -0.098  -0.886   6.307  0.00  0.00    -0.083 S 
BRANCH  17  18
ATOM     18  C   UNL     1       0.009   0.107   4.793  0.00  0.00    +0.118 C 
BRANCH  18  19
ATOM     19  C   UNL     1      -0.068  -0.812   3.573  0.00  0.00    +0.240 C 
BRANCH  19  20
ATOM     20  O   UNL     1       0.016  -0.030   2.380  0.00  0.00    -0.491 OA
BRANCH  20  27
ATOM     21  C   UNL     1       0.180   1.499   0.010  0.00  0.00    +0.047 C 
ATOM     22  C   UNL     1       0.039  -0.001   0.002  0.00  0.00    -0.009 A 
ATOM     23  C   UNL     1      -0.009  -0.684  -1.199  0.00  0.00    +0.007 A 
ATOM     24  C   UNL     1      -0.139  -2.061  -1.208  0.00  0.00    +0.000 A 
ATOM     25  C   UNL     1      -0.221  -2.757  -0.016  0.00  0.00    +0.004 A 
ATOM     26  C   UNL     1      -0.173  -2.079   1.187  0.00  0.00    +0.046 A 
ATOM     27  C   UNL     1      -0.037  -0.699   1.198  0.00  0.00    +0.123 A 
ENDBRANCH  20  27
ENDBRANCH  19  20
ENDBRANCH  18  19
ENDBRANCH  17  18
ENDBRANCH   1  17
TORSDOF 6
