REMARK  Name = ZINC44416550
REMARK  2 active torsions:
REMARK  status: ('A' for Active; 'I' for Inactive)
REMARK    1  A    between atoms: C_4  and  C_7
REMARK    2  A    between atoms: C_10  and  N_12
REMARK                            x       y       z     vdW  Elec       q    Type
REMARK                         _______ _______ _______ _____ _____    ______ ____
ROOT
ATOM      1  N   UNL     1       5.363  -1.736  -1.702  0.00  0.00    -0.325 N 
ATOM      2  C   UNL     1       5.614  -2.108  -3.010  0.00  0.00    +0.130 A 
ATOM      3  C   UNL     1       6.951  -2.210  -3.486  0.00  0.00    +0.047 A 
ATOM      4  C   UNL     1       8.205  -1.975  -2.791  0.00  0.00    +0.021 A 
ATOM      5  C   UNL     1       9.360  -2.136  -3.453  0.00  0.00    +0.048 A 
ATOM      6  S   UNL     1       8.840  -2.624  -5.087  0.00  0.00    -0.077 S 
ATOM      7  C   UNL     1       7.085  -2.599  -4.836  0.00  0.00    +0.113 A 
ATOM      8  N   UNL     1       6.030  -2.846  -5.588  0.00  0.00    -0.228 NA
ATOM      9  C   UNL     1       4.814  -2.734  -5.090  0.00  0.00    +0.224 A 
ATOM     10  N   UNL     1       4.614  -2.380  -3.833  0.00  0.00    -0.220 NA
ATOM     11  H   UNL     1       6.101  -1.538  -1.104  0.00  0.00    +0.148 HD
ENDROOT
BRANCH   1  14
ATOM     12  C   UNL     1       3.711  -0.707  -0.038  0.00  0.00    +0.041 C 
ATOM     13  C   UNL     1       3.675  -2.224   0.162  0.00  0.00    +0.032 C 
ATOM     14  C   UNL     1       3.983  -1.640  -1.219  0.00  0.00    +0.080 C 
BRANCH  12  18
ATOM     15  C   UNL     1      -0.017   1.378   0.010  0.00  0.00    +0.000 A 
ATOM     16  C   UNL     1       1.171   2.086   0.002  0.00  0.00    +0.000 A 
ATOM     17  C   UNL     1       2.377   1.411  -0.013  0.00  0.00    +0.004 A 
ATOM     18  C   UNL     1       2.396   0.029  -0.020  0.00  0.00    -0.042 A 
ATOM     19  C   UNL     1       1.208  -0.679  -0.012  0.00  0.00    +0.004 A 
ATOM     20  C   UNL     1       0.002  -0.004   0.002  0.00  0.00    +0.000 A 
ENDBRANCH  12  18
ENDBRANCH   1  14
TORSDOF 2
