REMARK  Name = ZINC20202064
REMARK  6 active torsions:
REMARK  status: ('A' for Active; 'I' for Inactive)
REMARK    1  A    between atoms: C_4  and  N_20
REMARK    2  A    between atoms: C_5  and  C_7
REMARK    3  A    between atoms: C_8  and  C_9
REMARK    4  A    between atoms: N_11  and  C_12
REMARK    5  A    between atoms: C_12  and  C_13
REMARK    6  A    between atoms: C_13  and  C_14
REMARK                            x       y       z     vdW  Elec       q    Type
REMARK                         _______ _______ _______ _____ _____    ______ ____
ROOT
ATOM      1  C   UNL     1       0.125  -4.224   0.945  0.00  0.00    +0.237 C 
ATOM      2  O   UNL     1       1.190  -4.807   1.030  0.00  0.00    -0.271 OA
ATOM      3  N   UNL     1      -1.029  -4.903   1.099  0.00  0.00    -0.311 N 
ATOM      4  H   UNL     1      -1.878  -4.439   1.031  0.00  0.00    +0.149 HD
ENDROOT
BRANCH   1   6
ATOM      5  C   UNL     1       1.251  -2.106   0.522  0.00  0.00    +0.015 C 
ATOM      6  C   UNL     1       0.097  -2.785   0.676  0.00  0.00    +0.068 C 
BRANCH   5  11
ATOM      7  C   UNL     1       0.036   1.429   0.217  0.00  0.00    +0.001 A 
ATOM      8  C   UNL     1       1.171   2.063  -0.260  0.00  0.00    +0.002 A 
ATOM      9  C   UNL     1       2.332   1.343  -0.482  0.00  0.00    +0.033 A 
ATOM     10  C   UNL     1       2.366  -0.013  -0.230  0.00  0.00    +0.133 A 
ATOM     11  C   UNL     1       1.224  -0.659   0.251  0.00  0.00    +0.005 A 
ATOM     12  C   UNL     1       0.054   0.075   0.474  0.00  0.00    +0.010 A 
BRANCH  10  13
ATOM     13  N   UNL     1       3.608  -0.781  -0.469  0.00  0.00    +0.057 N 
ATOM     14  O   UNL     1       4.683  -0.283  -0.226  0.00  0.00    -0.126 OA
ATOM     15  O   UNL     1       3.548  -1.906  -0.908  0.00  0.00    -0.126 OA
ENDBRANCH  10  13
ENDBRANCH   5  11
ENDBRANCH   1   6
BRANCH   3  16
ATOM     16  C   UNL     1      -1.002  -6.343   1.368  0.00  0.00    +0.111 C 
BRANCH  16  17
ATOM     17  C   UNL     1      -2.434  -6.865   1.499  0.00  0.00    +0.083 C 
BRANCH  17  18
ATOM     18  C   UNL     1      -2.406  -8.346   1.776  0.00  0.00    +0.105 A 
ATOM     19  N   UNL     1      -2.373  -8.992   2.924  0.00  0.00    -0.145 NA
ATOM     20  N   UNL     1      -2.353 -10.252   2.986  0.00  0.00    -0.126 NA
ATOM     21  C   UNL     1      -2.363 -11.006   1.895  0.00  0.00    +0.179 A 
ATOM     22  S   UNL     1      -2.415  -9.730   0.639  0.00  0.00    -0.036 S 
ATOM     23  N   UNL     1      -2.345 -12.386   1.764  0.00  0.00    -0.336 N 
ATOM     24  H   UNL     1      -2.320 -12.948   2.554  0.00  0.00    +0.144 HD
ATOM     25  H   UNL     1      -2.356 -12.790   0.882  0.00  0.00    +0.144 HD
ENDBRANCH  17  18
ENDBRANCH  16  17
ENDBRANCH   3  16
TORSDOF 6
