REMARK  Name = ZINC36597771
REMARK  13 active torsions:
REMARK  status: ('A' for Active; 'I' for Inactive)
REMARK    1  A    between atoms: C_1  and  C_2
REMARK    2  A    between atoms: C_5  and  C_7
REMARK    3  A    between atoms: C_7  and  N_8
REMARK    4  A    between atoms: N_8  and  C_9
REMARK    5  A    between atoms: C_9  and  C_11
REMARK    6  A    between atoms: C_9  and  C_19
REMARK    7  A    between atoms: N_21  and  C_22
REMARK    8  A    between atoms: C_22  and  C_23
REMARK    9  A    between atoms: C_22  and  C_24
REMARK   10  A    between atoms: C_22  and  C_25
REMARK   11  A    between atoms: C_26  and  C_28
REMARK   12  A    between atoms: C_32  and  O_35
REMARK   13  A    between atoms: C_33  and  O_34
REMARK                            x       y       z     vdW  Elec       q    Type
REMARK                         _______ _______ _______ _____ _____    ______ ____
ROOT
ATOM      1  N   UNL     1       1.946  -3.823  -1.391  0.00  0.00    -0.274 N 
ATOM      2  C   UNL     1       0.869  -3.716  -2.194  0.00  0.00    +0.252 C 
ATOM      3  O   UNL     1       0.052  -4.615  -2.239  0.00  0.00    -0.270 OA
ENDROOT
BRANCH   2   4
ATOM      4  C   UNL     1       0.682  -2.508  -3.020  0.00  0.00    +0.082 A 
ATOM      5  C   UNL     1       1.778  -1.705  -3.349  0.00  0.00    +0.017 A 
ATOM      6  C   UNL     1       1.600  -0.578  -4.121  0.00  0.00    +0.005 A 
ATOM      7  C   UNL     1       0.337  -0.234  -4.575  0.00  0.00    +0.049 A 
ATOM      8  C   UNL     1      -0.758  -1.018  -4.258  0.00  0.00    +0.159 A 
ATOM      9  C   UNL     1      -0.593  -2.163  -3.484  0.00  0.00    +0.171 A 
BRANCH   9  10
ATOM     10  O   UNL     1      -1.663  -2.939  -3.176  0.00  0.00    -0.503 OA
ATOM     11  H   UNL     1      -2.110  -2.686  -2.357  0.00  0.00    +0.292 HD
ENDBRANCH   9  10
BRANCH   8  12
ATOM     12  O   UNL     1      -1.994  -0.674  -4.708  0.00  0.00    -0.503 OA
ATOM     13  H   UNL     1      -2.220  -1.054  -5.568  0.00  0.00    +0.292 HD
ENDBRANCH   8  12
ENDBRANCH   2   4
BRANCH   1  14
ATOM     14  C   UNL     1       1.998  -4.875  -0.372  0.00  0.00    +0.183 C 
BRANCH  14  19
ATOM     15  C   UNL     1       3.138  -9.267  -2.574  0.00  0.00    +0.086 C 
ATOM     16  C   UNL     1       3.290  -7.952  -1.853  0.00  0.00    +0.102 A 
ATOM     17  C   UNL     1       4.448  -7.419  -1.424  0.00  0.00    +0.045 A 
ATOM     18  C   UNL     1       4.128  -6.188  -0.807  0.00  0.00    +0.046 A 
ATOM     19  C   UNL     1       2.794  -6.042  -0.896  0.00  0.00    +0.122 A 
ATOM     20  O   UNL     1       2.292  -7.111  -1.536  0.00  0.00    -0.463 OA
ENDBRANCH  14  19
ENDBRANCH   1  14
BRANCH   1  21
ATOM     21  C   UNL     1       3.064  -2.887  -1.536  0.00  0.00    +0.196 C 
BRANCH  21  22
ATOM     22  C   UNL     1       4.125  -3.210  -0.515  0.00  0.00    +0.018 A 
ATOM     23  C   UNL     1       3.820  -3.182   0.833  0.00  0.00    +0.048 A 
ATOM     24  C   UNL     1       4.794  -3.479   1.770  0.00  0.00    +0.020 A 
ATOM     25  C   UNL     1       6.073  -3.803   1.357  0.00  0.00    +0.003 A 
ATOM     26  C   UNL     1       6.379  -3.831   0.010  0.00  0.00    +0.020 A 
ATOM     27  C   UNL     1       5.403  -3.541  -0.928  0.00  0.00    +0.048 A 
ATOM     28 CL   UNL     1       5.786  -3.584  -2.621  0.00  0.00    -0.083 Cl
ATOM     29 CL   UNL     1       2.214  -2.773   1.351  0.00  0.00    -0.083 Cl
ENDBRANCH  21  22
BRANCH  21  30
ATOM     30  C   UNL     1       2.572  -1.479  -1.320  0.00  0.00    +0.239 C 
ATOM     31  O   UNL     1       1.413  -1.281  -1.023  0.00  0.00    -0.273 OA
ATOM     32  N   UNL     1       3.420  -0.441  -1.457  0.00  0.00    -0.309 N 
ATOM     33  H   UNL     1       4.346  -0.599  -1.695  0.00  0.00    +0.149 HD
BRANCH  32  34
ATOM     34  C   UNL     1       2.941   0.928  -1.248  0.00  0.00    +0.026 C 
ATOM     35  C   UNL     1       2.411   1.070   0.181  0.00  0.00    +0.031 C 
ATOM     36  C   UNL     1       4.094   1.910  -1.464  0.00  0.00    +0.031 C 
ATOM     37  C   UNL     1       1.818   1.234  -2.241  0.00  0.00    +0.031 C 
ENDBRANCH  32  34
ENDBRANCH  21  30
ENDBRANCH   1  21
TORSDOF 9
