REMARK  Name = ZINC00413490
REMARK  8 active torsions:
REMARK  status: ('A' for Active; 'I' for Inactive)
REMARK    1  A    between atoms: C_1  and  C_2
REMARK    2  A    between atoms: C_2  and  N_3
REMARK    3  A    between atoms: N_3  and  C_4
REMARK    4  A    between atoms: C_4  and  C_5
REMARK    5  A    between atoms: C_6  and  C_8
REMARK    6  A    between atoms: C_9  and  N_23
REMARK    7  A    between atoms: C_15  and  C_22
REMARK    8  A    between atoms: C_16  and  C_21
REMARK                            x       y       z     vdW  Elec       q    Type
REMARK                         _______ _______ _______ _____ _____    ______ ____
ROOT
ATOM      1  C   UNL     1      -6.811   1.960  -0.228  0.00  0.00    +0.097 A 
ATOM      2  C   UNL     1      -6.307   2.250   1.019  0.00  0.00    +0.053 A 
ATOM      3  C   UNL     1      -4.895   1.992   1.274  0.00  0.00    +0.030 A 
ATOM      4  C   UNL     1      -4.172   2.208   2.460  0.00  0.00    +0.022 A 
ATOM      5  C   UNL     1      -2.811   1.888   2.490  0.00  0.00    +0.001 A 
ATOM      6  C   UNL     1      -2.045   2.087   3.656  0.00  0.00    +0.010 A 
ATOM      7  C   UNL     1      -0.724   1.768   3.657  0.00  0.00    +0.004 A 
ATOM      8  C   UNL     1      -0.111   1.243   2.520  0.00  0.00    -0.045 A 
ATOM      9  C   UNL     1      -0.817   1.036   1.375  0.00  0.00    -0.022 A 
ATOM     10  C   UNL     1      -2.185   1.359   1.331  0.00  0.00    +0.075 A 
ATOM     11  N   UNL     1      -2.901   1.161   0.221  0.00  0.00    -0.239 NA
ATOM     12  C   UNL     1      -4.177   1.454   0.171  0.00  0.00    +0.111 A 
ATOM     13  S   UNL     1      -5.400   1.327  -1.111  0.00  0.00    -0.062 S 
ATOM     14  C   UNL     1      -0.134   0.468   0.158  0.00  0.00    +0.046 C 
ATOM     15  C   UNL     1       1.356   0.900   2.558  0.00  0.00    +0.044 C 
ENDROOT
BRANCH   1  17
ATOM     16  N   UNL     1      -8.419   1.933  -2.001  0.00  0.00    -0.298 N 
ATOM     17  C   UNL     1      -8.137   2.126  -0.698  0.00  0.00    +0.255 C 
ATOM     18  O   UNL     1      -9.022   2.444   0.076  0.00  0.00    -0.269 OA
BRANCH  16  20
ATOM     19  C   UNL     1      -9.876   3.585  -3.064  0.00  0.00    +0.024 C 
ATOM     20  C   UNL     1      -9.777   2.167  -2.499  0.00  0.00    +0.105 C 
ENDBRANCH  16  20
BRANCH  16  21
ATOM     21  C   UNL     1      -7.368   1.488  -2.920  0.00  0.00    +0.105 C 
ATOM     22  C   UNL     1      -7.220  -0.032  -2.828  0.00  0.00    +0.024 C 
ENDBRANCH  16  21
ENDBRANCH   1  17
BRANCH   2  23
ATOM     23  N   UNL     1      -7.123   2.776   2.010  0.00  0.00    -0.356 N 
ATOM     24  H   UNL     1      -6.756   2.976   2.885  0.00  0.00    +0.142 HD
ATOM     25  H   UNL     1      -8.061   2.943   1.827  0.00  0.00    +0.142 HD
ENDBRANCH   2  23
TORSDOF 4
