REMARK  Name = ZINC04483356
REMARK  11 active torsions:
REMARK  status: ('A' for Active; 'I' for Inactive)
REMARK    1  A    between atoms: C_1  and  C_2
REMARK    2  A    between atoms: C_2  and  C_3
REMARK    3  A    between atoms: C_2  and  C_4
REMARK    4  A    between atoms: C_2  and  C_5
REMARK    5  A    between atoms: C_9  and  C_27
REMARK    6  A    between atoms: N_11  and  C_12
REMARK    7  A    between atoms: C_14  and  O_20
REMARK    8  A    between atoms: C_16  and  O_18
REMARK    9  A    between atoms: O_18  and  C_19
REMARK   10  A    between atoms: O_20  and  C_21
REMARK   11  A    between atoms: C_24  and  O_26
REMARK                            x       y       z     vdW  Elec       q    Type
REMARK                         _______ _______ _______ _____ _____    ______ ____
ROOT
ATOM      1  C   UNL     1      -6.110   2.237   0.356  0.00  0.00    -0.038 A 
ATOM      2  C   UNL     1      -4.974   1.461   0.332  0.00  0.00    +0.016 A 
ATOM      3  C   UNL     1      -3.735   2.052   0.051  0.00  0.00    +0.022 A 
ATOM      4  C   UNL     1      -2.510   1.250   0.022  0.00  0.00    +0.030 A 
ATOM      5  C   UNL     1      -1.301   1.932   0.018  0.00  0.00    +0.099 A 
ATOM      6  C   UNL     1      -1.361   3.407   0.033  0.00  0.00    +0.233 A 
ATOM      7  N   UNL     1      -0.375   4.120   0.533  0.00  0.00    -0.212 NA
ATOM      8  O   UNL     1      -2.463   4.004  -0.486  0.00  0.00    -0.433 OA
ATOM      9  C   UNL     1      -3.661   3.433  -0.208  0.00  0.00    +0.179 A 
ATOM     10  C   UNL     1      -4.822   4.199  -0.178  0.00  0.00    +0.160 A 
ATOM     11  C   UNL     1      -6.037   3.599   0.104  0.00  0.00    +0.053 A 
ENDROOT
BRANCH   7  12
ATOM     12  C   UNL     1      -0.402   5.484   0.438  0.00  0.00    +0.075 A 
ATOM     13  C   UNL     1       0.083   6.117  -0.709  0.00  0.00    +0.073 A 
ATOM     14  C   UNL     1       0.049   7.498  -0.802  0.00  0.00    +0.126 A 
ATOM     15  C   UNL     1      -0.456   8.254   0.246  0.00  0.00    +0.091 A 
ATOM     16  C   UNL     1      -0.933   7.630   1.391  0.00  0.00    +0.126 A 
ATOM     17  C   UNL     1      -0.908   6.250   1.491  0.00  0.00    +0.073 A 
BRANCH  16  18
ATOM     18  O   UNL     1      -1.426   8.376   2.414  0.00  0.00    -0.495 OA
ATOM     19  C   UNL     1      -1.421   9.795   2.244  0.00  0.00    +0.277 C 
ENDBRANCH  16  18
BRANCH  14  20
ATOM     20  O   UNL     1       0.515   8.114  -1.920  0.00  0.00    -0.495 OA
ATOM     21  C   UNL     1       0.456   9.541  -1.947  0.00  0.00    +0.277 C 
ENDBRANCH  14  20
ENDBRANCH   7  12
BRANCH   5  22
ATOM     22  C   UNL     1      -0.014   1.215  -0.005  0.00  0.00    +0.247 C 
ATOM     23  O   UNL     1       0.004  -0.001  -0.017  0.00  0.00    -0.270 OA
ATOM     24  N   UNL     1       1.142   1.906  -0.020  0.00  0.00    -0.325 N 
ATOM     25  H   UNL     1       1.990   1.434  -0.040  0.00  0.00    +0.145 HD
ATOM     26  H   UNL     1       1.128   2.876  -0.011  0.00  0.00    +0.145 HD
ENDBRANCH   5  22
BRANCH   1  28
ATOM     27  C   UNL     1      -7.399   0.963   2.049  0.00  0.00    +0.015 C 
ATOM     28  C   UNL     1      -7.443   1.603   0.660  0.00  0.00    -0.013 C 
ATOM     29  C   UNL     1      -8.537   2.673   0.626  0.00  0.00    +0.015 C 
ATOM     30  C   UNL     1      -7.747   0.529  -0.387  0.00  0.00    +0.015 C 
ENDBRANCH   1  28
BRANCH  10  31
ATOM     31  O   UNL     1      -4.763   5.536  -0.423  0.00  0.00    -0.503 OA
ATOM     32  H   UNL     1      -4.869   5.769  -1.356  0.00  0.00    +0.292 HD
ENDBRANCH  10  31
TORSDOF 6
