REMARK  Name = ZINC13978495
REMARK  11 active torsions:
REMARK  status: ('A' for Active; 'I' for Inactive)
REMARK    1  A    between atoms: C_1  and  C_2
REMARK    2  A    between atoms: C_5  and  C_7
REMARK    3  A    between atoms: C_8  and  C_9
REMARK    4  A    between atoms: N_11  and  C_12
REMARK    5  A    between atoms: C_12  and  N_14
REMARK    6  A    between atoms: N_14  and  N_15
REMARK    7  A    between atoms: C_16  and  C_18
REMARK    8  A    between atoms: C_18  and  C_19
REMARK    9  A    between atoms: C_19  and  C_20
REMARK   10  A    between atoms: N_22  and  C_23
REMARK   11  A    between atoms: C_28  and  C_29
REMARK                            x       y       z     vdW  Elec       q    Type
REMARK                         _______ _______ _______ _____ _____    ______ ____
ROOT
ATOM      1  N   UNL     1      -2.650   8.308  -0.463  0.00  0.00    -0.235 N 
ATOM      2  C   UNL     1      -1.478   7.647  -0.375  0.00  0.00    +0.230 C 
ATOM      3  O   UNL     1      -0.433   8.263  -0.382  0.00  0.00    -0.274 OA
ATOM      4  H   UNL     1      -3.486   7.816  -0.458  0.00  0.00    +0.173 HD
ENDROOT
BRANCH   1   5
ATOM      5  N   UNL     1      -2.660   9.706  -0.561  0.00  0.00    -0.246 N 
ATOM      6  H   UNL     1      -1.824  10.198  -0.566  0.00  0.00    +0.172 HD
BRANCH   5   7
ATOM      7  C   UNL     1      -3.832  10.366  -0.649  0.00  0.00    +0.153 C 
ATOM      8  S   UNL     1      -3.844  12.074  -0.769  0.00  0.00    -0.017 S 
BRANCH   7  11
ATOM      9  C   UNL     1      -6.164  10.343  -0.729  0.00  0.00    +0.242 C 
ATOM     10  O   UNL     1      -6.173  11.558  -0.814  0.00  0.00    -0.270 OA
ATOM     11  N   UNL     1      -4.993   9.683  -0.641  0.00  0.00    -0.263 N 
ATOM     12  H   UNL     1      -4.986   8.715  -0.573  0.00  0.00    +0.157 HD
BRANCH   9  14
ATOM     13  C   UNL     1      -8.562  10.291  -0.809  0.00  0.00    +0.051 C 
ATOM     14  C   UNL     1      -7.383   9.626  -0.721  0.00  0.00    +0.071 C 
BRANCH  13  19
ATOM     15  C   UNL     1     -11.774   6.515  -0.655  0.00  0.00    +0.086 C 
ATOM     16  C   UNL     1     -11.217   7.913  -0.735  0.00  0.00    +0.103 A 
ATOM     17  C   UNL     1     -11.948   9.044  -0.840  0.00  0.00    +0.045 A 
ATOM     18  C   UNL     1     -11.047  10.119  -0.879  0.00  0.00    +0.049 A 
ATOM     19  C   UNL     1      -9.782   9.573  -0.802  0.00  0.00    +0.128 A 
ATOM     20  O   UNL     1      -9.916   8.234  -0.712  0.00  0.00    -0.461 OA
ENDBRANCH  13  19
ENDBRANCH   9  14
ENDBRANCH   7  11
ENDBRANCH   5   7
ENDBRANCH   1   5
BRANCH   2  21
ATOM     21  C   UNL     1      -1.467   6.144  -0.270  0.00  0.00    +0.106 C 
BRANCH  21  22
ATOM     22  C   UNL     1      -0.022   5.650  -0.184  0.00  0.00    +0.105 C 
BRANCH  22  23
ATOM     23  C   UNL     1      -0.011   4.146  -0.078  0.00  0.00    +0.218 C 
ATOM     24  O   UNL     1      -1.056   3.531  -0.072  0.00  0.00    -0.275 OA
ATOM     25  N   UNL     1       1.161   3.486   0.009  0.00  0.00    -0.285 N 
ATOM     26  H   UNL     1       1.992   3.980   0.085  0.00  0.00    +0.155 HD
BRANCH  25  27
ATOM     27  C   UNL     1       1.178   2.087  -0.009  0.00  0.00    +0.038 A 
ATOM     28  C   UNL     1       0.141   1.386  -0.611  0.00  0.00    +0.023 A 
ATOM     29  C   UNL     1       0.161   0.005  -0.628  0.00  0.00    +0.003 A 
ATOM     30  C   UNL     1       1.211  -0.680  -0.047  0.00  0.00    +0.020 A 
ATOM     31  C   UNL     1       2.246   0.014   0.554  0.00  0.00    +0.046 A 
ATOM     32  C   UNL     1       2.232   1.397   0.574  0.00  0.00    -0.011 A 
ATOM     33  C   UNL     1       3.359   2.153   1.228  0.00  0.00    +0.047 C 
ATOM     34 CL   UNL     1       3.563  -0.850   1.283  0.00  0.00    -0.083 Cl
ENDBRANCH  25  27
ENDBRANCH  22  23
ENDBRANCH  21  22
ENDBRANCH   2  21
TORSDOF 9
