REMARK  Name = ZINC00194737
REMARK  8 active torsions:
REMARK  status: ('A' for Active; 'I' for Inactive)
REMARK    1  A    between atoms: C_1  and  C_2
REMARK    2  A    between atoms: C_2  and  N_3
REMARK    3  A    between atoms: C_6  and  C_8
REMARK    4  A    between atoms: C_9  and  C_17
REMARK    5  A    between atoms: C_11  and  C_15
REMARK    6  A    between atoms: C_12  and  N_14
REMARK    7  A    between atoms: C_17  and  C_18
REMARK    8  A    between atoms: C_17  and  C_19
REMARK                            x       y       z     vdW  Elec       q    Type
REMARK                         _______ _______ _______ _____ _____    ______ ____
ROOT
ATOM      1  N   UNL     1       1.546   3.295   0.266  0.00  0.00    -0.233 N 
ATOM      2  C   UNL     1       1.245   2.009   0.021  0.00  0.00    +0.225 A 
ATOM      3  C   UNL     1       2.412   1.361  -0.272  0.00  0.00    +0.045 A 
ATOM      4  C   UNL     1       3.447   2.283  -0.201  0.00  0.00    +0.067 A 
ATOM      5  N   UNL     1       2.934   3.447   0.122  0.00  0.00    -0.173 NA
ATOM      6  C   UNL     1       4.905   1.998  -0.450  0.00  0.00    +0.068 C 
ATOM      7  C   UNL     1       2.464  -0.108  -0.605  0.00  0.00    +0.074 C 
ATOM      8  C   UNL     1       1.128  -0.717  -0.260  0.00  0.00    +0.094 C 
ATOM      9  C   UNL     1       0.042   0.033   0.027  0.00  0.00    +0.200 C 
ATOM     10  O   UNL     1       0.042   1.382   0.038  0.00  0.00    -0.423 OA
ENDROOT
BRANCH   9  11
ATOM     11  N   UNL     1      -1.131  -0.615   0.325  0.00  0.00    -0.328 N 
ATOM     12  H   UNL     1      -1.928  -0.103   0.535  0.00  0.00    +0.145 HD
ATOM     13  H   UNL     1      -1.163  -1.584   0.325  0.00  0.00    +0.145 HD
ENDBRANCH   9  11
BRANCH   7  14
ATOM     14  C   UNL     1       2.744  -0.290  -2.098  0.00  0.00    -0.004 C 
ATOM     15  C   UNL     1       2.918  -1.778  -2.407  0.00  0.00    +0.008 C 
ATOM     16  C   UNL     1       1.571   0.265  -2.908  0.00  0.00    +0.008 C 
ENDBRANCH   7  14
BRANCH   1  18
ATOM     17  C   UNL     1       0.084   5.026  -0.655  0.00  0.00    +0.029 C 
ATOM     18  C   UNL     1       0.594   4.351   0.620  0.00  0.00    +0.144 C 
ENDBRANCH   1  18
BRANCH   8  19
ATOM     19  C   UNL     1       1.006  -2.144  -0.235  0.00  0.00    +0.100 C 
ATOM     20  N   UNL     1       0.910  -3.276  -0.216  0.00  0.00    -0.191 NA
ENDBRANCH   8  19
TORSDOF 4
