REMARK  Name = ZINC09724868
REMARK  5 active torsions:
REMARK  status: ('A' for Active; 'I' for Inactive)
REMARK    1  A    between atoms: C_13  and  N_14
REMARK    2  A    between atoms: C_15  and  C_17
REMARK    3  A    between atoms: C_17  and  O_18
REMARK    4  A    between atoms: O_18  and  C_19
REMARK    5  A    between atoms: C_19  and  C_21
REMARK                            x       y       z     vdW  Elec       q    Type
REMARK                         _______ _______ _______ _____ _____    ______ ____
ROOT
ATOM      1  N   UNL     1       4.335  -0.837  -1.268  0.00  0.00    -0.302 N 
ATOM      2  C   UNL     1       5.631  -1.208  -1.274  0.00  0.00    +0.251 C 
ATOM      3  O   UNL     1       6.124  -1.708  -0.286  0.00  0.00    -0.272 OA
ATOM      4  H   UNL     1       3.941  -0.437  -2.058  0.00  0.00    +0.150 HD
ENDROOT
BRANCH   1  17
ATOM      5  C   UNL     1      -0.058   1.259  -0.010  0.00  0.00    +0.001 A 
ATOM      6  C   UNL     1       1.122   1.981  -0.003  0.00  0.00    +0.000 A 
ATOM      7  C   UNL     1       2.338   1.322  -0.019  0.00  0.00    +0.006 A 
ATOM      8  C   UNL     1       2.377  -0.057  -0.043  0.00  0.00    -0.015 A 
ATOM      9  C   UNL     1       1.194  -0.792  -0.050  0.00  0.00    -0.012 A 
ATOM     10  C   UNL     1      -0.029  -0.120  -0.034  0.00  0.00    +0.009 A 
ATOM     11  C   UNL     1       1.514  -2.241  -0.077  0.00  0.00    -0.012 A 
ATOM     12  C   UNL     1       0.685  -3.365  -0.093  0.00  0.00    +0.009 A 
ATOM     13  C   UNL     1       1.239  -4.628  -0.117  0.00  0.00    +0.001 A 
ATOM     14  C   UNL     1       2.613  -4.787  -0.127  0.00  0.00    +0.000 A 
ATOM     15  C   UNL     1       3.440  -3.677  -0.111  0.00  0.00    +0.006 A 
ATOM     16  C   UNL     1       2.895  -2.411  -0.087  0.00  0.00    -0.015 A 
ATOM     17  C   UNL     1       3.522  -1.038  -0.066  0.00  0.00    +0.135 C 
ENDBRANCH   1  17
BRANCH   2  18
ATOM     18  C   UNL     1       6.468  -1.001  -2.511  0.00  0.00    +0.328 C 
BRANCH  18  19
ATOM     19  O   UNL     1       7.796  -1.470  -2.271  0.00  0.00    -0.451 OA
BRANCH  19  20
ATOM     20  C   UNL     1       8.677  -1.357  -3.285  0.00  0.00    +0.362 C 
ATOM     21  O   UNL     1       8.327  -0.872  -4.343  0.00  0.00    -0.243 OA
BRANCH  20  22
ATOM     22  C   UNL     1      10.067  -1.821  -3.110  0.00  0.00    +0.187 A 
ATOM     23  C   UNL     1      10.956  -1.813  -4.197  0.00  0.00    +0.149 A 
ATOM     24  N   UNL     1      12.205  -2.233  -4.028  0.00  0.00    -0.237 NA
ATOM     25  C   UNL     1      12.605  -2.654  -2.842  0.00  0.00    +0.132 A 
ATOM     26  C   UNL     1      11.726  -2.662  -1.768  0.00  0.00    +0.131 A 
ATOM     27  N   UNL     1      10.486  -2.243  -1.920  0.00  0.00    -0.244 NA
ATOM     28  N   UNL     1      10.534  -1.371  -5.437  0.00  0.00    -0.341 N 
ATOM     29  H   UNL     1       9.647  -0.993  -5.541  0.00  0.00    +0.144 HD
ATOM     30  H   UNL     1      11.124  -1.440  -6.204  0.00  0.00    +0.144 HD
ENDBRANCH  20  22
ENDBRANCH  19  20
ENDBRANCH  18  19
ENDBRANCH   2  18
TORSDOF 5
