REMARK  Name = ZINC20607197
REMARK  7 active torsions:
REMARK  status: ('A' for Active; 'I' for Inactive)
REMARK    1  A    between atoms: C_1  and  C_2
REMARK    2  A    between atoms: C_2  and  N_3
REMARK    3  A    between atoms: C_4  and  C_8
REMARK    4  A    between atoms: C_13  and  C_17
REMARK    5  A    between atoms: C_13  and  C_18
REMARK    6  A    between atoms: C_23  and  S_25
REMARK    7  A    between atoms: S_25  and  C_26
REMARK                            x       y       z     vdW  Elec       q    Type
REMARK                         _______ _______ _______ _____ _____    ______ ____
ROOT
ATOM      1  C   UNL     1       1.871   3.078  -0.009  0.00  0.00    +0.193 C 
ATOM      2  C   UNL     1       3.348   3.029   0.316  0.00  0.00    +0.042 C 
ATOM      3  C   UNL     1       4.048   1.875   0.301  0.00  0.00    +0.020 C 
ATOM      4  C   UNL     1       5.522   1.857   0.634  0.00  0.00    +0.058 C 
ATOM      5  C   UNL     1       6.161   3.182   0.213  0.00  0.00    -0.023 C 
ATOM      6  C   UNL     1       5.441   4.319   0.947  0.00  0.00    +0.086 C 
ATOM      7  C   UNL     1       3.972   4.248   0.636  0.00  0.00    +0.164 C 
ATOM      8  O   UNL     1       3.310   5.267   0.661  0.00  0.00    -0.292 OA
ATOM      9  C   UNL     1       6.012   3.369  -1.298  0.00  0.00    +0.011 C 
ATOM     10  C   UNL     1       7.643   3.182   0.590  0.00  0.00    +0.011 C 
ATOM     11  N   UNL     1       3.458   0.674  -0.011  0.00  0.00    -0.287 N 
ATOM     12  C   UNL     1       2.075   0.609  -0.008  0.00  0.00    +0.220 A 
ATOM     13  N   UNL     1       1.314   1.731  -0.001  0.00  0.00    -0.218 N 
ATOM     14  N   UNL     1      -0.016   1.312   0.009  0.00  0.00    -0.141 NA
ATOM     15  C   UNL     1       0.002  -0.004   0.002  0.00  0.00    +0.210 A 
ATOM     16  N   UNL     1       1.276  -0.423  -0.010  0.00  0.00    -0.187 NA
ATOM     17  H   UNL     1       4.082  -0.200  -0.252  0.00  0.00    +0.155 HD
ENDROOT
BRANCH   1  19
ATOM     18  N   UNL     1       0.652   4.479  -1.753  0.00  0.00    -0.266 N 
ATOM     19  C   UNL     1       1.679   3.690  -1.372  0.00  0.00    +0.068 A 
ATOM     20  C   UNL     1       2.502   3.543  -2.436  0.00  0.00    +0.047 A 
ATOM     21  C   UNL     1       1.963   4.271  -3.502  0.00  0.00    +0.134 A 
ATOM     22  N   UNL     1       0.855   4.835  -3.092  0.00  0.00    -0.179 NA
BRANCH  18  24
ATOM     23  C   UNL     1      -0.126   6.202  -0.201  0.00  0.00    +0.029 C 
ATOM     24  C   UNL     1      -0.474   4.893  -0.912  0.00  0.00    +0.140 C 
ENDBRANCH  18  24
ENDBRANCH   1  19
BRANCH  15  25
ATOM     25  S   UNL     1      -1.418  -1.047   0.008  0.00  0.00    -0.088 S 
ATOM     26  C   UNL     1      -0.731  -2.725  -0.007  0.00  0.00    +0.093 C 
ENDBRANCH  15  25
TORSDOF 3
