REMARK  Name = ZINC07049337
REMARK  6 active torsions:
REMARK  status: ('A' for Active; 'I' for Inactive)
REMARK    1  A    between atoms: C_1  and  C_2
REMARK    2  A    between atoms: C_4  and  N_27
REMARK    3  A    between atoms: C_6  and  S_8
REMARK    4  A    between atoms: S_8  and  C_9
REMARK    5  A    between atoms: C_9  and  C_10
REMARK    6  A    between atoms: N_12  and  C_13
REMARK                            x       y       z     vdW  Elec       q    Type
REMARK                         _______ _______ _______ _____ _____    ______ ____
ROOT
ATOM      1  C   UNL     1      -2.463  -0.220   0.505  0.00  0.00    +0.227 C 
ATOM      2  O   UNL     1      -1.476  -0.697   1.024  0.00  0.00    -0.275 OA
ATOM      3  N   UNL     1      -2.428   1.037   0.019  0.00  0.00    -0.285 N 
ATOM      4  H   UNL     1      -3.236   1.446  -0.326  0.00  0.00    +0.155 HD
ENDROOT
BRANCH   3   5
ATOM      5  C   UNL     1      -1.223   1.752   0.012  0.00  0.00    +0.037 A 
ATOM      6  C   UNL     1      -1.230   3.127   0.199  0.00  0.00    +0.027 A 
ATOM      7  C   UNL     1      -0.043   3.834   0.186  0.00  0.00    +0.051 A 
ATOM      8  C   UNL     1       1.158   3.172  -0.007  0.00  0.00    +0.167 A 
ATOM      9  C   UNL     1       1.170   1.791  -0.189  0.00  0.00    +0.169 A 
ATOM     10  C   UNL     1      -0.021   1.083  -0.177  0.00  0.00    +0.072 A 
ATOM     11  O   UNL     1       2.462   1.382  -0.357  0.00  0.00    -0.447 OA
ATOM     12  C   UNL     1       3.271   2.470   0.113  0.00  0.00    +0.254 C 
ATOM     13  O   UNL     1       2.445   3.631  -0.062  0.00  0.00    -0.448 OA
ATOM     14  C   UNL     1       4.538   2.590  -0.727  0.00  0.00    +0.093 C 
ATOM     15  C   UNL     1       5.389   1.329  -0.552  0.00  0.00    +0.008 C 
ATOM     16  C   UNL     1       5.750   1.161   0.925  0.00  0.00    +0.000 C 
ATOM     17  C   UNL     1       4.471   1.021   1.753  0.00  0.00    +0.008 C 
ATOM     18  C   UNL     1       3.616   2.280   1.585  0.00  0.00    +0.093 C 
ENDBRANCH   3   5
BRANCH   1  19
ATOM     19  C   UNL     1      -3.729  -1.031   0.405  0.00  0.00    +0.173 C 
BRANCH  19  20
ATOM     20  S   UNL     1      -3.460  -2.662   1.142  0.00  0.00    -0.077 S 
BRANCH  20  26
ATOM     21  C   UNL     1      -6.702  -6.593   1.619  0.00  0.00    +0.066 C 
ATOM     22  C   UNL     1      -6.461  -5.185   1.141  0.00  0.00    +0.044 A 
ATOM     23  C   UNL     1      -7.471  -4.475   0.522  0.00  0.00    +0.066 A 
ATOM     24  C   UNL     1      -7.205  -3.172   0.094  0.00  0.00    +0.121 A 
ATOM     25  N   UNL     1      -5.996  -2.660   0.300  0.00  0.00    -0.207 NA
ATOM     26  C   UNL     1      -5.052  -3.376   0.893  0.00  0.00    +0.191 A 
ATOM     27  N   UNL     1      -5.277  -4.614   1.310  0.00  0.00    -0.227 NA
BRANCH  24  28
ATOM     28  N   UNL     1      -8.188  -2.423  -0.531  0.00  0.00    -0.343 N 
ATOM     29  H   UNL     1      -9.070  -2.802  -0.674  0.00  0.00    +0.144 HD
ATOM     30  H   UNL     1      -7.996  -1.519  -0.825  0.00  0.00    +0.144 HD
ENDBRANCH  24  28
ENDBRANCH  20  26
ENDBRANCH  19  20
ENDBRANCH   1  19
TORSDOF 5
