REMARK  Name = ZINC15692214
REMARK  8 active torsions:
REMARK  status: ('A' for Active; 'I' for Inactive)
REMARK    1  A    between atoms: C_1  and  C_2
REMARK    2  A    between atoms: C_7  and  C_8
REMARK    3  A    between atoms: N_10  and  N_11
REMARK    4  A    between atoms: C_12  and  C_14
REMARK    5  A    between atoms: C_14  and  S_15
REMARK    6  A    between atoms: S_15  and  C_16
REMARK    7  A    between atoms: C_19  and  C_25
REMARK    8  A    between atoms: C_21  and  N_22
REMARK                            x       y       z     vdW  Elec       q    Type
REMARK                         _______ _______ _______ _____ _____    ______ ____
ROOT
ATOM      1  C   UNL     1       2.196  -1.015  -1.446  0.00  0.00    +0.171 C 
ENDROOT
BRANCH   1   3
ATOM      2  N   UNL     1       3.337  -3.163  -0.994  0.00  0.00    -0.233 N 
ATOM      3  C   UNL     1       3.437  -1.835  -1.202  0.00  0.00    +0.239 C 
ATOM      4  O   UNL     1       4.525  -1.300  -1.192  0.00  0.00    -0.273 OA
ATOM      5  H   UNL     1       2.466  -3.591  -1.002  0.00  0.00    +0.173 HD
BRANCH   2   8
ATOM      6  C   UNL     1       4.390  -5.253  -0.560  0.00  0.00    +0.260 C 
ATOM      7  O   UNL     1       3.299  -5.789  -0.569  0.00  0.00    -0.269 OA
ATOM      8  N   UNL     1       4.490  -3.925  -0.767  0.00  0.00    -0.230 N 
ATOM      9  H   UNL     1       5.360  -3.497  -0.760  0.00  0.00    +0.173 HD
BRANCH   6  16
ATOM     10  C   UNL     1       4.142  -8.049   0.142  0.00  0.00    +0.044 C 
ATOM     11  C   UNL     1       5.500  -7.407   0.019  0.00  0.00    -0.038 A 
ATOM     12  C   UNL     1       6.640  -8.152   0.241  0.00  0.00    +0.004 A 
ATOM     13  C   UNL     1       7.887  -7.564   0.128  0.00  0.00    +0.000 A 
ATOM     14  C   UNL     1       8.000  -6.226  -0.208  0.00  0.00    +0.001 A 
ATOM     15  C   UNL     1       6.869  -5.472  -0.438  0.00  0.00    +0.013 A 
ATOM     16  C   UNL     1       5.607  -6.057  -0.320  0.00  0.00    +0.041 A 
ENDBRANCH   6  16
ENDBRANCH   2   8
ENDBRANCH   1   3
BRANCH   1  17
ATOM     17  S   UNL     1       2.657   0.723  -1.688  0.00  0.00    -0.114 S 
BRANCH  17  18
ATOM     18  C   UNL     1       1.119   1.539  -1.958  0.00  0.00    +0.039 A 
ATOM     19  C   UNL     1      -0.067   0.808  -1.944  0.00  0.00    +0.018 A 
ATOM     20  C   UNL     1      -1.262   1.435  -2.157  0.00  0.00    +0.014 A 
ATOM     21  C   UNL     1      -1.299   2.815  -2.380  0.00  0.00    +0.039 A 
ATOM     22  C   UNL     1      -0.110   3.550  -2.395  0.00  0.00    +0.047 A 
ATOM     23  C   UNL     1       1.091   2.913  -2.184  0.00  0.00    +0.140 A 
BRANCH  21  24
ATOM     24  C   UNL     1      -2.590   3.492  -2.606  0.00  0.00    +0.242 C 
ATOM     25  O   UNL     1      -2.620   4.691  -2.804  0.00  0.00    -0.270 OA
ATOM     26  N   UNL     1      -3.735   2.782  -2.591  0.00  0.00    -0.325 N 
ATOM     27  H   UNL     1      -3.710   1.825  -2.433  0.00  0.00    +0.145 HD
ATOM     28  H   UNL     1      -4.584   3.227  -2.739  0.00  0.00    +0.145 HD
ENDBRANCH  21  24
BRANCH  23  29
ATOM     29  N   UNL     1       2.353   3.687  -2.199  0.00  0.00    +0.058 N 
ATOM     30  O   UNL     1       2.328   4.888  -2.397  0.00  0.00    -0.126 OA
ATOM     31  O   UNL     1       3.416   3.122  -2.012  0.00  0.00    -0.126 OA
ENDBRANCH  23  29
ENDBRANCH  17  18
ENDBRANCH   1  17
TORSDOF 7
