REMARK  Name = ZINC27546185
REMARK  6 active torsions:
REMARK  status: ('A' for Active; 'I' for Inactive)
REMARK    1  A    between atoms: C_1  and  C_2
REMARK    2  A    between atoms: C_7  and  N_8
REMARK    3  A    between atoms: N_8  and  C_9
REMARK    4  A    between atoms: C_9  and  C_11
REMARK    5  A    between atoms: C_11  and  N_12
REMARK    6  A    between atoms: N_12  and  N_13
REMARK                            x       y       z     vdW  Elec       q    Type
REMARK                         _______ _______ _______ _____ _____    ______ ____
ROOT
ATOM      1  N   UNL     1      -0.100   0.964  -0.889  0.00  0.00    -0.250 N 
ATOM      2  C   UNL     1       1.026   1.637  -1.320  0.00  0.00    +0.212 A 
ATOM      3  N   UNL     1       0.932   2.902  -1.717  0.00  0.00    -0.299 N 
ATOM      4  C   UNL     1       2.017   3.552  -2.127  0.00  0.00    +0.201 A 
ATOM      5  N   UNL     1       3.194   2.933  -2.149  0.00  0.00    -0.182 NA
ATOM      6  C   UNL     1       3.286   1.666  -1.758  0.00  0.00    +0.224 A 
ATOM      7  N   UNL     1       2.202   1.018  -1.343  0.00  0.00    -0.181 NA
ATOM      8  N   UNL     1       4.507   1.024  -1.782  0.00  0.00    -0.299 N 
ATOM      9  C   UNL     1       5.471   1.679  -0.861  0.00  0.00    +0.108 C 
ATOM     10  C   UNL     1       6.533   0.578  -0.616  0.00  0.00    +0.020 C 
ATOM     11  C   UNL     1       5.684  -0.713  -0.560  0.00  0.00    +0.020 C 
ATOM     12  C   UNL     1       4.381  -0.371  -1.307  0.00  0.00    +0.108 C 
ATOM     13  N   UNL     1       1.921   4.868  -2.533  0.00  0.00    -0.301 N 
ATOM     14  C   UNL     1       2.293   5.011  -3.964  0.00  0.00    +0.108 C 
ATOM     15  C   UNL     1       1.643   6.359  -4.365  0.00  0.00    +0.020 C 
ATOM     16  C   UNL     1       0.307   6.344  -3.586  0.00  0.00    +0.020 C 
ATOM     17  C   UNL     1       0.529   5.355  -2.427  0.00  0.00    +0.108 C 
ATOM     18  H   UNL     1      -0.023  -0.083  -0.561  0.00  0.00    +0.169 HD
ATOM     19  H   UNL     1      -0.043   3.412  -1.706  0.00  0.00    +0.171 HD
ENDROOT
BRANCH   1  20
ATOM     20  N   UNL     1      -1.310   1.598  -0.871  0.00  0.00    -0.234 NA
ATOM     21  H   UNL     1      -1.538   1.968  -1.782  0.00  0.00    +0.145 HD
BRANCH  20  22
ATOM     22  C   UNL     1      -2.367   0.701  -0.387  0.00  0.00    +0.160 C 
BRANCH  22  23
ATOM     23  C   UNL     1      -3.684   1.434  -0.380  0.00  0.00    +0.069 C 
ATOM     24  S   UNL     1      -3.753   2.958  -0.859  0.00  0.00    -0.039 S 
BRANCH  23  25
ATOM     25  N   UNL     1      -4.803   0.805   0.029  0.00  0.00    -0.311 N 
ATOM     26  H   UNL     1      -4.774  -0.268   0.273  0.00  0.00    +0.152 HD
BRANCH  25  33
ATOM     27  C   UNL     1      -7.172  -0.381  -1.009  0.00  0.00    +0.045 C 
ATOM     28  C   UNL     1      -7.182   0.974  -0.349  0.00  0.00    -0.029 A 
ATOM     29  C   UNL     1      -8.365   1.678  -0.233  0.00  0.00    +0.005 A 
ATOM     30  C   UNL     1      -8.375   2.920   0.373  0.00  0.00    +0.000 A 
ATOM     31  C   UNL     1      -7.202   3.462   0.866  0.00  0.00    +0.002 A 
ATOM     32  C   UNL     1      -6.017   2.762   0.757  0.00  0.00    +0.023 A 
ATOM     33  C   UNL     1      -6.002   1.515   0.144  0.00  0.00    +0.034 A 
ENDBRANCH  25  33
ENDBRANCH  23  25
ENDBRANCH  22  23
ENDBRANCH  20  22
ENDBRANCH   1  20
TORSDOF 5
