REMARK  Name = ZINC31118914
REMARK  15 active torsions:
REMARK  status: ('A' for Active; 'I' for Inactive)
REMARK    1  A    between atoms: C_1  and  C_2
REMARK    2  A    between atoms: C_7  and  C_8
REMARK    3  A    between atoms: N_10  and  C_11
REMARK    4  A    between atoms: C_11  and  C_13
REMARK    5  A    between atoms: C_11  and  C_17
REMARK    6  A    between atoms: C_13  and  C_14
REMARK    7  A    between atoms: C_14  and  C_15
REMARK    8  A    between atoms: C_14  and  C_16
REMARK    9  A    between atoms: N_19  and  C_20
REMARK   10  A    between atoms: C_20  and  C_21
REMARK   11  A    between atoms: C_21  and  C_22
REMARK   12  A    between atoms: C_22  and  C_23
REMARK   13  A    between atoms: C_24  and  C_36
REMARK   14  A    between atoms: C_25  and  N_35
REMARK   15  A    between atoms: N_26  and  C_28
REMARK                            x       y       z     vdW  Elec       q    Type
REMARK                         _______ _______ _______ _____ _____    ______ ____
ROOT
ATOM      1  C   UNL     1      -1.147   2.295  -5.131  0.00  0.00    +0.233 C 
ATOM      2  O   UNL     1      -0.503   1.291  -5.349  0.00  0.00    -0.274 OA
ATOM      3  N   UNL     1      -1.446   2.642  -3.863  0.00  0.00    -0.314 N 
ATOM      4  H   UNL     1      -2.030   3.553  -3.665  0.00  0.00    +0.149 HD
ENDROOT
BRANCH   1   5
ATOM      5  C   UNL     1      -1.613   3.155  -6.277  0.00  0.00    +0.159 C 
BRANCH   5   8
ATOM      6  C   UNL     1      -1.926   2.803  -8.668  0.00  0.00    +0.245 C 
ATOM      7  O   UNL     1      -2.914   3.509  -8.614  0.00  0.00    -0.270 OA
ATOM      8  N   UNL     1      -1.233   2.528  -7.545  0.00  0.00    -0.300 N 
ATOM      9  H   UNL     1      -0.382   1.832  -7.581  0.00  0.00    +0.150 HD
BRANCH   6  16
ATOM     10  C   UNL     1      -3.555   3.202 -11.025  0.00  0.00    +0.044 C 
ATOM     11  C   UNL     1      -2.261   2.432 -11.108  0.00  0.00    -0.038 A 
ATOM     12  C   UNL     1      -1.843   1.910 -12.315  0.00  0.00    +0.004 A 
ATOM     13  C   UNL     1      -0.656   1.205 -12.393  0.00  0.00    +0.000 A 
ATOM     14  C   UNL     1       0.119   1.017 -11.262  0.00  0.00    +0.001 A 
ATOM     15  C   UNL     1      -0.285   1.537 -10.051  0.00  0.00    +0.013 A 
ATOM     16  C   UNL     1      -1.484   2.246  -9.964  0.00  0.00    +0.040 A 
ENDBRANCH   6  16
ENDBRANCH   5   8
BRANCH   5  17
ATOM     17  C   UNL     1      -0.962   4.536  -6.176  0.00  0.00    +0.034 C 
BRANCH  17  18
ATOM     18  C   UNL     1       0.549   4.404  -6.379  0.00  0.00    -0.015 C 
ATOM     19  C   UNL     1       1.174   5.796  -6.481  0.00  0.00    +0.007 C 
ATOM     20  C   UNL     1       1.160   3.656  -5.192  0.00  0.00    +0.007 C 
ENDBRANCH  17  18
ENDBRANCH   5  17
ENDBRANCH   1   5
BRANCH   3  21
ATOM     21  C   UNL     1      -0.993   1.805  -2.749  0.00  0.00    +0.104 C 
BRANCH  21  22
ATOM     22  C   UNL     1      -1.462   2.418  -1.428  0.00  0.00    +0.025 C 
BRANCH  22  23
ATOM     23  C   UNL     1      -0.989   1.544  -0.264  0.00  0.00    +0.060 C 
BRANCH  23  24
ATOM     24  C   UNL     1      -1.451   2.148   1.037  0.00  0.00    +0.083 A 
ATOM     25  C   UNL     1      -2.674   1.872   1.691  0.00  0.00    +0.114 A 
ATOM     26  C   UNL     1      -2.697   2.637   2.853  0.00  0.00    +0.138 A 
ATOM     27  N   UNL     1      -1.541   3.337   2.891  0.00  0.00    -0.217 N 
ATOM     28  N   UNL     1      -0.789   3.010   1.757  0.00  0.00    -0.168 NA
BRANCH  27  29
ATOM     29  C   UNL     1      -1.158   4.235   3.897  0.00  0.00    +0.068 A 
ATOM     30  C   UNL     1      -2.112   5.026   4.522  0.00  0.00    +0.030 A 
ATOM     31  C   UNL     1      -1.734   5.907   5.516  0.00  0.00    +0.040 A 
ATOM     32  C   UNL     1      -0.403   6.009   5.883  0.00  0.00    +0.124 A 
ATOM     33  C   UNL     1       0.551   5.224   5.257  0.00  0.00    +0.040 A 
ATOM     34  C   UNL     1       0.176   4.339   4.266  0.00  0.00    +0.030 A 
ATOM     35  F   UNL     1      -0.034   6.875   6.851  0.00  0.00    -0.205 F 
ENDBRANCH  27  29
BRANCH  26  36
ATOM     36  N   UNL     1      -3.710   2.675   3.792  0.00  0.00    -0.342 N 
ATOM     37  H   UNL     1      -3.616   3.322   4.677  0.00  0.00    +0.144 HD
ATOM     38  H   UNL     1      -4.610   2.057   3.655  0.00  0.00    +0.144 HD
ENDBRANCH  26  36
BRANCH  25  39
ATOM     39  C   UNL     1      -3.696   0.974   1.242  0.00  0.00    +0.104 C 
ATOM     40  N   UNL     1      -4.507   0.262   0.886  0.00  0.00    -0.191 NA
ENDBRANCH  25  39
ENDBRANCH  23  24
ENDBRANCH  22  23
ENDBRANCH  21  22
ENDBRANCH   3  21
TORSDOF 12
