REMARK  Name = ZINC13035242
REMARK  7 active torsions:
REMARK  status: ('A' for Active; 'I' for Inactive)
REMARK    1  A    between atoms: C_1  and  C_2
REMARK    2  A    between atoms: C_5  and  C_22
REMARK    3  A    between atoms: C_6  and  O_8
REMARK    4  A    between atoms: O_8  and  C_9
REMARK    5  A    between atoms: C_9  and  C_10
REMARK    6  A    between atoms: C_14  and  C_21
REMARK    7  A    between atoms: C_17  and  C_20
REMARK                            x       y       z     vdW  Elec       q    Type
REMARK                         _______ _______ _______ _____ _____    ______ ____
ROOT
ATOM      1  O   UNL     1       3.628   3.005  -0.015  0.00  0.00    -0.482 OA
ENDROOT
BRANCH   1   7
ATOM      2  C   UNL     1       1.398   7.341   0.028  0.00  0.00    +0.044 C 
ATOM      3  C   UNL     1       1.345   5.835   0.020  0.00  0.00    -0.047 A 
ATOM      4  C   UNL     1       0.119   5.189   0.028  0.00  0.00    +0.004 A 
ATOM      5  C   UNL     1       0.059   3.813   0.016  0.00  0.00    +0.019 A 
ATOM      6  C   UNL     1       1.238   3.064   0.007  0.00  0.00    +0.105 A 
ATOM      7  C   UNL     1       2.476   3.721  -0.002  0.00  0.00    +0.136 A 
ATOM      8  C   UNL     1       2.518   5.108   0.005  0.00  0.00    +0.050 A 
BRANCH   6   9
ATOM      9  C   UNL     1       1.181   1.591  -0.001  0.00  0.00    +0.390 C 
ATOM     10  O   UNL     1       2.209   0.943  -0.014  0.00  0.00    -0.240 OA
ATOM     11  O   UNL     1      -0.011   0.963   0.007  0.00  0.00    -0.240 OA
ENDBRANCH   6   9
ENDBRANCH   1   7
BRANCH   1  12
ATOM     12  C   UNL     1       4.851   3.744  -0.023  0.00  0.00    +0.324 C 
BRANCH  12  13
ATOM     13  C   UNL     1       6.016   2.788  -0.038  0.00  0.00    +0.253 C 
ATOM     14  O   UNL     1       5.818   1.591  -0.042  0.00  0.00    -0.272 OA
ATOM     15  N   UNL     1       7.277   3.262  -0.048  0.00  0.00    -0.298 N 
ATOM     16  C   UNL     1       8.423   2.342  -0.063  0.00  0.00    +0.111 C 
ATOM     17  C   UNL     1       9.357   2.699   1.098  0.00  0.00    +0.004 C 
ATOM     18  C   UNL     1       9.738   4.178   1.004  0.00  0.00    +0.009 C 
ATOM     19  C   UNL     1       8.477   5.039   1.116  0.00  0.00    +0.004 C 
ATOM     20  C   UNL     1       7.533   4.709  -0.050  0.00  0.00    +0.111 C 
ATOM     21  C   UNL     1       8.863   6.519   1.056  0.00  0.00    +0.009 C 
ATOM     22  C   UNL     1      10.621   1.840   1.019  0.00  0.00    +0.009 C 
ENDBRANCH  12  13
ENDBRANCH   1  12
TORSDOF 4
