REMARK  Name = ZINC14966597
REMARK  6 active torsions:
REMARK  status: ('A' for Active; 'I' for Inactive)
REMARK    1  A    between atoms: C_4  and  C_7
REMARK    2  A    between atoms: C_7  and  C_9
REMARK    3  A    between atoms: C_7  and  N_16
REMARK    4  A    between atoms: C_17  and  C_19
REMARK    5  A    between atoms: C_22  and  C_27
REMARK    6  A    between atoms: C_27  and  N_54
REMARK                            x       y       z     vdW  Elec       q    Type
REMARK                         _______ _______ _______ _____ _____    ______ ____
ROOT
ATOM      1  N   UNL     1       1.312   1.599  -0.323  0.00  0.00    -0.300 N 
ATOM      2  C   UNL     1       0.067   1.109  -0.159  0.00  0.00    +0.250 C 
ATOM      3  O   UNL     1      -0.106  -0.090  -0.055  0.00  0.00    -0.270 OA
ATOM      4  H   UNL     1       1.444   2.547  -0.478  0.00  0.00    +0.150 HD
ENDROOT
BRANCH   2   5
ATOM      5  C   UNL     1      -1.083   2.025  -0.112  0.00  0.00    +0.101 A 
ATOM      6  C   UNL     1      -2.360   1.546   0.172  0.00  0.00    +0.020 A 
ATOM      7  C   UNL     1      -3.426   2.444   0.207  0.00  0.00    +0.020 A 
ATOM      8  C   UNL     1      -3.214   3.764  -0.032  0.00  0.00    +0.003 A 
ATOM      9  N   UNL     1      -1.975   4.236  -0.309  0.00  0.00    -0.327 N 
ATOM     10  H   UNL     1      -1.853   5.184  -0.476  0.00  0.00    +0.169 HD
ATOM     11  C   UNL     1      -0.911   3.413  -0.350  0.00  0.00    +0.261 A 
ATOM     12  O   UNL     1       0.197   3.858  -0.595  0.00  0.00    -0.267 OA
BRANCH   8  13
ATOM     13  C   UNL     1      -4.378   4.720   0.011  0.00  0.00    -0.025 C 
BRANCH  13  18
ATOM     14  C   UNL     1      -5.284   6.675   1.145  0.00  0.00    -0.078 C 
ATOM     15  C   UNL     1      -5.228   7.216   2.596  0.00  0.00    -0.020 C 
ATOM     16  C   UNL     1      -4.889   5.955   3.423  0.00  0.00    -0.020 C 
ATOM     17  C   UNL     1      -4.240   4.981   2.423  0.00  0.00    -0.078 C 
ATOM     18  N   UNL     1      -4.197   5.682   1.139  0.00  0.00    +0.383 N 
ATOM     19  H   UNL     1      -3.293   6.158   1.034  0.00  0.00    -0.081 HD
ENDBRANCH  13  18
ENDBRANCH   8  13
ENDBRANCH   2   5
BRANCH   1  20
ATOM     20  C   UNL     1       2.466   0.698  -0.267  0.00  0.00    +0.134 C 
BRANCH  20  21
ATOM     21  C   UNL     1       3.692   1.477   0.135  0.00  0.00    -0.023 A 
ATOM     22  C   UNL     1       3.904   2.744  -0.377  0.00  0.00    +0.007 A 
ATOM     23  C   UNL     1       5.025   3.461  -0.004  0.00  0.00    +0.020 A 
ATOM     24  C   UNL     1       5.941   2.907   0.872  0.00  0.00    +0.041 A 
ATOM     25  C   UNL     1       5.731   1.637   1.380  0.00  0.00    +0.020 A 
ATOM     26  C   UNL     1       4.606   0.923   1.011  0.00  0.00    +0.007 A 
ATOM     27 CL   UNL     1       7.353   3.804   1.335  0.00  0.00    -0.084 Cl
ENDBRANCH  20  21
BRANCH  20  31
ATOM     28  C   UNL     1       3.091  -1.058  -4.110  0.00  0.00    +0.000 A 
ATOM     29  C   UNL     1       3.245  -1.821  -2.968  0.00  0.00    +0.000 A 
ATOM     30  C   UNL     1       3.043  -1.253  -1.725  0.00  0.00    +0.006 A 
ATOM     31  C   UNL     1       2.687   0.079  -1.623  0.00  0.00    -0.023 A 
ATOM     32  C   UNL     1       2.528   0.841  -2.765  0.00  0.00    +0.006 A 
ATOM     33  C   UNL     1       2.735   0.274  -4.009  0.00  0.00    +0.000 A 
ENDBRANCH  20  31
ENDBRANCH   1  20
TORSDOF 6
