REMARK  Name = ZINC37556295
REMARK  7 active torsions:
REMARK  status: ('A' for Active; 'I' for Inactive)
REMARK    1  A    between atoms: C_1  and  C_2
REMARK    2  A    between atoms: C_2  and  C_4
REMARK    3  A    between atoms: C_2  and  N_10
REMARK    4  A    between atoms: N_10  and  S_11
REMARK    5  A    between atoms: S_11  and  C_14
REMARK    6  A    between atoms: C_15  and  N_22
REMARK    7  A    between atoms: N_22  and  N_23
REMARK                            x       y       z     vdW  Elec       q    Type
REMARK                         _______ _______ _______ _____ _____    ______ ____
ROOT
ATOM      1  C   UNL     1       3.183   0.638   0.757  0.00  0.00    +0.222 A 
ATOM      2  C   UNL     1       3.465   1.135  -0.465  0.00  0.00    +0.179 A 
ATOM      3  N   UNL     1       4.131   2.292  -0.306  0.00  0.00    -0.203 NA
ATOM      4  C   UNL     1       4.272   2.529   0.967  0.00  0.00    +0.181 A 
ATOM      5  N   UNL     1       3.694   1.530   1.704  0.00  0.00    -0.276 N 
ATOM      6  C   UNL     1       3.759   1.647   3.075  0.00  0.00    +0.102 A 
ATOM      7  C   UNL     1       4.358   2.693   3.642  0.00  0.00    +0.067 A 
ATOM      8  S   UNL     1       4.906   3.621   2.218  0.00  0.00    -0.058 S 
ENDROOT
BRANCH   1   9
ATOM      9  S   UNL     1       2.322  -0.861   1.097  0.00  0.00    +0.078 S 
ATOM     10  O   UNL     1       2.719  -1.271   2.398  0.00  0.00    -0.151 OA
ATOM     11  O   UNL     1       2.483  -1.690  -0.045  0.00  0.00    -0.151 OA
BRANCH   9  12
ATOM     12  N   UNL     1       0.711  -0.489   1.189  0.00  0.00    -0.183 NA
ATOM     13  H   UNL     1       0.236  -0.593   2.029  0.00  0.00    +0.148 HD
BRANCH  12  15
ATOM     14  C   UNL     1      -0.019   1.526   0.010  0.00  0.00    +0.028 C 
ATOM     15  C   UNL     1       0.002  -0.004   0.002  0.00  0.00    +0.102 C 
BRANCH  15  16
ATOM     16  C   UNL     1      -1.433  -0.534   0.013  0.00  0.00    +0.137 C 
ATOM     17  C   UNL     1      -1.437  -2.075   0.166  0.00  0.00    +0.035 C 
ATOM     18  C   UNL     1      -2.841  -2.307   0.788  0.00  0.00    +0.031 C 
ATOM     19  C   UNL     1      -3.022  -1.050   1.665  0.00  0.00    +0.160 C 
ATOM     20  O   UNL     1      -2.139  -0.039   1.162  0.00  0.00    -0.375 OA
ENDBRANCH  15  16
ENDBRANCH  12  15
ENDBRANCH   9  12
ENDBRANCH   1   9
BRANCH   2  21
ATOM     21  N   UNL     1       3.121   0.546  -1.692  0.00  0.00    -0.265 N 
ATOM     22  H   UNL     1       2.638  -0.294  -1.708  0.00  0.00    +0.168 HD
BRANCH  21  23
ATOM     23  N   UNL     1       3.468   1.157  -2.864  0.00  0.00    -0.255 NA
ATOM     24  H   UNL     1       4.463   1.319  -2.906  0.00  0.00    +0.140 HD
ATOM     25  H   UNL     1       3.155   0.619  -3.658  0.00  0.00    +0.140 HD
ENDBRANCH  21  23
ENDBRANCH   2  21
TORSDOF 6
