REMARK  Name = ZINC23332312
REMARK  11 active torsions:
REMARK  status: ('A' for Active; 'I' for Inactive)
REMARK    1  A    between atoms: C_1  and  C_2
REMARK    2  A    between atoms: C_2  and  C_3
REMARK    3  A    between atoms: C_3  and  N_4
REMARK    4  A    between atoms: C_5  and  N_30
REMARK    5  A    between atoms: C_6  and  C_13
REMARK    6  A    between atoms: N_9  and  C_12
REMARK    7  A    between atoms: C_13  and  C_15
REMARK    8  A    between atoms: C_15  and  N_16
REMARK    9  A    between atoms: N_19  and  C_22
REMARK   10  A    between atoms: C_22  and  C_23
REMARK   11  A    between atoms: C_28  and  C_29
REMARK                            x       y       z     vdW  Elec       q    Type
REMARK                         _______ _______ _______ _____ _____    ______ ____
ROOT
ATOM      1  C   UNL     1       2.881   0.590   2.763  0.00  0.00    +0.155 C 
ATOM      2  O   UNL     1       3.065   1.789   2.693  0.00  0.00    -0.294 OA
ENDROOT
BRANCH   1   5
ATOM      3  N   UNL     1      -0.205   0.182   0.789  0.00  0.00    -0.281 N 
ATOM      4  C   UNL     1       0.879   0.785   1.359  0.00  0.00    +0.116 A 
ATOM      5  C   UNL     1       1.747   0.014   2.152  0.00  0.00    +0.118 A 
ATOM      6  C   UNL     1       1.435  -1.411   2.325  0.00  0.00    +0.269 A 
ATOM      7  O   UNL     1       2.151  -2.126   3.001  0.00  0.00    -0.267 OA
ATOM      8  N   UNL     1       0.339  -1.911   1.718  0.00  0.00    -0.263 N 
ATOM      9  C   UNL     1      -0.457  -1.123   0.976  0.00  0.00    +0.333 A 
ATOM     10  O   UNL     1      -1.438  -1.612   0.451  0.00  0.00    -0.246 OA
ATOM     11  C   UNL     1       0.008  -3.329   1.877  0.00  0.00    +0.157 C 
BRANCH   4  12
ATOM     12  N   UNL     1       1.117   2.110   1.162  0.00  0.00    -0.344 N 
ATOM     13  H   UNL     1       1.993   2.586   1.626  0.00  0.00    +0.144 HD
ATOM     14  H   UNL     1       0.432   2.705   0.540  0.00  0.00    +0.144 HD
ENDBRANCH   4  12
BRANCH   3  15
ATOM     15  C   UNL     1      -1.116   0.977  -0.039  0.00  0.00    +0.128 C 
BRANCH  15  17
ATOM     16  C   UNL     1      -1.596   1.770  -2.359  0.00  0.00    +0.005 C 
ATOM     17  C   UNL     1      -0.645   0.940  -1.494  0.00  0.00    +0.018 C 
ENDBRANCH  15  17
ENDBRANCH   3  15
ENDBRANCH   1   5
BRANCH   1  18
ATOM     18  C   UNL     1       3.863  -0.281   3.502  0.00  0.00    +0.003 C 
BRANCH  18  19
ATOM     19  N   UNL     1       4.946   0.552   4.043  0.00  0.00    +0.386 N 
ATOM     20  C   UNL     1       5.749   1.139   2.961  0.00  0.00    -0.063 C 
ATOM     21  C   UNL     1       6.814   2.060   3.562  0.00  0.00    +0.066 C 
ATOM     22  N   UNL     1       7.660   1.290   4.484  0.00  0.00    -0.302 NA
ATOM     23  C   UNL     1       6.857   0.703   5.565  0.00  0.00    +0.066 C 
ATOM     24  C   UNL     1       5.793  -0.218   4.965  0.00  0.00    -0.063 C 
ATOM     25  H   UNL     1       4.487   1.375   4.610  0.00  0.00    -0.081 HD
BRANCH  22  26
ATOM     26  C   UNL     1       8.743   2.122   5.024  0.00  0.00    +0.119 C 
BRANCH  26  27
ATOM     27  C   UNL     1       9.473   2.795   3.890  0.00  0.00    -0.030 A 
ATOM     28  C   UNL     1       9.287   4.145   3.653  0.00  0.00    +0.005 A 
ATOM     29  C   UNL     1       9.960   4.763   2.616  0.00  0.00    +0.000 A 
ATOM     30  C   UNL     1      10.811   4.030   1.810  0.00  0.00    +0.000 A 
ATOM     31  C   UNL     1      10.993   2.680   2.044  0.00  0.00    +0.003 A 
ATOM     32  C   UNL     1      10.324   2.063   3.084  0.00  0.00    -0.046 A 
ATOM     33  C   UNL     1      10.521   0.591   3.340  0.00  0.00    +0.044 C 
ENDBRANCH  26  27
ENDBRANCH  22  26
ENDBRANCH  18  19
ENDBRANCH   1  18
TORSDOF 8
