REMARK  Name = ZINC12372407
REMARK  11 active torsions:
REMARK  status: ('A' for Active; 'I' for Inactive)
REMARK    1  A    between atoms: C_1  and  C_2
REMARK    2  A    between atoms: C_3  and  C_22
REMARK    3  A    between atoms: C_5  and  C_7
REMARK    4  A    between atoms: C_9  and  C_20
REMARK    5  A    between atoms: C_10  and  N_19
REMARK    6  A    between atoms: C_12  and  C_18
REMARK    7  A    between atoms: C_13  and  C_14
REMARK    8  A    between atoms: C_14  and  O_16
REMARK    9  A    between atoms: O_16  and  C_17
REMARK   10  A    between atoms: C_22  and  S_23
REMARK   11  A    between atoms: S_23  and  C_24
REMARK                            x       y       z     vdW  Elec       q    Type
REMARK                         _______ _______ _______ _____ _____    ______ ____
ROOT
ATOM      1  C   UNL     1      -2.735   1.866   0.905  0.00  0.00    +0.052 C 
ATOM      2  C   UNL     1      -1.319   2.341   0.699  0.00  0.00    -0.009 A 
ATOM      3  C   UNL     1      -0.177   1.614   0.629  0.00  0.00    -0.027 A 
ATOM      4  C   UNL     1       1.023   2.269   0.426  0.00  0.00    +0.017 A 
ATOM      5  C   UNL     1       1.023   3.619   0.308  0.00  0.00    +0.003 A 
ATOM      6  S   UNL     1      -0.711   4.006   0.486  0.00  0.00    -0.097 S 
ENDROOT
BRANCH   5   7
ATOM      7  C   UNL     1       2.185   4.553   0.086  0.00  0.00    +0.111 C 
ATOM      8  C   UNL     1       2.280   5.517   1.238  0.00  0.00    +0.099 C 
ATOM      9  C   UNL     1       1.862   6.799   1.103  0.00  0.00    +0.198 C 
ATOM     10  O   UNL     1       1.349   7.260  -0.051  0.00  0.00    -0.445 OA
ATOM     11  C   UNL     1       1.584   6.590  -1.189  0.00  0.00    +0.115 C 
ATOM     12  C   UNL     1       1.980   5.311  -1.197  0.00  0.00    +0.087 C 
ATOM     13  C   UNL     1       1.395   7.301  -2.504  0.00  0.00    +0.087 C 
BRANCH   9  14
ATOM     14  N   UNL     1       1.964   7.651   2.175  0.00  0.00    -0.328 N 
ATOM     15  H   UNL     1       1.669   8.571   2.093  0.00  0.00    +0.145 HD
ATOM     16  H   UNL     1       2.333   7.333   3.014  0.00  0.00    +0.145 HD
ENDBRANCH   9  14
BRANCH  12  17
ATOM     17  C   UNL     1       2.209   4.660  -2.434  0.00  0.00    +0.339 C 
ATOM     18  O   UNL     1       3.347   4.438  -2.803  0.00  0.00    -0.245 OA
BRANCH  17  19
ATOM     19  O   UNL     1       1.165   4.287  -3.204  0.00  0.00    -0.465 OA
ATOM     20  C   UNL     1       1.470   3.636  -4.439  0.00  0.00    +0.280 C 
ENDBRANCH  17  19
ENDBRANCH  12  17
BRANCH   8  21
ATOM     21  C   UNL     1       2.816   5.075   2.490  0.00  0.00    +0.101 C 
ATOM     22  N   UNL     1       3.242   4.724   3.483  0.00  0.00    -0.191 NA
ENDBRANCH   8  21
ENDBRANCH   5   7
BRANCH   3  23
ATOM     23  C   UNL     1      -0.216   0.114   0.764  0.00  0.00    +0.112 C 
BRANCH  23  24
ATOM     24  S   UNL     1      -0.026  -0.342   2.509  0.00  0.00    -0.092 S 
BRANCH  24  25
ATOM     25  C   UNL     1      -0.092  -2.103   2.500  0.00  0.00    +0.160 A 
ATOM     26  N   UNL     1      -0.248  -2.928   1.483  0.00  0.00    -0.133 NA
ATOM     27  N   UNL     1      -0.266  -4.286   1.701  0.00  0.00    -0.125 NA
ATOM     28  C   UNL     1      -0.138  -4.756   2.926  0.00  0.00    +0.180 A 
ATOM     29  S   UNL     1       0.028  -3.247   3.867  0.00  0.00    -0.025 S 
ATOM     30  N   UNL     1      -0.134  -6.074   3.368  0.00  0.00    -0.336 N 
ATOM     31  H   UNL     1      -0.030  -6.269   4.313  0.00  0.00    +0.144 HD
ATOM     32  H   UNL     1      -0.236  -6.799   2.732  0.00  0.00    +0.144 HD
ENDBRANCH  24  25
ENDBRANCH  23  24
ENDBRANCH   3  23
TORSDOF 8
