REMARK  Name = ZINC12507763
REMARK  4 active torsions:
REMARK  status: ('A' for Active; 'I' for Inactive)
REMARK    1  A    between atoms: C_1  and  C_2
REMARK    2  A    between atoms: C_4  and  C_10
REMARK    3  A    between atoms: C_6  and  C_9
REMARK    4  A    between atoms: C_7  and  O_8
REMARK                            x       y       z     vdW  Elec       q    Type
REMARK                         _______ _______ _______ _____ _____    ______ ____
ROOT
ATOM      1  C   UNL     1       0.028  -2.816  -2.516  0.00  0.00    +0.209 C 
ATOM      2  N   UNL     1       0.909  -3.994  -2.425  0.00  0.00    -0.294 N 
ATOM      3  C   UNL     1       0.443  -5.152  -1.862  0.00  0.00    +0.160 C 
ATOM      4  N   UNL     1       1.320  -5.987  -1.224  0.00  0.00    -0.332 N 
ATOM      5  N   UNL     1      -0.836  -5.481  -1.920  0.00  0.00    -0.302 N 
ATOM      6  C   UNL     1      -1.699  -4.613  -2.501  0.00  0.00    +0.213 A 
ATOM      7  N   UNL     1      -1.318  -3.319  -2.812  0.00  0.00    -0.286 N 
ATOM      8  C   UNL     1      -2.393  -2.692  -3.398  0.00  0.00    +0.076 A 
ATOM      9  C   UNL     1      -2.608  -1.425  -3.924  0.00  0.00    +0.077 A 
ATOM     10  C   UNL     1      -3.842  -1.101  -4.455  0.00  0.00    +0.164 A 
ATOM     11  C   UNL     1      -4.873  -2.035  -4.468  0.00  0.00    +0.164 A 
ATOM     12  C   UNL     1      -4.677  -3.298  -3.949  0.00  0.00    +0.079 A 
ATOM     13  C   UNL     1      -3.434  -3.640  -3.408  0.00  0.00    +0.095 A 
ATOM     14  N   UNL     1      -2.950  -4.785  -2.837  0.00  0.00    -0.212 NA
ATOM     15  O   UNL     1      -6.084  -1.696  -5.000  0.00  0.00    -0.488 OA
ATOM     16  C   UNL     1      -6.836  -0.722  -4.273  0.00  0.00    +0.232 C 
ATOM     17  C   UNL     1      -6.402   0.686  -4.649  0.00  0.00    +0.082 C 
ATOM     18  C   UNL     1      -4.965   0.976  -4.247  0.00  0.00    +0.232 C 
ATOM     19  O   UNL     1      -4.057   0.145  -4.973  0.00  0.00    -0.488 OA
ATOM     20  H   UNL     1       2.261  -5.756  -1.175  0.00  0.00    +0.145 HD
ATOM     21  H   UNL     1      -1.149  -6.324  -1.557  0.00  0.00    +0.171 HD
ATOM     22  H   UNL     1       1.001  -6.810  -0.822  0.00  0.00    +0.145 HD
ATOM     23  H   UNL     1       1.817  -3.950  -2.764  0.00  0.00    +0.151 HD
ENDROOT
BRANCH   1  27
ATOM     24  C   UNL     1      -0.018   1.503   0.010  0.00  0.00    +0.047 C 
ATOM     25  C   UNL     1       0.002  -0.004   0.002  0.00  0.00    -0.008 A 
ATOM     26  C   UNL     1       0.006  -0.689  -1.198  0.00  0.00    +0.014 A 
ATOM     27  C   UNL     1       0.024  -2.071  -1.206  0.00  0.00    -0.006 A 
ATOM     28  C   UNL     1       0.040  -2.772  -0.014  0.00  0.00    +0.014 A 
ATOM     29  C   UNL     1       0.036  -2.092   1.188  0.00  0.00    -0.008 A 
ATOM     30  C   UNL     1       0.023  -0.705   1.199  0.00  0.00    +0.123 A 
ATOM     31  C   UNL     1       0.052  -2.856   2.487  0.00  0.00    +0.047 C 
BRANCH  30  32
ATOM     32  O   UNL     1       0.025  -0.033   2.381  0.00  0.00    -0.506 OA
ATOM     33  H   UNL     1      -0.857   0.149   2.731  0.00  0.00    +0.292 HD
ENDBRANCH  30  32
ENDBRANCH   1  27
TORSDOF 2
