REMARK  Name = ZINC17059949
REMARK  11 active torsions:
REMARK  status: ('A' for Active; 'I' for Inactive)
REMARK    1  A    between atoms: C_1  and  N_2
REMARK    2  A    between atoms: N_2  and  C_3
REMARK    3  A    between atoms: C_3  and  N_5
REMARK    4  A    between atoms: N_5  and  N_6
REMARK    5  A    between atoms: C_7  and  C_8
REMARK    6  A    between atoms: N_14  and  C_25
REMARK    7  A    between atoms: C_16  and  C_17
REMARK    8  A    between atoms: N_18  and  N_19
REMARK    9  A    between atoms: N_19  and  C_20
REMARK   10  A    between atoms: C_20  and  N_22
REMARK   11  A    between atoms: N_22  and  C_23
REMARK                            x       y       z     vdW  Elec       q    Type
REMARK                         _______ _______ _______ _____ _____    ______ ____
ROOT
ATOM      1  C   UNL     1       1.786   4.018   2.324  0.00  0.00    +0.019 A 
ATOM      2  C   UNL     1       2.216   5.049   3.158  0.00  0.00    +0.011 A 
ATOM      3  C   UNL     1       2.181   6.362   2.723  0.00  0.00    +0.001 A 
ATOM      4  C   UNL     1       1.721   6.670   1.459  0.00  0.00    +0.011 A 
ATOM      5  C   UNL     1       1.286   5.654   0.609  0.00  0.00    +0.011 A 
ATOM      6  C   UNL     1       1.315   4.318   1.035  0.00  0.00    +0.064 A 
ATOM      7  N   UNL     1       0.835   3.542   0.003  0.00  0.00    -0.299 N 
ATOM      8  C   UNL     1       0.506   4.327  -1.065  0.00  0.00    +0.124 A 
ATOM      9  C   UNL     1       0.750   5.632  -0.764  0.00  0.00    +0.039 A 
ATOM     10 CL   UNL     1      -0.130   3.749  -2.574  0.00  0.00    -0.063 Cl
ENDROOT
BRANCH   7  11
ATOM     11  C   UNL     1       0.707   2.147   0.041  0.00  0.00    +0.048 A 
ATOM     12  C   UNL     1      -0.551   1.565   0.124  0.00  0.00    +0.026 A 
ATOM     13  C   UNL     1      -0.673   0.190   0.161  0.00  0.00    +0.002 A 
ATOM     14  C   UNL     1       0.456  -0.607   0.116  0.00  0.00    +0.000 A 
ATOM     15  C   UNL     1       1.710  -0.031   0.033  0.00  0.00    +0.002 A 
ATOM     16  C   UNL     1       1.839   1.344  -0.004  0.00  0.00    +0.026 A 
ENDBRANCH   7  11
BRANCH   1  18
ATOM     17  N   UNL     1       2.185   2.356   4.011  0.00  0.00    -0.188 NA
ATOM     18  C   UNL     1       1.825   2.622   2.792  0.00  0.00    +0.140 C 
BRANCH  17  19
ATOM     19  N   UNL     1       2.324   1.025   4.426  0.00  0.00    -0.218 N 
ATOM     20  H   UNL     1       2.081   0.302   3.826  0.00  0.00    +0.176 HD
BRANCH  19  21
ATOM     21  C   UNL     1       2.794   0.748   5.658  0.00  0.00    +0.150 C 
ATOM     22  S   UNL     1       3.085  -0.875   6.119  0.00  0.00    -0.017 S 
BRANCH  21  24
ATOM     23  C   UNL     1       3.649   1.460   7.826  0.00  0.00    +0.127 C 
ATOM     24  N   UNL     1       3.035   1.750   6.528  0.00  0.00    -0.328 N 
ATOM     25  H   UNL     1       2.801   2.662   6.294  0.00  0.00    +0.147 HD
ENDBRANCH  21  24
ENDBRANCH  19  21
ENDBRANCH  17  19
ENDBRANCH   1  18
BRANCH   9  26
ATOM     26  C   UNL     1       0.529   6.793  -1.640  0.00  0.00    +0.141 C 
ATOM     27  N   UNL     1       1.509   7.604  -1.905  0.00  0.00    -0.188 NA
BRANCH  27  28
ATOM     28  N   UNL     1       2.804   7.304  -1.464  0.00  0.00    -0.218 N 
ATOM     29  H   UNL     1       2.985   6.456  -1.030  0.00  0.00    +0.176 HD
BRANCH  28  30
ATOM     30  C   UNL     1       3.800   8.195  -1.642  0.00  0.00    +0.150 C 
ATOM     31  S   UNL     1       5.383   7.829  -1.103  0.00  0.00    -0.017 S 
BRANCH  30  32
ATOM     32  N   UNL     1       3.549   9.374  -2.245  0.00  0.00    -0.328 N 
ATOM     33  C   UNL     1       4.631  10.342  -2.439  0.00  0.00    +0.127 C 
ATOM     34  H   UNL     1       2.652   9.582  -2.550  0.00  0.00    +0.147 HD
ENDBRANCH  30  32
ENDBRANCH  28  30
ENDBRANCH  27  28
ENDBRANCH   9  26
TORSDOF 9
