REMARK  Name = ZINC62261311
REMARK  7 active torsions:
REMARK  status: ('A' for Active; 'I' for Inactive)
REMARK    1  A    between atoms: C_1  and  N_2
REMARK    2  A    between atoms: N_2  and  C_3
REMARK    3  A    between atoms: N_2  and  C_4
REMARK    4  A    between atoms: C_7  and  N_10
REMARK    5  A    between atoms: C_11  and  C_17
REMARK    6  A    between atoms: C_12  and  C_15
REMARK    7  A    between atoms: C_15  and  O_16
REMARK                            x       y       z     vdW  Elec       q    Type
REMARK                         _______ _______ _______ _____ _____    ______ ____
ROOT
ATOM      1  N   UNL     1      -0.007  -2.763  -4.836  0.00  0.00    -0.212 N 
ATOM      2  C   UNL     1      -0.642  -2.394  -5.992  0.00  0.00    +0.103 A 
ATOM      3  C   UNL     1      -0.368  -3.365  -6.910  0.00  0.00    +0.116 A 
ATOM      4  N   UNL     1       0.402  -4.288  -6.341  0.00  0.00    -0.131 NA
ATOM      5  N   UNL     1       0.647  -3.972  -5.118  0.00  0.00    -0.060 NA
ENDROOT
BRANCH   2   6
ATOM      6  C   UNL     1      -1.464  -1.182  -6.204  0.00  0.00    +0.038 A 
ATOM      7  C   UNL     1      -0.871  -0.003  -6.656  0.00  0.00    +0.013 A 
ATOM      8  C   UNL     1      -1.643   1.124  -6.852  0.00  0.00    +0.001 A 
ATOM      9  C   UNL     1      -3.003   1.088  -6.601  0.00  0.00    +0.003 A 
ATOM     10  C   UNL     1      -3.599  -0.076  -6.151  0.00  0.00    +0.039 A 
ATOM     11  C   UNL     1      -2.839  -1.214  -5.957  0.00  0.00    +0.133 A 
ATOM     12  F   UNL     1      -3.422  -2.353  -5.523  0.00  0.00    -0.205 F 
ENDBRANCH   2   6
BRANCH   1  16
ATOM     13  C   UNL     1       0.000  -0.696  -1.212  0.00  0.00    +0.029 A 
ATOM     14  C   UNL     1       0.013  -2.086  -1.220  0.00  0.00    +0.025 A 
ATOM     15  C   UNL     1       0.011  -2.769  -2.419  0.00  0.00    +0.029 A 
ATOM     16  C   UNL     1      -0.005  -2.068  -3.618  0.00  0.00    +0.068 A 
ATOM     17  C   UNL     1      -0.017  -0.679  -3.610  0.00  0.00    +0.029 A 
ATOM     18  C   UNL     1      -0.021   0.004  -2.412  0.00  0.00    +0.025 A 
BRANCH  13  20
ATOM     19  C   UNL     1      -0.018   1.461   0.010  0.00  0.00    +0.129 C 
ATOM     20  N   UNL     1       0.002  -0.004   0.002  0.00  0.00    -0.336 N 
ATOM     21  C   UNL     1       0.024  -0.743   1.267  0.00  0.00    +0.129 C 
ENDBRANCH  13  20
ENDBRANCH   1  16
BRANCH   3  22
ATOM     22  C   UNL     1      -0.858  -3.388  -8.335  0.00  0.00    +0.215 C 
BRANCH  22  23
ATOM     23  O   UNL     1       0.086  -2.718  -9.174  0.00  0.00    -0.389 OA
ATOM     24  H   UNL     1      -0.165  -2.694 -10.107  0.00  0.00    +0.210 HD
ENDBRANCH  22  23
ENDBRANCH   3  22
TORSDOF 5
