REMARK  Name = ZINC04102268
REMARK  16 active torsions:
REMARK  status: ('A' for Active; 'I' for Inactive)
REMARK    1  A    between atoms: C_1  and  C_2
REMARK    2  A    between atoms: C_4  and  O_45
REMARK    3  A    between atoms: C_8  and  C_44
REMARK    4  A    between atoms: C_9  and  O_43
REMARK    5  A    between atoms: C_14  and  O_39
REMARK    6  A    between atoms: C_17  and  O_28
REMARK    7  A    between atoms: C_19  and  O_27
REMARK    8  A    between atoms: C_20  and  C_21
REMARK    9  A    between atoms: C_20  and  C_22
REMARK   10  A    between atoms: C_24  and  O_26
REMARK   11  A    between atoms: O_28  and  C_29
REMARK   12  A    between atoms: C_29  and  C_31
REMARK   13  A    between atoms: O_39  and  C_40
REMARK   14  A    between atoms: C_40  and  C_42
REMARK   15  A    between atoms: O_45  and  C_46
REMARK   16  A    between atoms: C_46  and  C_48
REMARK                            x       y       z     vdW  Elec       q    Type
REMARK                         _______ _______ _______ _____ _____    ______ ____
ROOT
ATOM      1  C   UNL     1      -0.145   1.757  -1.466  0.00  0.00    +0.042 C 
ATOM      2  C   UNL     1      -0.998   1.197  -0.376  0.00  0.00    -0.041 C 
ATOM      3  C   UNL     1      -2.276   1.394  -0.279  0.00  0.00    -0.012 C 
ATOM      4  C   UNL     1      -2.784   2.768  -0.636  0.00  0.00    +0.269 C 
ATOM      5  C   UNL     1      -2.703   3.477   0.705  0.00  0.00    +0.187 C 
ATOM      6  O   UNL     1      -1.648   4.036   0.996  0.00  0.00    -0.292 OA
ATOM      7  C   UNL     1      -3.844   3.510   1.707  0.00  0.00    +0.066 C 
ATOM      8  C   UNL     1      -3.694   4.909   2.388  0.00  0.00    +0.131 C 
ATOM      9  C   UNL     1      -4.890   5.207   3.269  0.00  0.00    +0.068 C 
ATOM     10  C   UNL     1      -5.509   4.030   3.991  0.00  0.00    +0.167 C 
ATOM     11  C   UNL     1      -4.867   2.665   3.853  0.00  0.00    +0.170 C 
ATOM     12  C   UNL     1      -3.729   2.518   2.814  0.00  0.00    +0.097 C 
ATOM     13  C   UNL     1      -3.334   1.089   2.895  0.00  0.00    +0.217 C 
ATOM     14  C   UNL     1      -2.559   0.291   1.881  0.00  0.00    +0.115 C 
ATOM     15  C   UNL     1      -3.139   0.457   0.485  0.00  0.00    +0.023 C 
ATOM     16  C   UNL     1      -3.026  -0.928  -0.229  0.00  0.00    +0.018 C 
ATOM     17  C   UNL     1      -4.632   0.737   0.479  0.00  0.00    +0.018 C 
ATOM     18  C   UNL     1      -1.077   0.615   1.956  0.00  0.00    +0.075 C 
ATOM     19  C   UNL     1      -0.354   0.314   0.649  0.00  0.00    +0.143 C 
ATOM     20  C   UNL     1      -6.229   2.126   3.388  0.00  0.00    +0.211 C 
ATOM     21  O   UNL     1      -6.678   3.493   3.350  0.00  0.00    -0.368 OA
ATOM     22  C   UNL     1      -5.189   3.612   0.992  0.00  0.00    +0.022 C 
ENDROOT
BRANCH  19  23
ATOM     23  O   UNL     1       1.011   0.685   0.796  0.00  0.00    -0.387 OA
ATOM     24  H   UNL     1       1.542   0.556  -0.002  0.00  0.00    +0.210 HD
ENDBRANCH  19  23
BRANCH  14  25
ATOM     25  O   UNL     1      -2.690  -1.115   2.239  0.00  0.00    -0.384 OA
ATOM     26  H   UNL     1      -2.367  -1.326   3.126  0.00  0.00    +0.210 HD
ENDBRANCH  14  25
BRANCH   8  27
ATOM     27  O   UNL     1      -3.616   5.889   1.350  0.00  0.00    -0.391 OA
ATOM     28  H   UNL     1      -3.521   6.796   1.672  0.00  0.00    +0.210 HD
ENDBRANCH   8  27
BRANCH  13  29
ATOM     29  O   UNL     1      -2.515   0.973   4.135  0.00  0.00    -0.454 OA
BRANCH  29  30
ATOM     30  C   UNL     1      -2.789  -0.061   4.954  0.00  0.00    +0.340 C 
ATOM     31  O   UNL     1      -3.670  -0.847   4.667  0.00  0.00    -0.245 OA
BRANCH  30  32
ATOM     32  C   UNL     1      -2.018  -0.239   6.202  0.00  0.00    +0.059 A 
ATOM     33  C   UNL     1      -1.001   0.659   6.532  0.00  0.00    +0.015 A 
ATOM     34  C   UNL     1      -0.288   0.490   7.701  0.00  0.00    +0.001 A 
ATOM     35  C   UNL     1      -0.572  -0.573   8.540  0.00  0.00    +0.000 A 
ATOM     36  C   UNL     1      -1.574  -1.470   8.216  0.00  0.00    +0.001 A 
ATOM     37  C   UNL     1      -2.298  -1.309   7.053  0.00  0.00    +0.015 A 
ENDBRANCH  30  32
ENDBRANCH  29  30
ENDBRANCH  13  29
BRANCH  11  38
ATOM     38  O   UNL     1      -4.464   2.081   5.144  0.00  0.00    -0.453 OA
BRANCH  38  39
ATOM     39  C   UNL     1      -5.358   2.137   6.144  0.00  0.00    +0.305 C 
ATOM     40  O   UNL     1      -6.436   2.651   5.962  0.00  0.00    -0.251 OA
ATOM     41  C   UNL     1      -5.016   1.560   7.493  0.00  0.00    +0.136 C 
ENDBRANCH  38  39
ENDBRANCH  11  38
BRANCH   4  42
ATOM     42  O   UNL     1      -4.055   2.762  -1.288  0.00  0.00    -0.449 OA
BRANCH  42  43
ATOM     43  C   UNL     1      -4.300   3.756  -2.156  0.00  0.00    +0.305 C 
ATOM     44  O   UNL     1      -3.462   4.604  -2.355  0.00  0.00    -0.251 OA
ATOM     45  C   UNL     1      -5.619   3.816  -2.882  0.00  0.00    +0.136 C 
ENDBRANCH  42  43
ENDBRANCH   4  42
TORSDOF 10
