REMARK  Name = ZINC29129338
REMARK  7 active torsions:
REMARK  status: ('A' for Active; 'I' for Inactive)
REMARK    1  A    between atoms: C_1  and  C_2
REMARK    2  A    between atoms: C_2  and  O_3
REMARK    3  A    between atoms: O_3  and  C_4
REMARK    4  A    between atoms: C_9  and  N_10
REMARK    5  A    between atoms: C_11  and  C_13
REMARK    6  A    between atoms: C_14  and  C_24
REMARK    7  A    between atoms: C_26  and  C_29
REMARK                            x       y       z     vdW  Elec       q    Type
REMARK                         _______ _______ _______ _____ _____    ______ ____
ROOT
ATOM      1  N   UNL     1      -3.900  -1.569   0.027  0.00  0.00    -0.277 N 
ATOM      2  C   UNL     1      -5.069  -2.019   0.523  0.00  0.00    +0.265 C 
ATOM      3  O   UNL     1      -5.127  -3.117   1.045  0.00  0.00    -0.268 OA
ATOM      4  H   UNL     1      -3.835  -0.664  -0.316  0.00  0.00    +0.155 HD
ENDROOT
BRANCH   2   5
ATOM      5  C   UNL     1      -6.274  -1.184   0.436  0.00  0.00    +0.106 A 
ATOM      6  C   UNL     1      -7.514  -1.520   0.903  0.00  0.00    -0.010 A 
ATOM      7  C   UNL     1      -8.358  -0.441   0.611  0.00  0.00    +0.042 A 
ATOM      8  C   UNL     1      -7.594   0.531  -0.036  0.00  0.00    +0.027 A 
ATOM      9  N   UNL     1      -6.344   0.076  -0.128  0.00  0.00    -0.354 N 
ATOM     10  H   UNL     1      -5.601   0.553  -0.530  0.00  0.00    +0.166 HD
ATOM     11  C   UNL     1      -8.169   1.841  -0.512  0.00  0.00    +0.054 C 
ATOM     12  C   UNL     1      -9.689   1.708  -0.641  0.00  0.00    +0.014 C 
ATOM     13  C   UNL     1     -10.299   1.174   0.659  0.00  0.00    +0.080 C 
ATOM     14  C   UNL     1      -9.790  -0.242   0.883  0.00  0.00    +0.165 C 
ATOM     15  O   UNL     1     -10.512  -1.142   1.258  0.00  0.00    -0.292 OA
ATOM     16  C   UNL     1      -7.899  -2.801   1.598  0.00  0.00    +0.047 C 
ENDBRANCH   2   5
BRANCH   1  22
ATOM     17  C   UNL     1      -1.500  -1.858  -0.006  0.00  0.00    +0.142 A 
ATOM     18  C   UNL     1      -0.395  -2.695  -0.025  0.00  0.00    +0.055 A 
ATOM     19  C   UNL     1      -0.566  -4.062  -0.037  0.00  0.00    +0.001 A 
ATOM     20  C   UNL     1      -1.837  -4.623  -0.024  0.00  0.00    +0.126 A 
ATOM     21  C   UNL     1      -2.946  -3.783  -0.010  0.00  0.00    +0.073 A 
ATOM     22  C   UNL     1      -2.779  -2.408   0.005  0.00  0.00    +0.079 A 
ATOM     23  O   UNL     1      -1.774  -5.984  -0.016  0.00  0.00    -0.488 OA
ATOM     24  C   UNL     1      -0.475  -6.401  -0.470  0.00  0.00    +0.175 C 
ATOM     25  C   UNL     1       0.426  -5.209  -0.069  0.00  0.00    +0.083 C 
ATOM     26  C   UNL     1      -0.037  -7.681   0.243  0.00  0.00    +0.052 C 
BRANCH  17  27
ATOM     27  O   UNL     1      -1.335  -0.507   0.008  0.00  0.00    -0.490 OA
BRANCH  27  29
ATOM     28  C   UNL     1      -0.008   1.513   0.013  0.00  0.00    +0.048 C 
ATOM     29  C   UNL     1       0.007  -0.017  -0.005  0.00  0.00    +0.226 C 
ENDBRANCH  27  29
ENDBRANCH  17  27
ENDBRANCH   1  22
TORSDOF 4
