REMARK  Name = ZINC62985126
REMARK  3 active torsions:
REMARK  status: ('A' for Active; 'I' for Inactive)
REMARK    1  A    between atoms: C_6  and  C_7
REMARK    2  A    between atoms: C_12  and  N_15
REMARK    3  A    between atoms: N_20  and  N_21
REMARK                            x       y       z     vdW  Elec       q    Type
REMARK                         _______ _______ _______ _____ _____    ______ ____
ROOT
ATOM      1  C   UNL     1      -1.255  -0.794  -0.006  0.00  0.00    +0.250 C 
ATOM      2  O   UNL     1      -1.215  -2.007   0.075  0.00  0.00    -0.270 OA
ATOM      3  N   UNL     1      -2.442  -0.164  -0.101  0.00  0.00    -0.299 N 
ATOM      4  C   UNL     1      -2.632   1.278  -0.321  0.00  0.00    +0.106 C 
ATOM      5  C   UNL     1      -4.152   1.534  -0.387  0.00  0.00    +0.005 C 
ATOM      6  C   UNL     1      -4.724   0.143  -0.767  0.00  0.00    -0.049 C 
ATOM      7  C   UNL     1      -3.766  -0.806  -0.009  0.00  0.00    +0.093 C 
ENDROOT
BRANCH   1  13
ATOM      8  C   UNL     1       0.112   1.140   0.784  0.00  0.00    +0.033 A 
ATOM      9  C   UNL     1       1.308   1.837   0.753  0.00  0.00    +0.037 A 
ATOM     10  C   UNL     1       2.344   1.380  -0.043  0.00  0.00    +0.128 A 
ATOM     11  N   UNL     1       2.213   0.291  -0.775  0.00  0.00    -0.237 NA
ATOM     12  C   UNL     1       1.092  -0.414  -0.783  0.00  0.00    +0.144 A 
ATOM     13  C   UNL     1      -0.004  -0.014  -0.001  0.00  0.00    +0.079 A 
ATOM     14  N   UNL     1       1.000  -1.550  -1.567  0.00  0.00    -0.267 N 
ATOM     15 BR   UNL     1       1.524   3.403   1.792  0.00  0.00    -0.049 Br
ATOM     16  H   UNL     1       0.208  -2.108  -1.521  0.00  0.00    +0.167 HD
BRANCH  14  17
ATOM     17  N   UNL     1       2.025  -1.886  -2.405  0.00  0.00    -0.255 NA
ATOM     18  H   UNL     1       2.893  -1.972  -1.899  0.00  0.00    +0.140 HD
ATOM     19  H   UNL     1       1.815  -2.735  -2.909  0.00  0.00    +0.140 HD
ENDBRANCH  14  17
ENDBRANCH   1  13
BRANCH   6  20
ATOM     20  N   UNL     1      -6.105  -0.007  -0.290  0.00  0.00    +0.383 N 
ATOM     21  C   UNL     1      -6.989   0.979  -0.963  0.00  0.00    -0.078 C 
ATOM     22  C   UNL     1      -8.398   0.353  -0.813  0.00  0.00    -0.020 C 
ATOM     23  C   UNL     1      -8.125  -1.159  -0.991  0.00  0.00    -0.020 C 
ATOM     24  C   UNL     1      -6.631  -1.339  -0.662  0.00  0.00    -0.078 C 
ATOM     25  H   UNL     1      -6.144   0.115   0.710  0.00  0.00    -0.081 HD
ENDBRANCH   6  20
TORSDOF 3
