REMARK  Name = ZINC51328599
REMARK  6 active torsions:
REMARK  status: ('A' for Active; 'I' for Inactive)
REMARK    1  A    between atoms: C_4  and  N_22
REMARK    2  A    between atoms: C_5  and  C_7
REMARK    3  A    between atoms: C_7  and  C_9
REMARK    4  A    between atoms: C_7  and  O_21
REMARK    5  A    between atoms: C_9  and  S_10
REMARK    6  A    between atoms: S_10  and  C_11
REMARK                            x       y       z     vdW  Elec       q    Type
REMARK                         _______ _______ _______ _____ _____    ______ ____
ROOT
ATOM      1  C   UNL     1       1.226  -2.187  -0.022  0.00  0.00    +0.156 C 
ENDROOT
BRANCH   1   6
ATOM      2  C   UNL     1      -0.017   1.378   0.010  0.00  0.00    +0.000 A 
ATOM      3  C   UNL     1       1.170   2.089   0.002  0.00  0.00    +0.002 A 
ATOM      4  C   UNL     1       2.377   1.420  -0.013  0.00  0.00    +0.023 A 
ATOM      5  C   UNL     1       2.400   0.031  -0.021  0.00  0.00    +0.030 A 
ATOM      6  C   UNL     1       1.207  -0.680  -0.013  0.00  0.00    +0.002 A 
ATOM      7  C   UNL     1       0.002  -0.004   0.002  0.00  0.00    +0.008 A 
BRANCH   5   8
ATOM      8  N   UNL     1       3.620  -0.649  -0.036  0.00  0.00    -0.358 N 
ATOM      9  H   UNL     1       4.452  -0.152  -0.042  0.00  0.00    +0.142 HD
ATOM     10  H   UNL     1       3.634  -1.619  -0.042  0.00  0.00    +0.142 HD
ENDBRANCH   5   8
ENDBRANCH   1   6
BRANCH   1  11
ATOM     11  O   UNL     1       0.006  -2.676  -0.582  0.00  0.00    -0.386 OA
ATOM     12  H   UNL     1      -0.786  -2.403  -0.098  0.00  0.00    +0.210 HD
ENDBRANCH   1  11
BRANCH   1  13
ATOM     13  C   UNL     1       1.372  -2.703   1.411  0.00  0.00    +0.112 C 
BRANCH  13  14
ATOM     14  S   UNL     1       1.544  -4.509   1.388  0.00  0.00    -0.101 S 
BRANCH  14  15
ATOM     15  C   UNL     1       1.701  -4.944   3.089  0.00  0.00    +0.126 A 
ATOM     16  C   UNL     1       1.861  -6.277   3.473  0.00  0.00    +0.117 A 
ATOM     17  C   UNL     1       1.982  -6.573   4.840  0.00  0.00    +0.182 A 
ATOM     18  N   UNL     1       2.123  -7.908   4.940  0.00  0.00    -0.216 NA
ATOM     19  H   UNL     1       1.888  -7.620   1.853  0.00  0.00    +0.167 HD
ATOM     20  C   UNL     1       2.098  -8.444   3.751  0.00  0.00    +0.199 A 
ATOM     21  N   UNL     1       1.938  -7.484   2.812  0.00  0.00    -0.341 N 
ATOM     22  N   UNL     1       1.939  -5.567   5.721  0.00  0.00    -0.214 NA
ATOM     23  C   UNL     1       1.787  -4.327   5.312  0.00  0.00    +0.224 A 
ATOM     24  N   UNL     1       1.675  -4.008   4.035  0.00  0.00    -0.227 NA
ENDBRANCH  14  15
ENDBRANCH  13  14
ENDBRANCH   1  13
TORSDOF 6
