REMARK  Name = ZINC00069811
REMARK  6 active torsions:
REMARK  status: ('A' for Active; 'I' for Inactive)
REMARK    1  A    between atoms: C_1  and  S_2
REMARK    2  A    between atoms: S_2  and  C_3
REMARK    3  A    between atoms: C_3  and  C_4
REMARK    4  A    between atoms: C_4  and  C_6
REMARK    5  A    between atoms: C_4  and  O_18
REMARK    6  A    between atoms: C_6  and  N_7
REMARK                            x       y       z     vdW  Elec       q    Type
REMARK                         _______ _______ _______ _____ _____    ______ ____
ROOT
ATOM      1  N   UNL     1      -3.472  -3.842  -0.111  0.00  0.00    -0.226 N 
ATOM      2  C   UNL     1      -3.623  -4.494   1.061  0.00  0.00    +0.275 A 
ATOM      3  O   UNL     1      -3.659  -3.880   2.112  0.00  0.00    -0.266 OA
ATOM      4  C   UNL     1      -3.742  -5.957   1.044  0.00  0.00    +0.050 A 
ATOM      5  C   UNL     1      -3.901  -6.699   2.214  0.00  0.00    +0.014 A 
ATOM      6  C   UNL     1      -4.008  -8.070   2.135  0.00  0.00    +0.001 A 
ATOM      7  C   UNL     1      -3.960  -8.716   0.907  0.00  0.00    +0.001 A 
ATOM      8  C   UNL     1      -3.805  -8.009  -0.253  0.00  0.00    +0.010 A 
ATOM      9  C   UNL     1      -3.694  -6.618  -0.204  0.00  0.00    +0.007 A 
ATOM     10  C   UNL     1      -3.528  -5.814  -1.415  0.00  0.00    +0.141 A 
ATOM     11  N   UNL     1      -3.433  -4.521  -1.329  0.00  0.00    -0.176 NA
ENDROOT
BRANCH   1  12
ATOM     12  C   UNL     1      -3.352  -2.382  -0.104  0.00  0.00    +0.179 C 
BRANCH  12  13
ATOM     13  C   UNL     1      -1.877  -1.992   0.009  0.00  0.00    +0.146 C 
BRANCH  13  14
ATOM     14  O   UNL     1      -1.337  -2.519   1.222  0.00  0.00    -0.389 OA
ATOM     15  H   UNL     1      -1.779  -2.201   2.021  0.00  0.00    +0.210 HD
ENDBRANCH  13  14
BRANCH  13  16
ATOM     16  C   UNL     1      -1.752  -0.467   0.016  0.00  0.00    +0.102 C 
BRANCH  16  18
ATOM     17  C   UNL     1      -0.022   1.810   0.012  0.00  0.00    +0.084 C 
ATOM     18  S   UNL     1       0.002  -0.004   0.002  0.00  0.00    -0.162 S 
ENDBRANCH  16  18
ENDBRANCH  13  16
ENDBRANCH  12  13
ENDBRANCH   1  12
TORSDOF 5
