REMARK  Name = ZINC54304977
REMARK  8 active torsions:
REMARK  status: ('A' for Active; 'I' for Inactive)
REMARK    1  A    between atoms: C_1  and  C_2
REMARK    2  A    between atoms: C_2  and  C_3
REMARK    3  A    between atoms: C_2  and  C_4
REMARK    4  A    between atoms: C_4  and  N_5
REMARK    5  A    between atoms: N_5  and  C_6
REMARK    6  A    between atoms: C_6  and  C_7
REMARK    7  A    between atoms: C_16  and  C_19
REMARK    8  A    between atoms: C_19  and  C_20
REMARK                            x       y       z     vdW  Elec       q    Type
REMARK                         _______ _______ _______ _____ _____    ______ ____
ROOT
ATOM      1  N   UNL     1      -1.708  -2.007  -0.033  0.00  0.00    -0.276 N 
ATOM      2  C   UNL     1      -2.012  -2.750  -1.116  0.00  0.00    +0.305 C 
ATOM      3  O   UNL     1      -1.798  -3.947  -1.111  0.00  0.00    -0.252 OA
ATOM      4  N   UNL     1      -2.554  -2.166  -2.203  0.00  0.00    -0.285 N 
ATOM      5  C   UNL     1      -2.553  -0.704  -2.347  0.00  0.00    +0.109 C 
ATOM      6  C   UNL     1      -3.987  -0.234  -2.610  0.00  0.00    +0.019 C 
ATOM      7  C   UNL     1      -4.551  -0.984  -3.819  0.00  0.00    +0.007 C 
ATOM      8  C   UNL     1      -4.582  -2.485  -3.521  0.00  0.00    +0.017 C 
ATOM      9  C   UNL     1      -3.150  -2.981  -3.271  0.00  0.00    +0.113 C 
ENDROOT
BRANCH   1  10
ATOM     10  C   UNL     1      -0.673  -2.460   0.899  0.00  0.00    +0.113 C 
BRANCH  10  12
ATOM     11  C   UNL     1      -0.182  -4.003   2.801  0.00  0.00    +0.009 C 
ATOM     12  C   UNL     1      -1.285  -3.435   1.906  0.00  0.00    +0.000 C 
ATOM     13  C   UNL     1      -2.312  -2.699   2.769  0.00  0.00    +0.009 C 
ENDBRANCH  10  12
ENDBRANCH   1  10
BRANCH   1  14
ATOM     14  C   UNL     1      -2.413  -0.746   0.211  0.00  0.00    +0.204 C 
BRANCH  14  15
ATOM     15  C   UNL     1      -1.433   0.397   0.152  0.00  0.00    +0.228 C 
ATOM     16  O   UNL     1      -0.261   0.180  -0.072  0.00  0.00    -0.274 OA
ATOM     17  N   UNL     1      -1.858   1.661   0.348  0.00  0.00    -0.328 N 
ATOM     18  H   UNL     1      -2.796   1.835   0.527  0.00  0.00    +0.145 HD
ATOM     19  H   UNL     1      -1.227   2.397   0.310  0.00  0.00    +0.145 HD
ENDBRANCH  14  15
ENDBRANCH   1  14
BRANCH   8  20
ATOM     20  C   UNL     1      -5.178  -3.230  -4.717  0.00  0.00    +0.130 C 
BRANCH  20  21
ATOM     21  C   UNL     1      -5.322  -4.691  -4.377  0.00  0.00    +0.356 C 
ATOM     22  O   UNL     1      -4.980  -5.098  -3.280  0.00  0.00    -0.246 OA
ATOM     23  O   UNL     1      -5.781  -5.466  -5.199  0.00  0.00    -0.246 OA
ENDBRANCH  20  21
ENDBRANCH   8  20
TORSDOF 6
