REMARK  Name = ZINC39352136
REMARK  9 active torsions:
REMARK  status: ('A' for Active; 'I' for Inactive)
REMARK    1  A    between atoms: C_1  and  C_2
REMARK    2  A    between atoms: C_2  and  C_3
REMARK    3  A    between atoms: C_3  and  C_4
REMARK    4  A    between atoms: C_3  and  C_5
REMARK    5  A    between atoms: C_3  and  C_6
REMARK    6  A    between atoms: C_13  and  C_17
REMARK    7  A    between atoms: N_19  and  N_20
REMARK    8  A    between atoms: C_21  and  C_22
REMARK    9  A    between atoms: C_21  and  C_23
REMARK                            x       y       z     vdW  Elec       q    Type
REMARK                         _______ _______ _______ _____ _____    ______ ____
ROOT
ATOM      1  C   UNL     1       0.739  -2.027  -1.265  0.00  0.00    -0.001 C 
ATOM      2  C   UNL     1      -0.697  -2.559  -1.257  0.00  0.00    +0.010 C 
ATOM      3  C   UNL     1      -0.686  -4.074  -1.029  0.00  0.00    +0.057 C 
ATOM      4  C   UNL     1       0.281  -4.701  -2.008  0.00  0.00    +0.065 C 
ATOM      5  C   UNL     1       1.215  -3.999  -2.659  0.00  0.00    -0.012 C 
ATOM      6  C   UNL     1       1.455  -2.524  -2.529  0.00  0.00    +0.039 C 
ATOM      7  C   UNL     1       1.935  -5.011  -3.513  0.00  0.00    +0.243 C 
ATOM      8  N   UNL     1       1.232  -6.267  -3.187  0.00  0.00    -0.170 NA
ATOM      9  N   UNL     1       0.351  -6.003  -2.363  0.00  0.00    -0.158 NA
ENDROOT
BRANCH   7  10
ATOM     10  C   UNL     1       3.391  -5.093  -3.131  0.00  0.00    +0.263 C 
ATOM     11  O   UNL     1       3.780  -5.993  -2.417  0.00  0.00    -0.271 OA
ATOM     12  N   UNL     1       4.259  -4.167  -3.583  0.00  0.00    -0.205 N 
ATOM     13  H   UNL     1       3.948  -3.447  -4.154  0.00  0.00    +0.177 HD
BRANCH  12  14
ATOM     14  N   UNL     1       5.612  -4.244  -3.228  0.00  0.00    -0.181 NA
ATOM     15  C   UNL     1       6.451  -3.350  -3.664  0.00  0.00    +0.098 C 
ATOM     16  C   UNL     1       5.967  -2.232  -4.551  0.00  0.00    +0.071 C 
BRANCH  15  17
ATOM     17  C   UNL     1       7.867  -3.430  -3.293  0.00  0.00    +0.150 A 
ATOM     18  C   UNL     1       8.436  -4.388  -2.506  0.00  0.00    +0.051 A 
ATOM     19  C   UNL     1       9.805  -4.077  -2.415  0.00  0.00    +0.042 A 
ATOM     20  C   UNL     1      10.006  -2.958  -3.142  0.00  0.00    +0.196 A 
ATOM     21  O   UNL     1       8.835  -2.574  -3.675  0.00  0.00    -0.462 OA
ENDBRANCH  15  17
ENDBRANCH  12  14
ENDBRANCH   7  10
BRANCH   1  22
ATOM     22  C   UNL     1       0.718  -0.497  -1.257  0.00  0.00    -0.032 C 
ATOM     23  C   UNL     1      -0.022   0.009  -2.496  0.00  0.00    +0.011 C 
ATOM     24  C   UNL     1       2.154   0.032  -1.268  0.00  0.00    +0.011 C 
BRANCH  22  26
ATOM     25  C   UNL     1      -0.019   1.526   0.010  0.00  0.00    +0.004 C 
ATOM     26  C   UNL     1       0.002  -0.004   0.002  0.00  0.00    +0.003 C 
ENDBRANCH  22  26
ENDBRANCH   1  22
TORSDOF 5
