REMARK  Name = ZINC31952416
REMARK  4 active torsions:
REMARK  status: ('A' for Active; 'I' for Inactive)
REMARK    1  A    between atoms: C_1  and  C_2
REMARK    2  A    between atoms: N_11  and  N_12
REMARK    3  A    between atoms: C_13  and  C_14
REMARK    4  A    between atoms: C_18  and  O_20
REMARK                            x       y       z     vdW  Elec       q    Type
REMARK                         _______ _______ _______ _____ _____    ______ ____
ROOT
ATOM      1  C   UNL     1       0.407   1.456  -0.212  0.00  0.00    +0.008 C 
ATOM      2  C   UNL     1       0.216  -0.062  -0.207  0.00  0.00    -0.009 C 
ATOM      3  C   UNL     1      -1.135  -0.408   0.426  0.00  0.00    +0.010 C 
ATOM      4  C   UNL     1      -1.449  -1.891   0.218  0.00  0.00    +0.056 C 
ATOM      5  C   UNL     1      -0.265  -2.714   0.706  0.00  0.00    +0.054 A 
ATOM      6  C   UNL     1       0.955  -2.140   0.868  0.00  0.00    +0.015 A 
ATOM      7  S   UNL     1       1.946  -3.492   1.437  0.00  0.00    -0.056 S 
ATOM      8  C   UNL     1       0.741  -4.670   1.422  0.00  0.00    +0.178 A 
ATOM      9  N   UNL     1      -0.317  -4.009   1.003  0.00  0.00    -0.228 NA
ATOM     10  N   UNL     1       0.840  -6.008   1.767  0.00  0.00    -0.215 N 
ATOM     11  C   UNL     1       1.336  -0.720   0.616  0.00  0.00    +0.047 C 
ATOM     12  H   UNL     1       1.689  -6.371   2.064  0.00  0.00    +0.176 HD
ENDROOT
BRANCH  10  13
ATOM     13  N   UNL     1      -0.287  -6.837   1.688  0.00  0.00    -0.188 NA
ATOM     14  C   UNL     1      -0.226  -8.059   2.122  0.00  0.00    +0.138 C 
BRANCH  14  15
ATOM     15  C   UNL     1       0.808  -8.443   3.100  0.00  0.00    -0.002 A 
ATOM     16  C   UNL     1       1.536  -7.458   3.774  0.00  0.00    +0.010 A 
ATOM     17  C   UNL     1       2.503  -7.822   4.689  0.00  0.00    +0.004 A 
ATOM     18  C   UNL     1       2.755  -9.158   4.942  0.00  0.00    +0.045 A 
ATOM     19  C   UNL     1       2.037 -10.143   4.277  0.00  0.00    +0.117 A 
ATOM     20  C   UNL     1       1.060  -9.791   3.361  0.00  0.00    +0.054 A 
BRANCH  19  21
ATOM     21  O   UNL     1       2.289 -11.455   4.530  0.00  0.00    -0.507 OA
ATOM     22  H   UNL     1       1.757 -11.826   5.247  0.00  0.00    +0.292 HD
ENDBRANCH  19  21
ENDBRANCH  14  15
ENDBRANCH  10  13
TORSDOF 3
