REMARK  Name = ZINC16010131
REMARK  4 active torsions:
REMARK  status: ('A' for Active; 'I' for Inactive)
REMARK    1  A    between atoms: C_12  and  C_15
REMARK    2  A    between atoms: C_15  and  C_16
REMARK    3  A    between atoms: C_16  and  C_17
REMARK    4  A    between atoms: N_22  and  C_25
REMARK                            x       y       z     vdW  Elec       q    Type
REMARK                         _______ _______ _______ _____ _____    ______ ____
ROOT
ATOM      1  C   UNL     1      -0.077   1.296  -0.315  0.00  0.00    +0.000 A 
ATOM      2  C   UNL     1       1.107   1.947  -0.612  0.00  0.00    +0.002 A 
ATOM      3  C   UNL     1       2.271   1.229  -0.793  0.00  0.00    +0.023 A 
ATOM      4  C   UNL     1       2.263  -0.159  -0.678  0.00  0.00    +0.039 A 
ATOM      5  C   UNL     1       1.066  -0.804  -0.380  0.00  0.00    +0.003 A 
ATOM      6  C   UNL     1      -0.093  -0.083  -0.200  0.00  0.00    +0.008 A 
ATOM      7  C   UNL     1       1.391  -2.269  -0.328  0.00  0.00    +0.136 C 
ATOM      8  C   UNL     1       1.056  -2.871   1.042  0.00  0.00    +0.123 C 
ATOM      9  C   UNL     1      -0.331  -3.545   0.844  0.00  0.00    +0.107 C 
ATOM     10  C   UNL     1      -0.707  -3.256  -0.625  0.00  0.00    +0.068 C 
ATOM     11  N   UNL     1       0.601  -3.035  -1.310  0.00  0.00    -0.295 NA
ATOM     12  C   UNL     1      -0.032  -5.016   1.018  0.00  0.00    +0.232 C 
ATOM     13  O   UNL     1      -0.846  -5.911   0.931  0.00  0.00    -0.274 OA
ATOM     14  N   UNL     1       1.269  -5.178   1.282  0.00  0.00    -0.210 N 
ATOM     15  C   UNL     1       1.984  -4.030   1.330  0.00  0.00    +0.233 C 
ATOM     16  O   UNL     1       3.170  -3.936   1.561  0.00  0.00    -0.274 OA
ATOM     17  C   UNL     1       2.864  -2.354  -0.621  0.00  0.00    +0.243 C 
ATOM     18  O   UNL     1       3.535  -3.364  -0.674  0.00  0.00    -0.273 OA
ATOM     19  N   UNL     1       3.293  -1.092  -0.815  0.00  0.00    -0.283 N 
ATOM     20  H   UNL     1       0.474  -2.507  -2.161  0.00  0.00    +0.123 HD
ATOM     21  H   UNL     1       4.211  -0.859  -1.024  0.00  0.00    +0.155 HD
ENDROOT
BRANCH  14  22
ATOM     22  C   UNL     1       1.849  -6.436   1.499  0.00  0.00    +0.045 A 
ATOM     23  C   UNL     1       1.937  -7.350   0.458  0.00  0.00    +0.027 A 
ATOM     24  C   UNL     1       2.508  -8.589   0.673  0.00  0.00    +0.041 A 
ATOM     25  C   UNL     1       2.994  -8.921   1.926  0.00  0.00    +0.142 A 
ATOM     26  C   UNL     1       2.908  -8.010   2.967  0.00  0.00    +0.078 A 
ATOM     27  C   UNL     1       2.341  -6.767   2.754  0.00  0.00    +0.046 A 
ATOM     28 CL   UNL     1       3.517  -8.428   4.538  0.00  0.00    -0.081 Cl
ATOM     29  F   UNL     1       3.552 -10.133   2.135  0.00  0.00    -0.204 F 
ENDBRANCH  14  22
BRANCH  10  30
ATOM     30  C   UNL     1      -1.418  -4.462  -1.240  0.00  0.00    +0.028 C 
BRANCH  30  31
ATOM     31  C   UNL     1      -1.891  -4.110  -2.652  0.00  0.00    +0.097 C 
BRANCH  31  32
ATOM     32  C   UNL     1      -2.592  -5.298  -3.258  0.00  0.00    +0.211 C 
ATOM     33  O   UNL     1      -2.703  -6.326  -2.623  0.00  0.00    -0.276 OA
ATOM     34  N   UNL     1      -3.097  -5.219  -4.505  0.00  0.00    -0.329 N 
ATOM     35  H   UNL     1      -3.008  -4.397  -5.013  0.00  0.00    +0.145 HD
ATOM     36  H   UNL     1      -3.548  -5.984  -4.895  0.00  0.00    +0.145 HD
ENDBRANCH  31  32
ENDBRANCH  30  31
ENDBRANCH  10  30
TORSDOF 4
