REMARK  Name = ZINC52240072
REMARK  4 active torsions:
REMARK  status: ('A' for Active; 'I' for Inactive)
REMARK    1  A    between atoms: C_4  and  C_7
REMARK    2  A    between atoms: C_7  and  C_9
REMARK    3  A    between atoms: C_7  and  N_15
REMARK    4  A    between atoms: C_21  and  C_23
REMARK                            x       y       z     vdW  Elec       q    Type
REMARK                         _______ _______ _______ _____ _____    ______ ____
ROOT
ATOM      1  C   UNL     1       4.165  -0.162   0.373  0.00  0.00    +0.174 C 
ENDROOT
BRANCH   1   2
ATOM      2  C   UNL     1       4.637  -0.417  -1.036  0.00  0.00    +0.242 C 
ATOM      3  O   UNL     1       4.814  -1.554  -1.419  0.00  0.00    -0.273 OA
ATOM      4  N   UNL     1       4.863   0.618  -1.869  0.00  0.00    -0.239 N 
ATOM      5  C   UNL     1       5.285   0.390  -3.128  0.00  0.00    +0.303 C 
ATOM      6  O   UNL     1       5.462  -0.750  -3.512  0.00  0.00    -0.253 OA
ATOM      7  N   UNL     1       5.512   1.425  -3.961  0.00  0.00    -0.313 N 
ATOM      8  H   UNL     1       4.722   1.527  -1.562  0.00  0.00    +0.159 HD
ATOM      9  H   UNL     1       5.370   2.334  -3.654  0.00  0.00    +0.146 HD
ATOM     10  H   UNL     1       5.815   1.260  -4.867  0.00  0.00    +0.146 HD
ENDBRANCH   1   2
BRANCH   1  11
ATOM     11  N   UNL     1       3.994  -1.442   1.072  0.00  0.00    -0.285 NA
ATOM     12  C   UNL     1       3.437  -1.238   2.416  0.00  0.00    +0.104 C 
ATOM     13  C   UNL     1       3.105  -2.598   3.039  0.00  0.00    +0.123 C 
ATOM     14  N   UNL     1       4.309  -3.442   2.986  0.00  0.00    -0.295 N 
ATOM     15  C   UNL     1       5.003  -3.584   1.698  0.00  0.00    +0.123 C 
ATOM     16  C   UNL     1       5.260  -2.185   1.127  0.00  0.00    +0.104 C 
ATOM     17  C   UNL     1       4.763  -4.069   4.090  0.00  0.00    +0.247 C 
ATOM     18  O   UNL     1       4.243  -3.855   5.168  0.00  0.00    -0.270 OA
BRANCH  17  19
ATOM     19  C   UNL     1       5.887  -5.014   3.989  0.00  0.00    +0.044 A 
ATOM     20  C   UNL     1       6.861  -5.144   5.046  0.00  0.00    +0.020 A 
ATOM     21  C   UNL     1       7.841  -6.045   4.831  0.00  0.00    +0.046 A 
ATOM     22  S   UNL     1       7.443  -6.698   3.224  0.00  0.00    -0.104 S 
ATOM     23  C   UNL     1       6.056  -5.818   2.884  0.00  0.00    +0.058 A 
ENDBRANCH  17  19
ENDBRANCH   1  11
BRANCH   1  27
ATOM     24  C   UNL     1       0.433   1.915   0.267  0.00  0.00    +0.000 A 
ATOM     25  C   UNL     1       1.605   2.611   0.498  0.00  0.00    +0.000 A 
ATOM     26  C   UNL     1       2.813   1.939   0.532  0.00  0.00    +0.005 A 
ATOM     27  C   UNL     1       2.849   0.571   0.336  0.00  0.00    -0.021 A 
ATOM     28  C   UNL     1       1.677  -0.125   0.106  0.00  0.00    +0.005 A 
ATOM     29  C   UNL     1       0.469   0.547   0.070  0.00  0.00    +0.000 A 
ENDBRANCH   1  27
TORSDOF 4
