REMARK  Name = ZINC63182702
REMARK  10 active torsions:
REMARK  status: ('A' for Active; 'I' for Inactive)
REMARK    1  A    between atoms: C_1  and  O_2
REMARK    2  A    between atoms: O_2  and  C_3
REMARK    3  A    between atoms: C_6  and  C_9
REMARK    4  A    between atoms: C_11  and  N_32
REMARK    5  A    between atoms: C_12  and  C_14
REMARK    6  A    between atoms: N_16  and  N_17
REMARK    7  A    between atoms: C_18  and  C_20
REMARK    8  A    between atoms: C_20  and  C_21
REMARK    9  A    between atoms: C_21  and  C_22
REMARK   10  A    between atoms: C_22  and  C_23
REMARK                            x       y       z     vdW  Elec       q    Type
REMARK                         _______ _______ _______ _____ _____    ______ ____
ROOT
ATOM      1  C   UNL     1       4.476  -3.376  -7.840  0.00  0.00    +0.269 C 
ATOM      2  O   UNL     1       4.724  -4.486  -8.275  0.00  0.00    -0.268 OA
ATOM      3  N   UNL     1       4.865  -2.281  -8.524  0.00  0.00    -0.230 N 
ATOM      4  H   UNL     1       4.667  -1.397  -8.177  0.00  0.00    +0.173 HD
ENDROOT
BRANCH   1   8
ATOM      5  C   UNL     1       2.493  -2.492  -4.362  0.00  0.00    +0.022 A 
ATOM      6  C   UNL     1       2.641  -3.842  -4.621  0.00  0.00    +0.039 A 
ATOM      7  C   UNL     1       3.294  -4.228  -5.766  0.00  0.00    +0.045 A 
ATOM      8  C   UNL     1       3.779  -3.235  -6.618  0.00  0.00    +0.096 A 
ATOM      9  S   UNL     1       3.288  -1.742  -5.773  0.00  0.00    -0.082 S 
BRANCH   5  13
ATOM     10  C   UNL     1       0.606  -0.607  -1.055  0.00  0.00    +0.120 A 
ATOM     11  C   UNL     1       1.172   0.165  -2.061  0.00  0.00    +0.046 A 
ATOM     12  C   UNL     1       1.786  -0.443  -3.136  0.00  0.00    +0.012 A 
ATOM     13  C   UNL     1       1.837  -1.836  -3.212  0.00  0.00    -0.011 A 
ATOM     14  C   UNL     1       1.266  -2.608  -2.198  0.00  0.00    +0.012 A 
ATOM     15  C   UNL     1       0.659  -1.993  -1.124  0.00  0.00    +0.046 A 
BRANCH  10  17
ATOM     16  C   UNL     1      -0.017   1.425   0.010  0.00  0.00    +0.277 C 
ATOM     17  O   UNL     1       0.002  -0.004   0.002  0.00  0.00    -0.495 OA
ENDBRANCH  10  17
ENDBRANCH   5  13
BRANCH   7  18
ATOM     18  N   UNL     1       3.468  -5.576  -6.069  0.00  0.00    -0.357 N 
ATOM     19  H   UNL     1       3.126  -6.257  -5.468  0.00  0.00    +0.142 HD
ATOM     20  H   UNL     1       3.931  -5.835  -6.881  0.00  0.00    +0.142 HD
ENDBRANCH   7  18
ENDBRANCH   1   8
BRANCH   3  21
ATOM     21  N   UNL     1       5.555  -2.421  -9.735  0.00  0.00    -0.234 N 
ATOM     22  C   UNL     1       5.944  -1.326 -10.419  0.00  0.00    +0.229 C 
ATOM     23  O   UNL     1       5.697  -0.221  -9.985  0.00  0.00    -0.274 OA
ATOM     24  H   UNL     1       5.753  -3.305 -10.081  0.00  0.00    +0.173 HD
BRANCH  22  25
ATOM     25  C   UNL     1       6.687  -1.476 -11.721  0.00  0.00    +0.097 C 
BRANCH  25  26
ATOM     26  C   UNL     1       7.009  -0.092 -12.287  0.00  0.00    +0.014 C 
BRANCH  26  27
ATOM     27  C   UNL     1       7.763  -0.244 -13.610  0.00  0.00    +0.033 C 
BRANCH  27  28
ATOM     28  C   UNL     1       8.080   1.120 -14.167  0.00  0.00    -0.042 C 
ATOM     29  C   UNL     1       9.230   1.814 -14.013  0.00  0.00    -0.001 A 
ATOM     30  C   UNL     1      10.483   1.519 -13.307  0.00  0.00    +0.010 A 
ATOM     31  C   UNL     1      11.481   2.431 -13.332  0.00  0.00    +0.001 A 
ATOM     32  C   UNL     1      11.349   3.649 -14.013  0.00  0.00    +0.002 A 
ATOM     33  C   UNL     1      10.229   3.992 -14.685  0.00  0.00    +0.026 A 
ATOM     34  C   UNL     1       9.117   3.107 -14.726  0.00  0.00    +0.043 A 
ATOM     35  N   UNL     1       7.941   3.208 -15.297  0.00  0.00    -0.380 N 
ATOM     36  C   UNL     1       7.178   1.987 -15.017  0.00  0.00    +0.144 C 
ATOM     37  H   UNL     1       7.630   3.963 -15.821  0.00  0.00    +0.160 HD
ENDBRANCH  27  28
ENDBRANCH  26  27
ENDBRANCH  25  26
ENDBRANCH  22  25
ENDBRANCH   3  21
TORSDOF 9
