REMARK  Name = ZINC12496955
REMARK  7 active torsions:
REMARK  status: ('A' for Active; 'I' for Inactive)
REMARK    1  A    between atoms: C_1  and  C_2
REMARK    2  A    between atoms: C_2  and  O_3
REMARK    3  A    between atoms: O_3  and  C_4
REMARK    4  A    between atoms: C_4  and  C_6
REMARK    5  A    between atoms: C_6  and  C_31
REMARK    6  A    between atoms: C_11  and  C_13
REMARK    7  A    between atoms: N_22  and  C_25
REMARK                            x       y       z     vdW  Elec       q    Type
REMARK                         _______ _______ _______ _____ _____    ______ ____
ROOT
ATOM      1  C   UNL     1      -3.680   4.811   0.002  0.00  0.00    +0.041 C 
ATOM      2  C   UNL     1      -2.739   3.708  -0.320  0.00  0.00    +0.086 C 
ATOM      3  C   UNL     1      -3.431   2.493   0.416  0.00  0.00    +0.077 C 
ATOM      4  C   UNL     1      -4.825   2.688  -0.129  0.00  0.00    -0.027 C 
ATOM      5  C   UNL     1      -2.461   1.448   0.016  0.00  0.00    +0.229 C 
ATOM      6  O   UNL     1      -2.695   0.290  -0.255  0.00  0.00    -0.275 OA
ATOM      7  N   UNL     1      -1.240   2.070   0.019  0.00  0.00    -0.210 N 
ATOM      8  C   UNL     1      -1.345   3.438   0.027  0.00  0.00    +0.229 C 
ATOM      9  O   UNL     1      -0.474   4.246   0.269  0.00  0.00    -0.275 OA
ATOM     10  C   UNL     1      -3.617   5.897  -1.073  0.00  0.00    +0.002 C 
ATOM     11  N   UNL     1      -5.016   4.162   0.025  0.00  0.00    +0.395 N 
ATOM     12  H   UNL     1      -5.589   4.521  -0.748  0.00  0.00    -0.083 HD
ATOM     13  H   UNL     1      -5.482   4.360   0.918  0.00  0.00    -0.083 HD
ENDROOT
BRANCH   4  14
ATOM     14  C   UNL     1      -5.832   1.917   0.685  0.00  0.00    -0.060 A 
ATOM     15  C   UNL     1      -6.281   2.425   1.890  0.00  0.00    +0.005 A 
ATOM     16  C   UNL     1      -7.208   1.722   2.635  0.00  0.00    +0.038 A 
ATOM     17  C   UNL     1      -7.678   0.501   2.180  0.00  0.00    +0.123 A 
ATOM     18  C   UNL     1      -7.223  -0.010   0.976  0.00  0.00    +0.038 A 
ATOM     19  C   UNL     1      -6.300   0.699   0.230  0.00  0.00    +0.005 A 
ATOM     20  F   UNL     1      -8.580  -0.191   2.911  0.00  0.00    -0.205 F 
ENDBRANCH   4  14
BRANCH   7  21
ATOM     21  C   UNL     1      -0.017   1.384   0.010  0.00  0.00    +0.044 A 
ATOM     22  C   UNL     1       1.178   2.092   0.002  0.00  0.00    +0.024 A 
ATOM     23  C   UNL     1       2.381   1.413  -0.013  0.00  0.00    +0.002 A 
ATOM     24  C   UNL     1       2.396   0.031  -0.021  0.00  0.00    +0.000 A 
ATOM     25  C   UNL     1       1.208  -0.677  -0.013  0.00  0.00    +0.002 A 
ATOM     26  C   UNL     1       0.002  -0.004   0.002  0.00  0.00    +0.024 A 
ENDBRANCH   7  21
BRANCH   1  27
ATOM     27  C   UNL     1      -3.366   5.391   1.357  0.00  0.00    +0.297 C 
ATOM     28  O   UNL     1      -2.250   5.299   1.810  0.00  0.00    -0.252 OA
BRANCH  27  29
ATOM     29  O   UNL     1      -4.327   6.011   2.061  0.00  0.00    -0.466 OA
BRANCH  29  31
ATOM     30  C   UNL     1      -5.169   7.210   4.005  0.00  0.00    +0.048 C 
ATOM     31  C   UNL     1      -3.952   6.546   3.357  0.00  0.00    +0.228 C 
ENDBRANCH  29  31
ENDBRANCH  27  29
ENDBRANCH   1  27
TORSDOF 5
