REMARK  Name = ZINC08790906
REMARK  5 active torsions:
REMARK  status: ('A' for Active; 'I' for Inactive)
REMARK    1  A    between atoms: C_16  and  C_18
REMARK    2  A    between atoms: C_18  and  C_19
REMARK    3  A    between atoms: C_19  and  C_20
REMARK    4  A    between atoms: N_25  and  C_28
REMARK    5  A    between atoms: C_28  and  C_29
REMARK                            x       y       z     vdW  Elec       q    Type
REMARK                         _______ _______ _______ _____ _____    ______ ____
ROOT
ATOM      1  C   UNL     1       3.826   4.685   4.956  0.00  0.00    +0.002 A 
ATOM      2  C   UNL     1       2.712   4.013   4.486  0.00  0.00    +0.004 A 
ATOM      3  C   UNL     1       2.681   2.637   4.495  0.00  0.00    -0.026 A 
ATOM      4  C   UNL     1       3.764   1.907   4.975  0.00  0.00    +0.054 A 
ATOM      5  C   UNL     1       4.883   2.590   5.446  0.00  0.00    +0.062 A 
ATOM      6  C   UNL     1       4.909   3.971   5.435  0.00  0.00    +0.022 A 
ATOM      7 CL   UNL     1       6.249   1.704   6.050  0.00  0.00    -0.082 Cl
ATOM      8  N   UNL     1       3.501   0.537   4.886  0.00  0.00    -0.285 N 
ATOM      9  C   UNL     1       2.284   0.287   4.366  0.00  0.00    +0.211 C 
ATOM     10  O   UNL     1       1.789  -0.804   4.175  0.00  0.00    -0.277 OA
ATOM     11  C   UNL     1       1.658   1.622   4.070  0.00  0.00    +0.050 C 
ATOM     12  C   UNL     1       0.337   1.803   4.827  0.00  0.00    +0.088 C 
ATOM     13  C   UNL     1      -0.763   1.452   3.787  0.00  0.00    +0.073 C 
ATOM     14  C   UNL     1       0.011   1.072   2.506  0.00  0.00    -0.057 C 
ATOM     15  C   UNL     1      -1.405   0.212   4.365  0.00  0.00    +0.224 C 
ATOM     16  O   UNL     1      -2.324  -0.399   3.864  0.00  0.00    -0.275 OA
ATOM     17  N   UNL     1      -0.801  -0.107   5.516  0.00  0.00    -0.237 N 
ATOM     18  C   UNL     1       0.191   0.717   5.869  0.00  0.00    +0.225 C 
ATOM     19  O   UNL     1       0.868   0.611   6.869  0.00  0.00    -0.275 OA
ATOM     20  H   UNL     1       4.123  -0.153   5.167  0.00  0.00    +0.155 HD
ATOM     21  N   UNL     1       1.306   1.738   2.665  0.00  0.00    +0.394 N 
ATOM     22  H   UNL     1       2.015   1.278   2.083  0.00  0.00    -0.083 HD
ATOM     23  H   UNL     1       1.232   2.727   2.398  0.00  0.00    -0.083 HD
ENDROOT
BRANCH  14  24
ATOM     24  C   UNL     1      -0.729   1.579   1.267  0.00  0.00    -0.006 C 
BRANCH  24  25
ATOM     25  C   UNL     1      -0.013   1.086   0.008  0.00  0.00    +0.094 C 
BRANCH  25  26
ATOM     26  C   UNL     1      -0.742   1.585  -1.213  0.00  0.00    +0.210 C 
ATOM     27  O   UNL     1      -1.736   2.268  -1.088  0.00  0.00    -0.276 OA
ATOM     28  N   UNL     1      -0.288   1.272  -2.443  0.00  0.00    -0.329 N 
ATOM     29  H   UNL     1       0.507   0.726  -2.543  0.00  0.00    +0.145 HD
ATOM     30  H   UNL     1      -0.758   1.594  -3.229  0.00  0.00    +0.145 HD
ENDBRANCH  25  26
ENDBRANCH  24  25
ENDBRANCH  14  24
BRANCH  17  31
ATOM     31  C   UNL     1      -1.196  -1.264   6.323  0.00  0.00    +0.151 C 
BRANCH  31  32
ATOM     32  C   UNL     1      -0.405  -2.472   5.890  0.00  0.00    -0.026 A 
ATOM     33  C   UNL     1       0.807  -2.755   6.492  0.00  0.00    +0.009 A 
ATOM     34  C   UNL     1       1.535  -3.862   6.098  0.00  0.00    +0.050 A 
ATOM     35  C   UNL     1       1.053  -4.690   5.098  0.00  0.00    +0.166 A 
ATOM     36  C   UNL     1      -0.168  -4.404   4.491  0.00  0.00    +0.167 A 
ATOM     37  C   UNL     1      -0.896  -3.297   4.895  0.00  0.00    +0.054 A 
ATOM     38  O   UNL     1      -0.420  -5.358   3.547  0.00  0.00    -0.453 OA
ATOM     39  C   UNL     1       0.458  -6.455   3.865  0.00  0.00    +0.466 C 
ATOM     40  O   UNL     1       1.565  -5.823   4.535  0.00  0.00    -0.453 OA
ENDBRANCH  31  32
ENDBRANCH  17  31
TORSDOF 5
