REMARK  Name = ZINC35557552
REMARK  5 active torsions:
REMARK  status: ('A' for Active; 'I' for Inactive)
REMARK    1  A    between atoms: C_6  and  N_7
REMARK    2  A    between atoms: N_7  and  S_8
REMARK    3  A    between atoms: S_8  and  C_11
REMARK    4  A    between atoms: C_13  and  C_16
REMARK    5  A    between atoms: C_18  and  C_21
REMARK                            x       y       z     vdW  Elec       q    Type
REMARK                         _______ _______ _______ _____ _____    ______ ____
ROOT
ATOM      1  C   UNL     1      -2.850  -2.921   0.015  0.00  0.00    +0.148 A 
ATOM      2  C   UNL     1      -3.666  -3.183  -1.032  0.00  0.00    +0.048 A 
ATOM      3  C   UNL     1      -4.958  -3.605  -0.719  0.00  0.00    +0.031 A 
ATOM      4  C   UNL     1      -5.298  -3.719   0.595  0.00  0.00    +0.058 A 
ATOM      5  S   UNL     1      -3.899  -3.275   1.411  0.00  0.00    -0.076 S 
ENDROOT
BRANCH   3   6
ATOM      6  C   UNL     1      -5.936  -3.919  -1.788  0.00  0.00    +0.203 A 
ATOM      7  N   UNL     1      -7.204  -4.326  -1.598  0.00  0.00    -0.191 NA
ATOM      8  C   UNL     1      -7.789  -4.514  -2.746  0.00  0.00    +0.231 A 
ATOM      9  O   UNL     1      -6.915  -4.233  -3.720  0.00  0.00    -0.337 OA
ATOM     10  N   UNL     1      -5.711  -3.841  -3.078  0.00  0.00    -0.056 NA
BRANCH   8  11
ATOM     11  C   UNL     1      -9.212  -4.971  -2.944  0.00  0.00    +0.078 C 
ATOM     12  C   UNL     1      -9.239  -6.259  -3.793  0.00  0.00    +0.013 C 
ATOM     13  C   UNL     1     -10.496  -6.100  -4.684  0.00  0.00    +0.001 C 
ATOM     14  C   UNL     1     -10.482  -4.590  -5.029  0.00  0.00    +0.001 C 
ATOM     15  C   UNL     1     -10.002  -3.910  -3.730  0.00  0.00    +0.013 C 
ENDBRANCH   8  11
ENDBRANCH   3   6
BRANCH   1  16
ATOM     16  S   UNL     1      -1.175  -2.376   0.001  0.00  0.00    +0.098 S 
ATOM     17  O   UNL     1      -0.631  -2.768  -1.252  0.00  0.00    -0.148 OA
ATOM     18  O   UNL     1      -0.606  -2.781   1.239  0.00  0.00    -0.148 OA
BRANCH  16  19
ATOM     19  N   UNL     1      -1.199  -0.721   0.010  0.00  0.00    -0.097 NA
BRANCH  19  25
ATOM     20  C   UNL     1      -0.017   1.384   0.010  0.00  0.00    +0.029 A 
ATOM     21  C   UNL     1       1.171   2.091   0.002  0.00  0.00    +0.042 A 
ATOM     22  C   UNL     1       2.379   1.416  -0.013  0.00  0.00    +0.142 A 
ATOM     23  C   UNL     1       2.401   0.030  -0.022  0.00  0.00    +0.078 A 
ATOM     24  C   UNL     1       1.215  -0.680  -0.014  0.00  0.00    +0.049 A 
ATOM     25  C   UNL     1       0.002  -0.004   0.002  0.00  0.00    +0.076 A 
ATOM     26 CL   UNL     1       3.918  -0.814  -0.042  0.00  0.00    -0.081 Cl
ATOM     27  F   UNL     1       3.538   2.109  -0.021  0.00  0.00    -0.204 F 
ENDBRANCH  19  25
ENDBRANCH  16  19
ENDBRANCH   1  16
TORSDOF 5
