REMARK  Name = ZINC56206790
REMARK  11 active torsions:
REMARK  status: ('A' for Active; 'I' for Inactive)
REMARK    1  A    between atoms: C_1  and  C_2
REMARK    2  A    between atoms: C_5  and  C_27
REMARK    3  A    between atoms: C_6  and  N_8
REMARK    4  A    between atoms: C_9  and  C_11
REMARK    5  A    between atoms: C_11  and  C_13
REMARK    6  A    between atoms: C_11  and  N_14
REMARK    7  A    between atoms: N_14  and  C_15
REMARK    8  A    between atoms: C_18  and  O_22
REMARK    9  A    between atoms: C_20  and  C_21
REMARK   10  A    between atoms: O_22  and  C_23
REMARK   11  A    between atoms: C_23  and  C_24
REMARK                            x       y       z     vdW  Elec       q    Type
REMARK                         _______ _______ _______ _____ _____    ______ ____
ROOT
ATOM      1  N   UNL     1       0.370  -1.959   5.972  0.00  0.00    -0.333 N 
ATOM      2  H   UNL     1       0.700  -1.059   5.824  0.00  0.00    +0.147 HD
ENDROOT
BRANCH   1   3
ATOM      3  C   UNL     1      -0.021  -2.358   7.255  0.00  0.00    +0.031 A 
ATOM      4  C   UNL     1      -0.488  -3.648   7.470  0.00  0.00    +0.027 A 
ATOM      5  C   UNL     1      -0.872  -4.041   8.736  0.00  0.00    +0.047 A 
ATOM      6  C   UNL     1      -0.793  -3.148   9.795  0.00  0.00    +0.122 A 
ATOM      7  C   UNL     1      -0.327  -1.859   9.581  0.00  0.00    +0.050 A 
ATOM      8  C   UNL     1       0.064  -1.466   8.316  0.00  0.00    -0.026 A 
ATOM      9  C   UNL     1       0.576  -0.068   8.086  0.00  0.00    +0.046 C 
BRANCH   6  10
ATOM     10  O   UNL     1      -1.172  -3.536  11.042  0.00  0.00    -0.483 OA
BRANCH  10  11
ATOM     11  C   UNL     1      -1.643  -4.877  11.189  0.00  0.00    +0.324 C 
BRANCH  11  12
ATOM     12  C   UNL     1      -2.015  -5.124  12.628  0.00  0.00    +0.248 C 
ATOM     13  O   UNL     1      -1.889  -4.238  13.447  0.00  0.00    -0.272 OA
ATOM     14  N   UNL     1      -2.486  -6.329  13.005  0.00  0.00    -0.327 N 
ATOM     15  H   UNL     1      -2.587  -7.037  12.350  0.00  0.00    +0.145 HD
ATOM     16  H   UNL     1      -2.726  -6.487  13.932  0.00  0.00    +0.145 HD
ENDBRANCH  11  12
ENDBRANCH  10  11
ENDBRANCH   6  10
ENDBRANCH   1   3
BRANCH   1  17
ATOM     17  C   UNL     1       0.280  -2.900   4.854  0.00  0.00    +0.154 C 
ATOM     18  C   UNL     1       1.543  -3.763   4.810  0.00  0.00    +0.038 C 
BRANCH  17  20
ATOM     19  N   UNL     1       0.052  -2.797   2.393  0.00  0.00    -0.284 N 
ATOM     20  C   UNL     1       0.150  -2.135   3.562  0.00  0.00    +0.237 C 
ATOM     21  O   UNL     1       0.134  -0.922   3.575  0.00  0.00    -0.273 OA
ATOM     22  H   UNL     1      -0.016  -3.765   2.388  0.00  0.00    +0.155 HD
BRANCH  19  28
ATOM     23  C   UNL     1       1.264   1.227  -0.158  0.00  0.00    +0.044 C 
ATOM     24  C   UNL     1       0.628  -0.137  -0.079  0.00  0.00    -0.049 A 
ATOM     25  C   UNL     1       0.039  -0.690  -1.201  0.00  0.00    +0.004 A 
ATOM     26  C   UNL     1      -0.546  -1.941  -1.133  0.00  0.00    +0.005 A 
ATOM     27  C   UNL     1      -0.543  -2.643   0.057  0.00  0.00    -0.029 A 
ATOM     28  C   UNL     1       0.048  -2.090   1.185  0.00  0.00    +0.037 A 
ATOM     29  C   UNL     1       0.639  -0.835   1.112  0.00  0.00    +0.027 A 
ATOM     30  C   UNL     1      -1.181  -4.006   0.131  0.00  0.00    +0.045 C 
ENDBRANCH  19  28
ENDBRANCH  17  20
ENDBRANCH   1  17
TORSDOF 7
