REMARK  Name = ZINC01445620
REMARK  4 active torsions:
REMARK  status: ('A' for Active; 'I' for Inactive)
REMARK    1  A    between atoms: C_4  and  C_7
REMARK    2  A    between atoms: C_9  and  C_21
REMARK    3  A    between atoms: N_13  and  C_14
REMARK    4  A    between atoms: N_24  and  C_25
REMARK                            x       y       z     vdW  Elec       q    Type
REMARK                         _______ _______ _______ _____ _____    ______ ____
ROOT
ATOM      1  C   UNL     1       3.711  -0.707  -0.038  0.00  0.00    +0.150 C 
ATOM      2  C   UNL     1       4.032  -1.234   1.342  0.00  0.00    +0.072 C 
ATOM      3  C   UNL     1       4.109  -2.586   1.234  0.00  0.00    +0.249 C 
ATOM      4  C   UNL     1       3.854  -2.975  -0.157  0.00  0.00    +0.292 C 
ATOM      5  O   UNL     1       3.854  -4.120  -0.570  0.00  0.00    -0.266 OA
ATOM      6  N   UNL     1       3.621  -1.884  -0.910  0.00  0.00    -0.253 N 
ATOM      7  O   UNL     1       4.380  -3.442   2.252  0.00  0.00    -0.282 OA
ENDROOT
BRANCH   2   8
ATOM      8  C   UNL     1       4.216  -0.468   2.518  0.00  0.00    +0.143 C 
ATOM      9  C   UNL     1       4.123   0.888   2.577  0.00  0.00    +0.081 C 
ATOM     10  C   UNL     1       4.371   1.272   3.921  0.00  0.00    +0.152 C 
ATOM     11  N   UNL     1       4.379   2.493   4.420  0.00  0.00    -0.241 NA
ATOM     12  C   UNL     1       4.619  -0.003   4.645  0.00  0.00    +0.363 C 
ATOM     13  O   UNL     1       4.872  -0.132   5.826  0.00  0.00    -0.243 OA
ATOM     14  O   UNL     1       4.501  -0.986   3.732  0.00  0.00    -0.421 OA
BRANCH  11  15
ATOM     15  C   UNL     1       4.636   2.686   5.733  0.00  0.00    +0.065 A 
ATOM     16  C   UNL     1       4.024   1.872   6.697  0.00  0.00    +0.028 A 
ATOM     17  C   UNL     1       4.291   2.075   8.034  0.00  0.00    +0.002 A 
ATOM     18  C   UNL     1       5.160   3.080   8.425  0.00  0.00    +0.000 A 
ATOM     19  C   UNL     1       5.769   3.889   7.480  0.00  0.00    +0.002 A 
ATOM     20  C   UNL     1       5.519   3.696   6.139  0.00  0.00    +0.028 A 
ENDBRANCH  11  15
ENDBRANCH   2   8
BRANCH   1  24
ATOM     21  C   UNL     1      -0.017   1.378   0.010  0.00  0.00    +0.000 A 
ATOM     22  C   UNL     1       1.171   2.086   0.002  0.00  0.00    +0.000 A 
ATOM     23  C   UNL     1       2.377   1.411  -0.013  0.00  0.00    +0.006 A 
ATOM     24  C   UNL     1       2.396   0.029  -0.020  0.00  0.00    -0.022 A 
ATOM     25  C   UNL     1       1.208  -0.679  -0.012  0.00  0.00    +0.006 A 
ATOM     26  C   UNL     1       0.002  -0.004   0.002  0.00  0.00    +0.000 A 
ENDBRANCH   1  24
BRANCH   6  27
ATOM     27  C   UNL     1       3.341  -1.873  -2.280  0.00  0.00    +0.038 A 
ATOM     28  C   UNL     1       3.124  -0.668  -2.936  0.00  0.00    +0.023 A 
ATOM     29  C   UNL     1       2.849  -0.660  -4.289  0.00  0.00    +0.002 A 
ATOM     30  C   UNL     1       2.788  -1.851  -4.991  0.00  0.00    +0.000 A 
ATOM     31  C   UNL     1       3.004  -3.052  -4.340  0.00  0.00    +0.002 A 
ATOM     32  C   UNL     1       3.285  -3.066  -2.989  0.00  0.00    +0.023 A 
ENDBRANCH   6  27
TORSDOF 4
