REMARK  Name = ZINC61592700
REMARK  6 active torsions:
REMARK  status: ('A' for Active; 'I' for Inactive)
REMARK    1  A    between atoms: C_1  and  N_2
REMARK    2  A    between atoms: C_8  and  S_9
REMARK    3  A    between atoms: S_9  and  C_10
REMARK    4  A    between atoms: C_10  and  C_12
REMARK    5  A    between atoms: C_10  and  C_14
REMARK    6  A    between atoms: C_12  and  N_13
REMARK                            x       y       z     vdW  Elec       q    Type
REMARK                         _______ _______ _______ _____ _____    ______ ____
ROOT
ATOM      1  C   UNL     1      -0.087  -1.801   3.747  0.00  0.00    +0.073 C 
ENDROOT
BRANCH   1   2
ATOM      2  C   UNL     1      -0.139  -1.352   5.185  0.00  0.00    +0.002 A 
ATOM      3  C   UNL     1       0.686  -1.677   6.210  0.00  0.00    +0.027 A 
ATOM      4  C   UNL     1       0.445  -1.139   7.461  0.00  0.00    +0.025 A 
ATOM      5  C   UNL     1      -0.610  -0.303   7.624  0.00  0.00    +0.060 A 
ATOM      6  S   UNL     1      -1.296  -0.248   5.977  0.00  0.00    -0.099 S 
ATOM      7 BR   UNL     1       1.568  -1.564   8.922  0.00  0.00    -0.050 Br
ENDBRANCH   1   2
BRANCH   1   8
ATOM      8  S   UNL     1       0.115  -0.356   2.669  0.00  0.00    -0.079 S 
BRANCH   8  16
ATOM      9  C   UNL     1       0.380   1.115  -0.240  0.00  0.00    +0.156 C 
ATOM     10  N   UNL     1       0.472  -0.341  -0.106  0.00  0.00    -0.274 N 
ATOM     11  C   UNL     1       0.675  -1.215  -1.112  0.00  0.00    +0.345 A 
ATOM     12  O   UNL     1       0.813  -0.937  -2.290  0.00  0.00    -0.245 OA
ATOM     13  N   UNL     1       0.697  -2.454  -0.577  0.00  0.00    -0.226 N 
ATOM     14  H   UNL     1       0.825  -3.285  -1.060  0.00  0.00    +0.194 HD
ATOM     15  N   UNL     1       0.500  -2.317   0.804  0.00  0.00    -0.145 NA
ATOM     16  C   UNL     1       0.374  -1.050   1.070  0.00  0.00    +0.192 A 
ENDBRANCH   8  16
ENDBRANCH   1   8
BRANCH   1  17
ATOM     17  C   UNL     1      -1.388  -2.524   3.392  0.00  0.00    -0.066 C 
BRANCH  17  18
ATOM     18  N   UNL     1      -1.488  -3.764   4.174  0.00  0.00    +0.379 N 
ATOM     19  H   UNL     1      -1.407  -3.549   5.156  0.00  0.00    -0.090 HD
ATOM     20  H   UNL     1      -2.380  -4.202   3.997  0.00  0.00    -0.090 HD
ATOM     21  H   UNL     1      -0.746  -4.392   3.904  0.00  0.00    -0.090 HD
ENDBRANCH  17  18
ENDBRANCH   1  17
TORSDOF 5
