REMARK  Name = ZINC54111677
REMARK  10 active torsions:
REMARK  status: ('A' for Active; 'I' for Inactive)
REMARK    1  A    between atoms: C_1  and  C_2
REMARK    2  A    between atoms: C_2  and  C_3
REMARK    3  A    between atoms: C_2  and  N_4
REMARK    4  A    between atoms: N_4  and  C_5
REMARK    5  A    between atoms: N_4  and  C_6
REMARK    6  A    between atoms: C_6  and  C_7
REMARK    7  A    between atoms: C_7  and  N_8
REMARK    8  A    between atoms: N_8  and  S_9
REMARK    9  A    between atoms: S_9  and  C_12
REMARK   10  A    between atoms: C_13  and  N_20
REMARK                            x       y       z     vdW  Elec       q    Type
REMARK                         _______ _______ _______ _____ _____    ______ ____
ROOT
ATOM      1  S   UNL     1      -4.773  -5.351   1.022  0.00  0.00    +0.061 S 
ATOM      2  O   UNL     1      -4.809  -6.767   0.909  0.00  0.00    -0.153 OA
ATOM      3  O   UNL     1      -5.236  -4.668   2.179  0.00  0.00    -0.153 OA
ENDROOT
BRANCH   1   4
ATOM      4  C   UNL     1      -5.690  -4.712  -0.340  0.00  0.00    +0.140 A 
ATOM      5  C   UNL     1      -6.308  -3.472  -0.242  0.00  0.00    +0.053 A 
ATOM      6  C   UNL     1      -7.029  -2.971  -1.318  0.00  0.00    +0.040 A 
ATOM      7  C   UNL     1      -7.131  -3.709  -2.482  0.00  0.00    +0.021 A 
ATOM      8  C   UNL     1      -6.516  -4.944  -2.577  0.00  0.00    +0.032 A 
ATOM      9  C   UNL     1      -5.791  -5.442  -1.508  0.00  0.00    +0.047 A 
ATOM     10 BR   UNL     1      -4.945  -7.128  -1.645  0.00  0.00    -0.048 Br
ATOM     11 BR   UNL     1      -8.114  -3.029  -3.948  0.00  0.00    -0.050 Br
BRANCH   5  12
ATOM     12  N   UNL     1      -6.203  -2.729   0.936  0.00  0.00    -0.356 N 
ATOM     13  H   UNL     1      -5.451  -2.868   1.532  0.00  0.00    +0.142 HD
ATOM     14  H   UNL     1      -6.884  -2.075   1.159  0.00  0.00    +0.142 HD
ENDBRANCH   5  12
ENDBRANCH   1   4
BRANCH   1  15
ATOM     15  N   UNL     1      -3.195  -4.898   0.805  0.00  0.00    -0.192 NA
ATOM     16  H   UNL     1      -2.514  -5.572   0.655  0.00  0.00    +0.148 HD
BRANCH  15  17
ATOM     17  C   UNL     1      -2.828  -3.481   0.840  0.00  0.00    +0.087 C 
BRANCH  17  18
ATOM     18  C   UNL     1      -1.311  -3.350   0.990  0.00  0.00    -0.062 C 
BRANCH  18  19
ATOM     19  N   UNL     1      -0.943  -1.929   1.025  0.00  0.00    +0.380 N 
ATOM     20  C   UNL     1      -1.260  -1.308  -0.268  0.00  0.00    -0.096 C 
ATOM     21  H   UNL     1      -1.460  -1.465   1.756  0.00  0.00    -0.082 HD
BRANCH  19  23
ATOM     22  C   UNL     1       0.880  -0.321   1.325  0.00  0.00    -0.014 C 
ATOM     23  C   UNL     1       0.497  -1.802   1.289  0.00  0.00    -0.075 C 
ATOM     24  C   UNL     1       0.828  -2.447   2.636  0.00  0.00    -0.014 C 
ENDBRANCH  19  23
ENDBRANCH  18  19
ENDBRANCH  17  18
ENDBRANCH  15  17
ENDBRANCH   1  15
TORSDOF 7
