REMARK  Name = ZINC08382171
REMARK  5 active torsions:
REMARK  status: ('A' for Active; 'I' for Inactive)
REMARK    1  A    between atoms: C_6  and  O_11
REMARK    2  A    between atoms: O_11  and  C_12
REMARK    3  A    between atoms: C_14  and  O_34
REMARK    4  A    between atoms: C_16  and  O_33
REMARK    5  A    between atoms: C_25  and  C_28
REMARK                            x       y       z     vdW  Elec       q    Type
REMARK                         _______ _______ _______ _____ _____    ______ ____
ROOT
ATOM      1  C   UNL     1       0.002  -0.004   0.002  0.00  0.00    +0.339 C 
ATOM      2  C   UNL     1       0.729  -0.525   1.244  0.00  0.00    +0.214 C 
ATOM      3  C   UNL     1       2.140   0.072   1.304  0.00  0.00    +0.180 C 
ATOM      4  C   UNL     1       2.023   1.596   1.280  0.00  0.00    +0.184 C 
ATOM      5  C   UNL     1       1.284   2.010   0.001  0.00  0.00    +0.179 C 
ATOM      6  O   UNL     1      -0.017   1.427   0.010  0.00  0.00    -0.331 OA
ATOM      7  C   UNL     1       1.207   3.537  -0.041  0.00  0.00    +0.197 C 
ATOM      8  O   UNL     1       2.538   4.058   0.059  0.00  0.00    -0.342 OA
ATOM      9  C   UNL     1       3.248   3.642   1.226  0.00  0.00    +0.319 C 
ATOM     10  O   UNL     1       3.311   2.212   1.280  0.00  0.00    -0.336 OA
ENDROOT
BRANCH   9  11
ATOM     11  C   UNL     1       4.647   4.201   1.186  0.00  0.00    +0.161 A 
ATOM     12  C   UNL     1       4.971   5.506   1.126  0.00  0.00    +0.050 A 
ATOM     13  C   UNL     1       6.383   5.577   1.109  0.00  0.00    +0.041 A 
ATOM     14  C   UNL     1       6.837   4.311   1.152  0.00  0.00    +0.195 A 
ATOM     15  O   UNL     1       5.781   3.483   1.198  0.00  0.00    -0.463 OA
ENDBRANCH   9  11
BRANCH   3  16
ATOM     16  O   UNL     1       2.787  -0.345   2.508  0.00  0.00    -0.386 OA
ATOM     17  H   UNL     1       2.880  -1.304   2.593  0.00  0.00    +0.210 HD
ENDBRANCH   3  16
BRANCH   2  18
ATOM     18  O   UNL     1       0.816  -1.950   1.181  0.00  0.00    -0.383 OA
ATOM     19  H   UNL     1      -0.041  -2.395   1.143  0.00  0.00    +0.210 HD
ENDBRANCH   2  18
BRANCH   1  20
ATOM     20  O   UNL     1       0.681  -0.463  -1.169  0.00  0.00    -0.461 OA
BRANCH  20  26
ATOM     21  C   UNL     1      -1.113   0.272  -7.179  0.00  0.00    +0.001 A 
ATOM     22  C   UNL     1       0.090  -0.430  -7.146  0.00  0.00    +0.001 A 
ATOM     23  C   UNL     1       0.698  -0.724  -5.965  0.00  0.00    +0.008 A 
ATOM     24  C   UNL     1       0.106  -0.315  -4.757  0.00  0.00    -0.014 A 
ATOM     25  C   UNL     1       0.705  -0.600  -3.519  0.00  0.00    +0.054 A 
ATOM     26  C   UNL     1       0.101  -0.186  -2.366  0.00  0.00    +0.125 A 
ATOM     27  C   UNL     1      -1.110   0.514  -2.401  0.00  0.00    +0.046 A 
ATOM     28  C   UNL     1      -1.712   0.810  -3.584  0.00  0.00    +0.012 A 
ATOM     29  C   UNL     1      -1.118   0.399  -4.791  0.00  0.00    -0.018 A 
ATOM     30  C   UNL     1      -1.716   0.684  -6.030  0.00  0.00    +0.008 A 
ENDBRANCH  20  26
ENDBRANCH   1  20
TORSDOF 5
