REMARK  Name = ZINC47172172
REMARK  6 active torsions:
REMARK  status: ('A' for Active; 'I' for Inactive)
REMARK    1  A    between atoms: C_1  and  C_2
REMARK    2  A    between atoms: C_2  and  N_3
REMARK    3  A    between atoms: C_7  and  S_9
REMARK    4  A    between atoms: S_9  and  C_10
REMARK    5  A    between atoms: C_10  and  C_11
REMARK    6  A    between atoms: C_13  and  N_16
REMARK                            x       y       z     vdW  Elec       q    Type
REMARK                         _______ _______ _______ _____ _____    ______ ____
ROOT
ATOM      1  S   UNL     1       1.770  -5.879  -3.008  0.00  0.00    -0.092 S 
ENDROOT
BRANCH   1   6
ATOM      2  N   UNL     1       0.688  -0.476  -1.203  0.00  0.00    -0.322 N 
ATOM      3  C   UNL     1       0.831  -1.840  -1.432  0.00  0.00    +0.182 A 
ATOM      4  N   UNL     1       0.422  -2.858  -0.700  0.00  0.00    -0.125 NA
ATOM      5  N   UNL     1       0.671  -4.145  -1.116  0.00  0.00    -0.133 NA
ATOM      6  C   UNL     1       1.319  -4.355  -2.246  0.00  0.00    +0.160 A 
ATOM      7  S   UNL     1       1.613  -2.682  -2.800  0.00  0.00    -0.025 S 
ATOM      8  H   UNL     1       1.042   0.162  -1.842  0.00  0.00    +0.148 HD
BRANCH   2  10
ATOM      9  C   UNL     1      -0.019   1.526   0.010  0.00  0.00    +0.024 C 
ATOM     10  C   UNL     1       0.002  -0.004   0.002  0.00  0.00    +0.100 C 
ENDBRANCH   2  10
ENDBRANCH   1   6
BRANCH   1  11
ATOM     11  C   UNL     1       1.132  -7.142  -1.873  0.00  0.00    +0.112 C 
BRANCH  11  12
ATOM     12  C   UNL     1       1.454  -8.511  -2.414  0.00  0.00    -0.028 A 
ATOM     13  C   UNL     1       0.573  -9.156  -3.261  0.00  0.00    +0.045 A 
ATOM     14  C   UNL     1       0.893 -10.387  -3.730  0.00  0.00    +0.164 A 
ATOM     15  S   UNL     1       2.483 -10.670  -2.969  0.00  0.00    -0.073 S 
ATOM     16  C   UNL     1       2.615  -9.127  -2.081  0.00  0.00    +0.052 A 
BRANCH  14  17
ATOM     17  N   UNL     1       0.124 -11.268  -4.638  0.00  0.00    +0.063 N 
ATOM     18  O   UNL     1      -0.949 -10.909  -5.063  0.00  0.00    -0.126 OA
ATOM     19  O   UNL     1       0.570 -12.347  -4.955  0.00  0.00    -0.126 OA
ENDBRANCH  14  17
ENDBRANCH  11  12
ENDBRANCH   1  11
TORSDOF 5
