REMARK  Name = ZINC35934691
REMARK  8 active torsions:
REMARK  status: ('A' for Active; 'I' for Inactive)
REMARK    1  A    between atoms: C_1  and  C_2
REMARK    2  A    between atoms: C_2  and  C_4
REMARK    3  A    between atoms: C_2  and  N_15
REMARK    4  A    between atoms: N_6  and  C_7
REMARK    5  A    between atoms: C_7  and  C_8
REMARK    6  A    between atoms: C_8  and  N_9
REMARK    7  A    between atoms: C_21  and  C_28
REMARK    8  A    between atoms: N_26  and  C_27
REMARK                            x       y       z     vdW  Elec       q    Type
REMARK                         _______ _______ _______ _____ _____    ______ ____
ROOT
ATOM      1  N   UNL     1       0.688  -0.476  -1.203  0.00  0.00    -0.281 N 
ATOM      2  C   UNL     1       0.112  -1.323  -2.259  0.00  0.00    +0.160 C 
ATOM      3  C   UNL     1       1.231  -1.511  -3.259  0.00  0.00    +0.042 C 
ATOM      4  C   UNL     1       2.290  -0.831  -2.776  0.00  0.00    +0.058 C 
ATOM      5  C   UNL     1       1.960  -0.212  -1.553  0.00  0.00    +0.247 C 
ATOM      6  O   UNL     1       2.726   0.470  -0.898  0.00  0.00    -0.270 OA
ATOM      7  C   UNL     1       3.569  -0.849  -3.589  0.00  0.00    +0.143 C 
ATOM      8  N   UNL     1       3.549  -1.613  -4.848  0.00  0.00    -0.288 N 
ATOM      9  C   UNL     1       2.409  -2.243  -5.198  0.00  0.00    +0.307 C 
ATOM     10  O   UNL     1       2.383  -2.877  -6.235  0.00  0.00    -0.252 OA
ATOM     11  N   UNL     1       1.306  -2.193  -4.440  0.00  0.00    -0.260 N 
ATOM     12  C   UNL     1       0.115  -2.910  -4.903  0.00  0.00    +0.139 C 
ATOM     13  H   UNL     1       4.336  -1.662  -5.412  0.00  0.00    +0.151 HD
ENDROOT
BRANCH   7  14
ATOM     14  C   UNL     1       3.931   0.576  -3.917  0.00  0.00    -0.004 A 
ATOM     15  C   UNL     1       3.538   1.129  -5.121  0.00  0.00    +0.007 A 
ATOM     16  C   UNL     1       3.869   2.437  -5.423  0.00  0.00    +0.000 A 
ATOM     17  C   UNL     1       4.595   3.192  -4.520  0.00  0.00    +0.001 A 
ATOM     18  C   UNL     1       4.989   2.640  -3.316  0.00  0.00    +0.020 A 
ATOM     19  C   UNL     1       4.652   1.333  -3.011  0.00  0.00    +0.046 A 
ATOM     20 CL   UNL     1       5.141   0.641  -1.496  0.00  0.00    -0.083 Cl
ENDBRANCH   7  14
BRANCH   1  22
ATOM     21  C   UNL     1      -0.019   1.526   0.010  0.00  0.00    +0.038 C 
ATOM     22  C   UNL     1       0.002  -0.004   0.002  0.00  0.00    +0.159 C 
BRANCH  22  23
ATOM     23  C   UNL     1       0.731  -0.503   1.223  0.00  0.00    +0.233 C 
ATOM     24  O   UNL     1       1.725  -1.187   1.099  0.00  0.00    -0.274 OA
ATOM     25  N   UNL     1       0.278  -0.191   2.453  0.00  0.00    -0.316 N 
ATOM     26  H   UNL     1      -0.517   0.356   2.553  0.00  0.00    +0.149 HD
BRANCH  25  27
ATOM     27  C   UNL     1       0.986  -0.676   3.640  0.00  0.00    +0.086 C 
BRANCH  27  28
ATOM     28  C   UNL     1       0.270  -0.182   4.899  0.00  0.00    -0.060 C 
BRANCH  28  29
ATOM     29  N   UNL     1       0.981  -0.669   6.089  0.00  0.00    +0.381 N 
ATOM     30  C   UNL     1       0.904  -2.134   6.138  0.00  0.00    -0.079 C 
ATOM     31  C   UNL     1       1.711  -2.651   7.330  0.00  0.00    -0.019 C 
ATOM     32  C   UNL     1       1.134  -2.065   8.622  0.00  0.00    -0.004 C 
ATOM     33  C   UNL     1       1.150  -0.537   8.530  0.00  0.00    -0.019 C 
ATOM     34  C   UNL     1       0.364  -0.098   7.292  0.00  0.00    -0.079 C 
ATOM     35  H   UNL     1       1.948  -0.386   6.041  0.00  0.00    -0.082 HD
ENDBRANCH  28  29
ENDBRANCH  27  28
ENDBRANCH  25  27
ENDBRANCH  22  23
ENDBRANCH   1  22
TORSDOF 6
