REMARK  Name = ZINC36549104
REMARK  12 active torsions:
REMARK  status: ('A' for Active; 'I' for Inactive)
REMARK    1  A    between atoms: C_1  and  C_2
REMARK    2  A    between atoms: C_5  and  S_8
REMARK    3  A    between atoms: S_8  and  C_11
REMARK    4  A    between atoms: C_11  and  N_12
REMARK    5  A    between atoms: C_13  and  C_15
REMARK    6  A    between atoms: C_15  and  C_17
REMARK    7  A    between atoms: C_15  and  N_24
REMARK    8  A    between atoms: C_22  and  O_23
REMARK    9  A    between atoms: N_24  and  C_25
REMARK   10  A    between atoms: C_32  and  C_34
REMARK   11  A    between atoms: C_34  and  O_35
REMARK   12  A    between atoms: O_35  and  C_36
REMARK                            x       y       z     vdW  Elec       q    Type
REMARK                         _______ _______ _______ _____ _____    ______ ____
ROOT
ATOM      1  C   UNL     1       2.945  -4.869   3.577  0.00  0.00    +0.201 C 
ENDROOT
BRANCH   1   2
ATOM      2  C   UNL     1       4.319  -4.451   3.121  0.00  0.00    +0.024 A 
ATOM      3  C   UNL     1       5.332  -5.387   3.033  0.00  0.00    +0.009 A 
ATOM      4  C   UNL     1       6.593  -5.004   2.615  0.00  0.00    +0.001 A 
ATOM      5  C   UNL     1       6.844  -3.685   2.284  0.00  0.00    +0.004 A 
ATOM      6  C   UNL     1       5.834  -2.747   2.369  0.00  0.00    +0.046 A 
ATOM      7  C   UNL     1       4.566  -3.129   2.784  0.00  0.00    +0.122 A 
BRANCH   7   8
ATOM      8  O   UNL     1       3.570  -2.208   2.863  0.00  0.00    -0.506 OA
ATOM      9  H   UNL     1       3.507  -1.770   3.723  0.00  0.00    +0.292 HD
ENDBRANCH   7   8
ENDBRANCH   1   2
BRANCH   1  11
ATOM     10  N   UNL     1       1.238  -3.892   2.077  0.00  0.00    -0.294 N 
ATOM     11  C   UNL     1       2.022  -4.943   2.388  0.00  0.00    +0.240 C 
ATOM     12  O   UNL     1       1.984  -5.949   1.712  0.00  0.00    -0.273 OA
ATOM     13  H   UNL     1       1.268  -3.088   2.618  0.00  0.00    +0.150 HD
BRANCH  10  14
ATOM     14  C   UNL     1       0.341  -3.964   0.921  0.00  0.00    +0.278 C 
BRANCH  14  15
ATOM     15  S   UNL     1      -1.310  -4.480   1.468  0.00  0.00    +0.013 S 
ATOM     16  O   UNL     1      -1.210  -5.601   2.336  0.00  0.00    -0.168 OA
ATOM     17  O   UNL     1      -2.209  -4.494   0.367  0.00  0.00    -0.168 OA
BRANCH  15  22
ATOM     18  C   UNL     1      -3.258   0.018   4.986  0.00  0.00    +0.044 C 
ATOM     19  C   UNL     1      -2.771  -1.105   4.107  0.00  0.00    -0.050 A 
ATOM     20  C   UNL     1      -3.031  -1.083   2.750  0.00  0.00    +0.005 A 
ATOM     21  C   UNL     1      -2.585  -2.114   1.944  0.00  0.00    +0.027 A 
ATOM     22  C   UNL     1      -1.878  -3.166   2.495  0.00  0.00    +0.090 A 
ATOM     23  C   UNL     1      -1.617  -3.188   3.853  0.00  0.00    +0.027 A 
ATOM     24  C   UNL     1      -2.060  -2.155   4.658  0.00  0.00    +0.005 A 
ENDBRANCH  15  22
ENDBRANCH  14  15
ENDBRANCH  10  14
ENDBRANCH   1  11
BRANCH   1  25
ATOM     25  N   UNL     1       3.022  -6.183   4.219  0.00  0.00    -0.252 N 
ATOM     26  C   UNL     1       3.672  -6.324   5.391  0.00  0.00    +0.247 C 
ATOM     27  O   UNL     1       4.193  -5.362   5.915  0.00  0.00    -0.273 OA
BRANCH  25  28
ATOM     28  C   UNL     1       2.420  -7.293   3.615  0.00  0.00    +0.056 A 
ATOM     29  C   UNL     1       3.178  -8.159   2.837  0.00  0.00    +0.025 A 
ATOM     30  C   UNL     1       2.581  -9.253   2.242  0.00  0.00    +0.002 A 
ATOM     31  C   UNL     1       1.230  -9.488   2.420  0.00  0.00    +0.002 A 
ATOM     32  C   UNL     1       0.471  -8.629   3.192  0.00  0.00    +0.022 A 
ATOM     33  C   UNL     1       1.063  -7.535   3.796  0.00  0.00    +0.062 A 
ATOM     34 CL   UNL     1       0.112  -6.461   4.773  0.00  0.00    -0.082 Cl
ENDBRANCH  25  28
BRANCH  26  35
ATOM     35  C   UNL     1       3.751  -7.677   6.051  0.00  0.00    +0.255 C 
BRANCH  35  36
ATOM     36  O   UNL     1       4.485  -7.569   7.272  0.00  0.00    -0.374 OA
ATOM     37  C   UNL     1       4.620  -8.802   7.981  0.00  0.00    +0.194 C 
ENDBRANCH  35  36
ENDBRANCH  26  35
ENDBRANCH   1  25
TORSDOF 10
