REMARK  Name = ZINC00814147
REMARK  12 active torsions:
REMARK  status: ('A' for Active; 'I' for Inactive)
REMARK    1  A    between atoms: C_1  and  C_2
REMARK    2  A    between atoms: C_3  and  C_26
REMARK    3  A    between atoms: C_4  and  C_12
REMARK    4  A    between atoms: C_6  and  C_10
REMARK    5  A    between atoms: C_7  and  N_9
REMARK    6  A    between atoms: C_14  and  O_24
REMARK    7  A    between atoms: C_15  and  O_19
REMARK    8  A    between atoms: O_19  and  C_20
REMARK    9  A    between atoms: C_20  and  C_21
REMARK   10  A    between atoms: O_24  and  C_25
REMARK   11  A    between atoms: C_26  and  O_28
REMARK   12  A    between atoms: O_28  and  C_29
REMARK                            x       y       z     vdW  Elec       q    Type
REMARK                         _______ _______ _______ _____ _____    ______ ____
ROOT
ATOM      1  C   UNL     1      -0.018   1.503   0.010  0.00  0.00    +0.087 C 
ATOM      2  C   UNL     1       0.002  -0.004   0.002  0.00  0.00    +0.115 C 
ATOM      3  C   UNL     1      -1.160  -0.670   0.004  0.00  0.00    +0.087 C 
ATOM      4  C   UNL     1      -1.196  -2.174  -0.004  0.00  0.00    +0.106 C 
ATOM      5  C   UNL     1       0.147  -2.717  -0.409  0.00  0.00    +0.098 C 
ATOM      6  C   UNL     1       1.250  -1.929  -0.388  0.00  0.00    +0.198 C 
ATOM      7  O   UNL     1       1.184  -0.639  -0.013  0.00  0.00    -0.445 OA
ENDROOT
BRANCH   4   8
ATOM      8  C   UNL     1      -1.540  -2.673   1.376  0.00  0.00    -0.012 A 
ATOM      9  C   UNL     1      -0.726  -2.357   2.447  0.00  0.00    +0.055 A 
ATOM     10  C   UNL     1      -1.041  -2.815   3.716  0.00  0.00    +0.162 A 
ATOM     11  C   UNL     1      -2.178  -3.593   3.910  0.00  0.00    +0.164 A 
ATOM     12  C   UNL     1      -2.991  -3.906   2.833  0.00  0.00    +0.069 A 
ATOM     13  C   UNL     1      -2.674  -3.442   1.569  0.00  0.00    +0.049 A 
ATOM     14 CL   UNL     1      -3.697  -3.829   0.221  0.00  0.00    -0.083 Cl
BRANCH  10  15
ATOM     15  O   UNL     1      -0.239  -2.505   4.771  0.00  0.00    -0.491 OA
ATOM     16  C   UNL     1       0.912  -1.704   4.498  0.00  0.00    +0.277 C 
ENDBRANCH  10  15
BRANCH  11  17
ATOM     17  O   UNL     1      -2.491  -4.045   5.154  0.00  0.00    -0.479 OA
BRANCH  17  18
ATOM     18  C   UNL     1      -3.673  -4.838   5.277  0.00  0.00    +0.324 C 
BRANCH  18  19
ATOM     19  C   UNL     1      -3.857  -5.245   6.717  0.00  0.00    +0.248 C 
ATOM     20  O   UNL     1      -3.054  -4.891   7.554  0.00  0.00    -0.272 OA
ATOM     21  N   UNL     1      -4.913  -6.003   7.074  0.00  0.00    -0.327 N 
ATOM     22  H   UNL     1      -5.555  -6.286   6.404  0.00  0.00    +0.145 HD
ATOM     23  H   UNL     1      -5.031  -6.265   8.000  0.00  0.00    +0.145 HD
ENDBRANCH  18  19
ENDBRANCH  17  18
ENDBRANCH  11  17
ENDBRANCH   4   8
BRANCH   6  24
ATOM     24  N   UNL     1       2.460  -2.458  -0.763  0.00  0.00    -0.328 N 
ATOM     25  H   UNL     1       2.519  -3.386  -1.038  0.00  0.00    +0.145 HD
ATOM     26  H   UNL     1       3.256  -1.903  -0.752  0.00  0.00    +0.145 HD
ENDBRANCH   6  24
BRANCH   5  27
ATOM     27  C   UNL     1       0.263  -4.084  -0.820  0.00  0.00    +0.101 C 
ATOM     28  N   UNL     1       0.354  -5.168  -1.147  0.00  0.00    -0.191 NA
ENDBRANCH   5  27
BRANCH   3  29
ATOM     29  C   UNL     1      -2.377   0.055   0.014  0.00  0.00    +0.339 C 
ATOM     30  O   UNL     1      -2.361   1.271   0.021  0.00  0.00    -0.245 OA
BRANCH  29  31
ATOM     31  O   UNL     1      -3.554  -0.604   0.016  0.00  0.00    -0.465 OA
ATOM     32  C   UNL     1      -4.742   0.191   0.026  0.00  0.00    +0.280 C 
ENDBRANCH  29  31
ENDBRANCH   3  29
TORSDOF 9
