REMARK  Name = ZINC36973384
REMARK  4 active torsions:
REMARK  status: ('A' for Active; 'I' for Inactive)
REMARK    1  A    between atoms: C_4  and  C_19
REMARK    2  A    between atoms: C_6  and  N_7
REMARK    3  A    between atoms: N_7  and  C_8
REMARK    4  A    between atoms: C_16  and  O_18
REMARK                            x       y       z     vdW  Elec       q    Type
REMARK                         _______ _______ _______ _____ _____    ______ ____
ROOT
ATOM      1  N   UNL     1      -1.199  -0.719   0.010  0.00  0.00    -0.334 N 
ATOM      2  H   UNL     1      -1.186  -1.689   0.004  0.00  0.00    +0.147 HD
ENDROOT
BRANCH   1   3
ATOM      3  C   UNL     1      -2.477  -0.004   0.026  0.00  0.00    +0.142 C 
ATOM      4  C   UNL     1      -2.966   0.287  -1.413  0.00  0.00    +0.256 C 
ATOM      5  O   UNL     1      -4.391   0.129  -1.303  0.00  0.00    -0.489 OA
ATOM      6  C   UNL     1      -4.670  -0.746  -0.298  0.00  0.00    +0.129 A 
ATOM      7  C   UNL     1      -3.587  -0.888   0.562  0.00  0.00    +0.018 A 
ATOM      8  C   UNL     1      -3.658  -1.718   1.658  0.00  0.00    +0.013 A 
ATOM      9  C   UNL     1      -4.815  -2.430   1.914  0.00  0.00    +0.046 A 
ATOM     10  C   UNL     1      -5.903  -2.304   1.061  0.00  0.00    +0.120 A 
ATOM     11  C   UNL     1      -5.832  -1.467  -0.041  0.00  0.00    +0.091 A 
BRANCH  10  12
ATOM     12  O   UNL     1      -7.040  -3.006   1.307  0.00  0.00    -0.507 OA
ATOM     13  H   UNL     1      -7.676  -2.540   1.867  0.00  0.00    +0.292 HD
ENDBRANCH  10  12
ENDBRANCH   1   3
BRANCH   1  19
ATOM     14  C   UNL     1      -0.017   1.386   0.010  0.00  0.00    +0.024 A 
ATOM     15  C   UNL     1       1.168   2.098   0.002  0.00  0.00    +0.023 A 
ATOM     16  C   UNL     1       2.378   1.434  -0.013  0.00  0.00    +0.058 A 
ATOM     17  C   UNL     1       2.408   0.037  -0.021  0.00  0.00    +0.072 A 
ATOM     18  C   UNL     1       1.211  -0.681  -0.013  0.00  0.00    +0.043 A 
ATOM     19  C   UNL     1       0.002  -0.004   0.002  0.00  0.00    +0.029 A 
ATOM     20 CL   UNL     1       3.863   2.334  -0.023  0.00  0.00    -0.082 Cl
BRANCH  17  21
ATOM     21  C   UNL     1       3.661  -0.656  -0.037  0.00  0.00    +0.101 C 
ATOM     22  N   UNL     1       4.656  -1.205  -0.050  0.00  0.00    -0.191 NA
ENDBRANCH  17  21
ENDBRANCH   1  19
TORSDOF 4
