REMARK  Name = ZINC33809615
REMARK  9 active torsions:
REMARK  status: ('A' for Active; 'I' for Inactive)
REMARK    1  A    between atoms: C_1  and  C_2
REMARK    2  A    between atoms: C_2  and  O_3
REMARK    3  A    between atoms: O_3  and  C_4
REMARK    4  A    between atoms: C_4  and  C_6
REMARK    5  A    between atoms: C_10  and  N_11
REMARK    6  A    between atoms: C_12  and  C_14
REMARK    7  A    between atoms: C_19  and  O_25
REMARK    8  A    between atoms: O_25  and  C_26
REMARK    9  A    between atoms: N_28  and  C_31
REMARK                            x       y       z     vdW  Elec       q    Type
REMARK                         _______ _______ _______ _____ _____    ______ ____
ROOT
ATOM      1  N   UNL     1       6.105  -2.083  -0.069  0.00  0.00    -0.275 N 
ATOM      2  C   UNL     1       4.933  -2.750  -0.061  0.00  0.00    +0.256 C 
ATOM      3  O   UNL     1       4.926  -3.966  -0.069  0.00  0.00    -0.270 OA
ATOM      4  H   UNL     1       6.111  -0.983  -0.062  0.00  0.00    +0.156 HD
ENDROOT
BRANCH   1   9
ATOM      5  C   UNL     1       8.595  -2.279  -0.095  0.00  0.00    +0.091 A 
ATOM      6  C   UNL     1       9.684  -3.238  -0.111  0.00  0.00    -0.025 A 
ATOM      7  C   UNL     1       9.311  -4.537  -0.116  0.00  0.00    -0.021 A 
ATOM      8  S   UNL     1       7.543  -4.499  -0.090  0.00  0.00    -0.079 S 
ATOM      9  C   UNL     1       7.300  -2.783  -0.085  0.00  0.00    +0.086 A 
ATOM     10  C   UNL     1      10.222  -5.724  -0.135  0.00  0.00    -0.036 C 
ATOM     11  N   UNL     1      11.573  -5.262  -0.506  0.00  0.00    +0.381 N 
ATOM     12  C   UNL     1      11.966  -4.100   0.303  0.00  0.00    -0.074 C 
ATOM     13  C   UNL     1      11.163  -2.867  -0.120  0.00  0.00    +0.018 C 
ATOM     14  C   UNL     1      12.554  -6.348  -0.380  0.00  0.00    -0.096 C 
ATOM     15  H   UNL     1      11.554  -4.950  -1.561  0.00  0.00    -0.082 HD
BRANCH   5  16
ATOM     16  C   UNL     1       8.851  -0.838  -0.088  0.00  0.00    +0.342 C 
ATOM     17  O   UNL     1       8.967  -0.245   0.968  0.00  0.00    -0.245 OA
BRANCH  16  18
ATOM     18  O   UNL     1       8.957  -0.166  -1.254  0.00  0.00    -0.461 OA
BRANCH  18  20
ATOM     19  C   UNL     1       9.300   1.845  -2.582  0.00  0.00    +0.048 C 
ATOM     20  C   UNL     1       9.211   1.261  -1.171  0.00  0.00    +0.229 C 
ENDBRANCH  18  20
ENDBRANCH  16  18
ENDBRANCH   5  16
ENDBRANCH   1   9
BRANCH   2  21
ATOM     21  C   UNL     1       3.664  -2.007  -0.044  0.00  0.00    +0.122 A 
ATOM     22  C   UNL     1       3.658  -0.620  -0.036  0.00  0.00    +0.031 A 
ATOM     23  C   UNL     1       2.415   0.054  -0.021  0.00  0.00    +0.019 A 
ATOM     24  C   UNL     1       2.375   1.459  -0.013  0.00  0.00    +0.015 A 
ATOM     25  C   UNL     1       1.175   2.105   0.002  0.00  0.00    +0.046 A 
ATOM     26  C   UNL     1      -0.017   1.381   0.010  0.00  0.00    +0.124 A 
ATOM     27  C   UNL     1       0.002  -0.004   0.002  0.00  0.00    +0.092 A 
ATOM     28  C   UNL     1       1.214  -0.681  -0.013  0.00  0.00    +0.143 A 
ATOM     29  O   UNL     1       1.228  -2.031  -0.021  0.00  0.00    -0.422 OA
ATOM     30  C   UNL     1       2.382  -2.719  -0.036  0.00  0.00    +0.350 A 
ATOM     31  O   UNL     1       2.363  -3.936  -0.043  0.00  0.00    -0.244 OA
BRANCH  26  32
ATOM     32  O   UNL     1      -1.204   2.038   0.019  0.00  0.00    -0.495 OA
ATOM     33  C   UNL     1      -1.154   3.466   0.026  0.00  0.00    +0.277 C 
ENDBRANCH  26  32
ENDBRANCH   2  21
TORSDOF 6
