REMARK  Name = ZINC37767609
REMARK  10 active torsions:
REMARK  status: ('A' for Active; 'I' for Inactive)
REMARK    1  A    between atoms: C_1  and  C_2
REMARK    2  A    between atoms: C_2  and  C_3
REMARK    3  A    between atoms: C_3  and  O_4
REMARK    4  A    between atoms: O_4  and  C_5
REMARK    5  A    between atoms: C_7  and  C_21
REMARK    6  A    between atoms: C_10  and  N_11
REMARK    7  A    between atoms: C_12  and  C_14
REMARK    8  A    between atoms: C_14  and  C_16
REMARK    9  A    between atoms: C_14  and  N_20
REMARK   10  A    between atoms: C_16  and  C_17
REMARK                            x       y       z     vdW  Elec       q    Type
REMARK                         _______ _______ _______ _____ _____    ______ ____
ROOT
ATOM      1  N   UNL     1       0.857  -4.714   1.316  0.00  0.00    -0.284 N 
ATOM      2  C   UNL     1       0.462  -5.977   1.571  0.00  0.00    +0.203 C 
ATOM      3  O   UNL     1       0.528  -6.417   2.699  0.00  0.00    -0.277 OA
ATOM      4  H   UNL     1       0.730  -4.335   0.432  0.00  0.00    +0.155 HD
ENDROOT
BRANCH   1  10
ATOM      5  C   UNL     1       1.401  -2.558   2.273  0.00  0.00    +0.142 A 
ATOM      6  C   UNL     1       1.987  -1.806   3.279  0.00  0.00    +0.051 A 
ATOM      7  C   UNL     1       2.626  -2.437   4.330  0.00  0.00    -0.047 A 
ATOM      8  C   UNL     1       2.682  -3.817   4.382  0.00  0.00    +0.005 A 
ATOM      9  C   UNL     1       2.099  -4.574   3.383  0.00  0.00    +0.027 A 
ATOM     10  C   UNL     1       1.453  -3.949   2.328  0.00  0.00    +0.076 A 
ATOM     11  C   UNL     1       3.263  -1.617   5.422  0.00  0.00    +0.044 C 
BRANCH   5  12
ATOM     12  O   UNL     1       0.773  -1.939   1.238  0.00  0.00    -0.490 OA
BRANCH  12  13
ATOM     13  C   UNL     1       0.759  -0.510   1.248  0.00  0.00    +0.229 C 
BRANCH  13  15
ATOM     14  C   UNL     1      -0.001   1.531   0.025  0.00  0.00    +0.007 C 
ATOM     15  C   UNL     1       0.013   0.001   0.014  0.00  0.00    +0.038 C 
ENDBRANCH  13  15
ENDBRANCH  12  13
ENDBRANCH   5  12
ENDBRANCH   1  10
BRANCH   2  16
ATOM     16  C   UNL     1      -0.064  -6.842   0.454  0.00  0.00    +0.022 C 
BRANCH  16  17
ATOM     17  N   UNL     1      -0.853  -7.945   1.019  0.00  0.00    +0.386 N 
ATOM     18  H   UNL     1      -1.627  -7.569   1.546  0.00  0.00    -0.089 HD
ATOM     19  H   UNL     1      -1.204  -8.524   0.271  0.00  0.00    -0.089 HD
ATOM     20  H   UNL     1      -0.269  -8.499   1.627  0.00  0.00    -0.089 HD
ENDBRANCH  16  17
BRANCH  16  21
ATOM     21  C   UNL     1       1.110  -7.412  -0.345  0.00  0.00    +0.088 C 
BRANCH  21  22
ATOM     22  C   UNL     1       0.585  -8.176  -1.533  0.00  0.00    +0.209 C 
ATOM     23  O   UNL     1      -0.610  -8.256  -1.722  0.00  0.00    -0.276 OA
ATOM     24  N   UNL     1       1.444  -8.769  -2.386  0.00  0.00    -0.329 N 
ATOM     25  H   UNL     1       2.400  -8.704  -2.234  0.00  0.00    +0.145 HD
ATOM     26  H   UNL     1       1.107  -9.261  -3.151  0.00  0.00    +0.145 HD
ENDBRANCH  21  22
ENDBRANCH  16  21
ENDBRANCH   2  16
TORSDOF 8
