REMARK  Name = ZINC07594481
REMARK  7 active torsions:
REMARK  status: ('A' for Active; 'I' for Inactive)
REMARK    1  A    between atoms: C_1  and  C_2
REMARK    2  A    between atoms: C_6  and  C_28
REMARK    3  A    between atoms: C_7  and  N_8
REMARK    4  A    between atoms: C_9  and  C_11
REMARK    5  A    between atoms: N_16  and  C_18
REMARK    6  A    between atoms: C_18  and  C_19
REMARK    7  A    between atoms: C_23  and  N_25
REMARK                            x       y       z     vdW  Elec       q    Type
REMARK                         _______ _______ _______ _____ _____    ______ ____
ROOT
ATOM      1  C   UNL     1       0.961   6.012  -3.733  0.00  0.00    +0.053 A 
ATOM      2  C   UNL     1      -0.120   6.922  -3.821  0.00  0.00    +0.020 A 
ATOM      3  C   UNL     1      -1.265   6.655  -3.139  0.00  0.00    +0.071 A 
ATOM      4  C   UNL     1      -1.352   5.484  -2.363  0.00  0.00    +0.252 A 
ATOM      5  O   UNL     1      -2.377   5.239  -1.749  0.00  0.00    -0.268 OA
ATOM      6  N   UNL     1      -0.313   4.632  -2.293  0.00  0.00    -0.310 N 
ATOM      7  C   UNL     1       0.832   4.878  -2.956  0.00  0.00    +0.102 A 
ENDROOT
BRANCH   1   9
ATOM      8  N   UNL     1       2.337   7.385  -5.215  0.00  0.00    -0.281 N 
ATOM      9  C   UNL     1       2.215   6.275  -4.462  0.00  0.00    +0.250 C 
ATOM     10  O   UNL     1       3.140   5.489  -4.383  0.00  0.00    -0.270 OA
ATOM     11  H   UNL     1       1.581   7.985  -5.321  0.00  0.00    +0.155 HD
BRANCH   8  18
ATOM     12  C   UNL     1       4.699   7.410  -3.630  0.00  0.00    +0.045 C 
ATOM     13  C   UNL     1       4.729   7.696  -5.109  0.00  0.00    -0.029 A 
ATOM     14  C   UNL     1       5.928   7.978  -5.734  0.00  0.00    +0.005 A 
ATOM     15  C   UNL     1       5.955   8.245  -7.091  0.00  0.00    +0.001 A 
ATOM     16  C   UNL     1       4.784   8.228  -7.826  0.00  0.00    +0.005 A 
ATOM     17  C   UNL     1       3.583   7.943  -7.207  0.00  0.00    -0.029 A 
ATOM     18  C   UNL     1       3.551   7.674  -5.845  0.00  0.00    +0.040 A 
ATOM     19  C   UNL     1       2.307   7.925  -8.009  0.00  0.00    +0.045 C 
ENDBRANCH   8  18
ENDBRANCH   1   9
BRANCH   6  20
ATOM     20  C   UNL     1      -0.428   3.419  -1.479  0.00  0.00    +0.160 C 
BRANCH  20  21
ATOM     21  C   UNL     1      -0.973   2.297  -2.324  0.00  0.00    -0.026 A 
ATOM     22  C   UNL     1      -0.107   1.471  -3.017  0.00  0.00    +0.005 A 
ATOM     23  C   UNL     1      -0.606   0.441  -3.792  0.00  0.00    +0.003 A 
ATOM     24  C   UNL     1      -1.971   0.236  -3.874  0.00  0.00    +0.033 A 
ATOM     25  C   UNL     1      -2.837   1.065  -3.185  0.00  0.00    +0.127 A 
ATOM     26  C   UNL     1      -2.337   2.092  -2.406  0.00  0.00    +0.038 A 
BRANCH  25  27
ATOM     27  N   UNL     1      -4.298   0.849  -3.277  0.00  0.00    +0.056 N 
ATOM     28  O   UNL     1      -4.738  -0.058  -3.960  0.00  0.00    -0.126 OA
ATOM     29  O   UNL     1      -5.061   1.580  -2.670  0.00  0.00    -0.126 OA
ENDBRANCH  25  27
ENDBRANCH  20  21
ENDBRANCH   6  20
TORSDOF 5
