REMARK  Name = ZINC38056173
REMARK  4 active torsions:
REMARK  status: ('A' for Active; 'I' for Inactive)
REMARK    1  A    between atoms: C_5  and  O_7
REMARK    2  A    between atoms: O_7  and  C_8
REMARK    3  A    between atoms: C_8  and  C_9
REMARK    4  A    between atoms: C_12  and  N_15
REMARK                            x       y       z     vdW  Elec       q    Type
REMARK                         _______ _______ _______ _____ _____    ______ ____
ROOT
ATOM      1  C   UNL     1      -0.017   1.379   0.010  0.00  0.00    +0.004 A 
ATOM      2  C   UNL     1       1.167   2.090   0.002  0.00  0.00    +0.005 A 
ATOM      3  C   UNL     1       2.384   1.426  -0.012  0.00  0.00    -0.023 A 
ATOM      4  C   UNL     1       2.408   0.041  -0.017  0.00  0.00    +0.073 A 
ATOM      5  C   UNL     1       1.212  -0.677  -0.011  0.00  0.00    +0.142 A 
ATOM      6  C   UNL     1       0.002  -0.004   0.002  0.00  0.00    +0.047 A 
ATOM      7  N   UNL     1       3.623  -0.657  -0.022  0.00  0.00    -0.341 N 
ATOM      8  C   UNL     1       4.861   0.075  -0.324  0.00  0.00    +0.102 C 
ATOM      9  C   UNL     1       4.831   1.391   0.465  0.00  0.00    +0.023 C 
ATOM     10  C   UNL     1       3.655   2.234  -0.025  0.00  0.00    +0.038 C 
ATOM     11  H   UNL     1       3.647  -1.607   0.171  0.00  0.00    +0.146 HD
ENDROOT
BRANCH   5  12
ATOM     12  O   UNL     1       1.235  -2.037  -0.020  0.00  0.00    -0.486 OA
BRANCH  12  13
ATOM     13  C   UNL     1      -0.027  -2.707  -0.014  0.00  0.00    +0.264 C 
BRANCH  13  14
ATOM     14  C   UNL     1       0.195  -4.197  -0.025  0.00  0.00    -0.010 A 
ATOM     15  C   UNL     1       0.293  -4.872  -1.227  0.00  0.00    +0.009 A 
ATOM     16  C   UNL     1       0.497  -6.240  -1.237  0.00  0.00    +0.033 A 
ATOM     17  C   UNL     1       0.604  -6.931  -0.044  0.00  0.00    +0.126 A 
ATOM     18  C   UNL     1       0.507  -6.256   1.158  0.00  0.00    +0.033 A 
ATOM     19  C   UNL     1       0.307  -4.888   1.168  0.00  0.00    +0.009 A 
BRANCH  17  20
ATOM     20  N   UNL     1       0.821  -8.395  -0.055  0.00  0.00    +0.056 N 
ATOM     21  O   UNL     1       0.906  -8.986  -1.107  0.00  0.00    -0.126 OA
ATOM     22  O   UNL     1       0.914  -9.000   0.988  0.00  0.00    -0.126 OA
ENDBRANCH  17  20
ENDBRANCH  13  14
ENDBRANCH  12  13
ENDBRANCH   5  12
TORSDOF 4
