REMARK  Name = ZINC01579038
REMARK  4 active torsions:
REMARK  status: ('A' for Active; 'I' for Inactive)
REMARK    1  A    between atoms: C_4  and  N_18
REMARK    2  A    between atoms: C_7  and  O_17
REMARK    3  A    between atoms: C_19  and  C_21
REMARK    4  A    between atoms: C_22  and  C_23
REMARK                            x       y       z     vdW  Elec       q    Type
REMARK                         _______ _______ _______ _____ _____    ______ ____
ROOT
ATOM      1  C   UNL     1       0.116  -2.777   0.020  0.00  0.00    +0.027 A 
ATOM      2  C   UNL     1      -1.096  -2.119   0.150  0.00  0.00    +0.043 A 
ATOM      3  C   UNL     1      -1.140  -0.737   0.147  0.00  0.00    +0.044 A 
ATOM      4  C   UNL     1       0.029  -0.004   0.013  0.00  0.00    +0.043 A 
ATOM      5  C   UNL     1       1.257  -0.667  -0.124  0.00  0.00    +0.011 A 
ATOM      6  C   UNL     1       1.285  -2.058  -0.113  0.00  0.00    -0.004 A 
ATOM      7  C   UNL     1       2.724  -2.485  -0.269  0.00  0.00    +0.176 C 
ATOM      8  C   UNL     1       3.528  -1.212  -0.365  0.00  0.00    -0.004 A 
ATOM      9  C   UNL     1       2.637  -0.146  -0.273  0.00  0.00    +0.009 A 
ATOM     10  C   UNL     1       3.125   1.163  -0.334  0.00  0.00    +0.050 A 
ATOM     11  C   UNL     1       4.479   1.387  -0.484  0.00  0.00    +0.040 A 
ATOM     12  C   UNL     1       5.356   0.320  -0.575  0.00  0.00    +0.043 A 
ATOM     13  C   UNL     1       4.879  -0.979  -0.515  0.00  0.00    +0.027 A 
ATOM     14 CL   UNL     1       7.057   0.610  -0.764  0.00  0.00    -0.083 Cl
ATOM     15 CL   UNL     1       2.030   2.505  -0.219  0.00  0.00    -0.083 Cl
ATOM     16 CL   UNL     1      -2.564  -3.032   0.316  0.00  0.00    -0.083 Cl
ENDROOT
BRANCH   4  17
ATOM     17  N   UNL     1      -0.017   1.391   0.010  0.00  0.00    -0.281 N 
ATOM     18  C   UNL     1      -0.731   2.039  -0.931  0.00  0.00    +0.241 C 
ATOM     19  O   UNL     1      -1.406   1.410  -1.723  0.00  0.00    -0.270 OA
ATOM     20  H   UNL     1       0.469   1.894   0.682  0.00  0.00    +0.155 HD
BRANCH  18  21
ATOM     21  C   UNL     1      -0.695   3.513  -1.001  0.00  0.00    +0.075 C 
ATOM     22  C   UNL     1      -1.407   4.159  -1.939  0.00  0.00    +0.101 C 
BRANCH  22  23
ATOM     23  C   UNL     1      -1.370   5.632  -2.009  0.00  0.00    +0.380 C 
ATOM     24  O   UNL     1      -0.696   6.261  -1.218  0.00  0.00    -0.241 OA
ATOM     25  O   UNL     1      -2.084   6.280  -2.950  0.00  0.00    -0.241 OA
ENDBRANCH  22  23
ENDBRANCH  18  21
ENDBRANCH   4  17
BRANCH   7  26
ATOM     26  O   UNL     1       2.881  -3.259  -1.460  0.00  0.00    -0.382 OA
ATOM     27  H   UNL     1       3.786  -3.562  -1.616  0.00  0.00    +0.211 HD
ENDBRANCH   7  26
TORSDOF 4
