REMARK  Name = ZINC32603120
REMARK  8 active torsions:
REMARK  status: ('A' for Active; 'I' for Inactive)
REMARK    1  A    between atoms: C_8  and  C_12
REMARK    2  A    between atoms: C_12  and  O_14
REMARK    3  A    between atoms: O_14  and  C_15
REMARK    4  A    between atoms: C_17  and  O_30
REMARK    5  A    between atoms: C_19  and  C_28
REMARK    6  A    between atoms: C_22  and  O_27
REMARK    7  A    between atoms: C_24  and  O_26
REMARK    8  A    between atoms: C_28  and  O_29
REMARK                            x       y       z     vdW  Elec       q    Type
REMARK                         _______ _______ _______ _____ _____    ______ ____
ROOT
ATOM      1  C   UNL     1      -6.295   5.807   0.099  0.00  0.00    +0.241 C 
ATOM      2  C   UNL     1      -6.235   7.162  -0.612  0.00  0.00    +0.189 C 
ATOM      3  C   UNL     1      -5.290   8.091   0.156  0.00  0.00    +0.179 C 
ATOM      4  O   UNL     1      -5.745   8.223   1.504  0.00  0.00    -0.341 OA
ATOM      5  C   UNL     1      -5.777   6.994   2.232  0.00  0.00    +0.280 C 
ATOM      6  C   UNL     1      -6.743   6.020   1.548  0.00  0.00    +0.213 C 
ENDROOT
BRANCH   6   7
ATOM      7  O   UNL     1      -8.063   6.566   1.565  0.00  0.00    -0.383 OA
ATOM      8  H   UNL     1      -8.554   6.788   2.524  0.00  0.00    +0.210 HD
ENDBRANCH   6   7
BRANCH   5   9
ATOM      9  O   UNL     1      -6.219   7.244   3.568  0.00  0.00    -0.365 OA
ATOM     10  H   UNL     1      -6.307   6.412   4.282  0.00  0.00    +0.213 HD
ENDBRANCH   5   9
BRANCH   2  11
ATOM     11  O   UNL     1      -5.750   6.982  -1.944  0.00  0.00    -0.385 OA
ATOM     12  H   UNL     1      -5.639   7.850  -2.611  0.00  0.00    +0.210 HD
ENDBRANCH   2  11
BRANCH   1  13
ATOM     13  O   UNL     1      -4.981   5.191   0.082  0.00  0.00    -0.452 OA
BRANCH  13  14
ATOM     14  C   UNL     1      -4.936   3.844   0.074  0.00  0.00    +0.347 C 
ATOM     15  O   UNL     1      -5.968   3.201   0.081  0.00  0.00    -0.245 OA
BRANCH  14  23
ATOM     16  C   UNL     1       1.168   3.170   0.008  0.00  0.00    +0.001 A 
ATOM     17  C   UNL     1       1.172   1.781   0.000  0.00  0.00    +0.004 A 
ATOM     18  C   UNL     1      -0.013   1.076   0.008  0.00  0.00    +0.047 A 
ATOM     19  C   UNL     1      -1.226   1.755   0.017  0.00  0.00    +0.139 A 
ATOM     20  C   UNL     1      -1.227   3.161   0.031  0.00  0.00    +0.018 A 
ATOM     21  C   UNL     1      -0.010   3.859   0.024  0.00  0.00    +0.011 A 
ATOM     22  C   UNL     1      -2.455   3.870   0.049  0.00  0.00    +0.033 A 
ATOM     23  C   UNL     1      -3.638   3.151   0.057  0.00  0.00    +0.144 A 
ATOM     24  C   UNL     1      -3.575   1.685   0.047  0.00  0.00    +0.351 A 
ATOM     25  O   UNL     1      -4.601   1.032   0.054  0.00  0.00    -0.244 OA
ATOM     26  O   UNL     1      -2.385   1.061   0.031  0.00  0.00    -0.422 OA
ENDBRANCH  14  23
ENDBRANCH  13  14
ENDBRANCH   1  13
BRANCH   3  27
ATOM     27  C   UNL     1      -5.271   9.466  -0.514  0.00  0.00    +0.190 C 
BRANCH  27  28
ATOM     28  O   UNL     1      -4.303  10.296   0.131  0.00  0.00    -0.392 OA
ATOM     29  H   UNL     1      -4.146  11.329  -0.215  0.00  0.00    +0.210 HD
ENDBRANCH  27  28
ENDBRANCH   3  27
TORSDOF 8
