REMARK  Name = ZINC19861593
REMARK  9 active torsions:
REMARK  status: ('A' for Active; 'I' for Inactive)
REMARK    1  A    between atoms: C_1  and  C_2
REMARK    2  A    between atoms: C_2  and  C_3
REMARK    3  A    between atoms: C_2  and  C_4
REMARK    4  A    between atoms: C_2  and  C_5
REMARK    5  A    between atoms: C_8  and  C_11
REMARK    6  A    between atoms: C_11  and  S_12
REMARK    7  A    between atoms: S_12  and  C_13
REMARK    8  A    between atoms: C_16  and  C_19
REMARK    9  A    between atoms: N_17  and  N_18
REMARK                            x       y       z     vdW  Elec       q    Type
REMARK                         _______ _______ _______ _____ _____    ______ ____
ROOT
ATOM      1  C   UNL     1      -0.017   1.362   0.009  0.00  0.00    +0.209 A 
ATOM      2  N   UNL     1       1.233   1.768  -0.000  0.00  0.00    -0.120 NA
ATOM      3  N   UNL     1       2.026   0.757  -0.013  0.00  0.00    -0.125 NA
ATOM      4  C   UNL     1       1.331  -0.357  -0.013  0.00  0.00    +0.202 A 
ATOM      5  N   UNL     1       0.002  -0.004   0.002  0.00  0.00    -0.222 N 
ENDROOT
BRANCH   4   6
ATOM      6  C   UNL     1       1.876  -1.732  -0.026  0.00  0.00    +0.134 A 
ATOM      7  C   UNL     1       3.244  -2.085  -0.046  0.00  0.00    +0.004 A 
ATOM      8  C   UNL     1       3.324  -3.431  -0.049  0.00  0.00    +0.040 A 
ATOM      9  N   UNL     1       2.062  -3.924  -0.040  0.00  0.00    -0.281 N 
ATOM     10  H   UNL     1       1.897  -5.011  -0.045  0.00  0.00    +0.189 HD
ATOM     11  N   UNL     1       1.171  -2.845  -0.026  0.00  0.00    -0.170 NA
ATOM     12  C   UNL     1       4.771  -3.872  -0.064  0.00  0.00    +0.055 C 
ATOM     13  C   UNL     1       5.563  -2.621  -0.515  0.00  0.00    +0.011 C 
ATOM     14  C   UNL     1       4.630  -1.476  -0.063  0.00  0.00    +0.039 C 
ENDBRANCH   4   6
BRANCH   5  15
ATOM     15  N   UNL     1      -1.075  -0.844   0.008  0.00  0.00    -0.295 N 
ATOM     16  H   UNL     1      -0.923  -1.934   0.001  0.00  0.00    +0.163 HD
ATOM     17  H   UNL     1      -2.095  -0.431   0.021  0.00  0.00    +0.163 HD
ENDBRANCH   5  15
BRANCH   1  18
ATOM     18  S   UNL     1      -1.449   2.388   0.022  0.00  0.00    -0.080 S 
BRANCH  18  19
ATOM     19  C   UNL     1      -0.667   4.020   0.027  0.00  0.00    +0.112 C 
BRANCH  19  23
ATOM     20  C   UNL     1      -3.682   7.045   0.059  0.00  0.00    -0.042 A 
ATOM     21  C   UNL     1      -3.189   6.549   1.251  0.00  0.00    +0.004 A 
ATOM     22  C   UNL     1      -2.213   5.570   1.240  0.00  0.00    +0.005 A 
ATOM     23  C   UNL     1      -1.731   5.087   0.038  0.00  0.00    -0.037 A 
ATOM     24  C   UNL     1      -2.221   5.587  -1.154  0.00  0.00    +0.005 A 
ATOM     25  C   UNL     1      -3.200   6.563  -1.144  0.00  0.00    +0.004 A 
BRANCH  20  27
ATOM     26  C   UNL     1      -4.219   9.351   0.796  0.00  0.00    +0.015 C 
ATOM     27  C   UNL     1      -4.747   8.112   0.070  0.00  0.00    -0.013 C 
ATOM     28  C   UNL     1      -5.113   8.482  -1.369  0.00  0.00    +0.015 C 
ATOM     29  C   UNL     1      -5.988   7.587   0.793  0.00  0.00    +0.015 C 
ENDBRANCH  20  27
ENDBRANCH  19  23
ENDBRANCH  18  19
ENDBRANCH   1  18
TORSDOF 6
