REMARK  Name = ZINC63557170
REMARK  8 active torsions:
REMARK  status: ('A' for Active; 'I' for Inactive)
REMARK    1  A    between atoms: C_1  and  C_2
REMARK    2  A    between atoms: C_2  and  C_3
REMARK    3  A    between atoms: C_3  and  C_4
REMARK    4  A    between atoms: C_8  and  N_11
REMARK    5  A    between atoms: C_12  and  C_14
REMARK    6  A    between atoms: N_19  and  C_21
REMARK    7  A    between atoms: C_21  and  C_22
REMARK    8  A    between atoms: C_22  and  C_23
REMARK                            x       y       z     vdW  Elec       q    Type
REMARK                         _______ _______ _______ _____ _____    ______ ____
ROOT
ATOM      1  C   UNL     1      -2.416  -5.090   5.763  0.00  0.00    +0.101 C 
ATOM      2  C   UNL     1      -2.319  -3.836   6.664  0.00  0.00    +0.110 C 
ATOM      3  C   UNL     1      -2.581  -4.361   8.058  0.00  0.00    +0.216 C 
ATOM      4  O   UNL     1      -2.870  -3.674   9.016  0.00  0.00    -0.276 OA
ATOM      5  N   UNL     1      -2.446  -5.698   8.082  0.00  0.00    -0.300 N 
ATOM      6  C   UNL     1      -2.081  -6.221   6.760  0.00  0.00    +0.121 C 
ENDROOT
BRANCH   1   8
ATOM      7  N   UNL     1      -1.483  -4.071   3.711  0.00  0.00    -0.284 N 
ATOM      8  C   UNL     1      -1.401  -5.034   4.651  0.00  0.00    +0.220 C 
ATOM      9  O   UNL     1      -0.510  -5.855   4.601  0.00  0.00    -0.275 OA
ATOM     10  H   UNL     1      -2.195  -3.414   3.751  0.00  0.00    +0.152 HD
BRANCH   7  14
ATOM     11  C   UNL     1       0.763  -2.041   1.233  0.00  0.00    +0.188 C 
ATOM     12  N   UNL     1       1.353  -2.579   2.480  0.00  0.00    -0.175 NA
ATOM     13  N   UNL     1       0.792  -3.459   3.102  0.00  0.00    -0.157 NA
ATOM     14  C   UNL     1      -0.496  -4.016   2.630  0.00  0.00    +0.275 C 
ATOM     15  S   UNL     1      -0.944  -2.738   1.370  0.00  0.00    -0.085 S 
BRANCH  11  16
ATOM     16  C   UNL     1       0.742  -0.511   1.242  0.00  0.00    +0.039 C 
BRANCH  16  18
ATOM     17  C   UNL     1      -0.019   1.526   0.010  0.00  0.00    +0.004 C 
ATOM     18  C   UNL     1       0.002  -0.004   0.002  0.00  0.00    -0.000 C 
ENDBRANCH  16  18
ENDBRANCH  11  16
ENDBRANCH   7  14
ENDBRANCH   1   8
BRANCH   5  19
ATOM     19  C   UNL     1      -2.639  -6.527   9.275  0.00  0.00    +0.112 C 
BRANCH  19  20
ATOM     20  C   UNL     1      -4.103  -6.963   9.362  0.00  0.00    +0.052 C 
BRANCH  20  21
ATOM     21  C   UNL     1      -4.301  -7.815  10.588  0.00  0.00    -0.040 C 
ATOM     22  C   UNL     1      -4.732  -7.405  11.803  0.00  0.00    +0.000 A 
ATOM     23  C   UNL     1      -5.130  -6.093  12.325  0.00  0.00    +0.030 A 
ATOM     24  C   UNL     1      -5.525  -5.992  13.616  0.00  0.00    +0.042 A 
ATOM     25  C   UNL     1      -5.563  -7.109  14.464  0.00  0.00    +0.022 A 
ATOM     26  C   UNL     1      -5.212  -8.346  14.056  0.00  0.00    +0.027 A 
ATOM     27  C   UNL     1      -4.782  -8.567  12.719  0.00  0.00    +0.043 A 
ATOM     28  N   UNL     1      -4.396  -9.654  12.094  0.00  0.00    -0.380 N 
ATOM     29  C   UNL     1      -4.064  -9.304  10.709  0.00  0.00    +0.144 C 
ATOM     30 CL   UNL     1      -5.996  -4.441  14.237  0.00  0.00    -0.084 Cl
ATOM     31  H   UNL     1      -4.343 -10.541  12.483  0.00  0.00    +0.160 HD
ENDBRANCH  20  21
ENDBRANCH  19  20
ENDBRANCH   5  19
TORSDOF 7
