REMARK  Name = ZINC65435158
REMARK  6 active torsions:
REMARK  status: ('A' for Active; 'I' for Inactive)
REMARK    1  A    between atoms: N_8  and  C_12
REMARK    2  A    between atoms: C_12  and  C_13
REMARK    3  A    between atoms: N_15  and  C_16
REMARK    4  A    between atoms: C_16  and  C_17
REMARK    5  A    between atoms: C_17  and  C_18
REMARK    6  A    between atoms: C_18  and  C_19
REMARK                            x       y       z     vdW  Elec       q    Type
REMARK                         _______ _______ _______ _____ _____    ______ ____
ROOT
ATOM      1  C   UNL     1       1.645  -4.506  -2.861  0.00  0.00    +0.196 C 
ATOM      2  O   UNL     1       2.296  -3.778  -3.580  0.00  0.00    -0.278 OA
ATOM      3  N   UNL     1       1.288  -5.733  -3.289  0.00  0.00    -0.317 N 
ATOM      4  H   UNL     1       0.767  -6.315  -2.714  0.00  0.00    +0.149 HD
ENDROOT
BRANCH   1   5
ATOM      5  C   UNL     1       1.236  -4.039  -1.488  0.00  0.00    +0.019 C 
BRANCH   5  13
ATOM      6  C   UNL     1      -0.017   1.380   0.010  0.00  0.00    +0.000 A 
ATOM      7  C   UNL     1       1.170   2.090   0.002  0.00  0.00    +0.004 A 
ATOM      8  C   UNL     1       2.380   1.422  -0.021  0.00  0.00    +0.046 A 
ATOM      9  C   UNL     1       2.397   0.035  -0.032  0.00  0.00    +0.122 A 
ATOM     10  C   UNL     1       1.211  -0.671  -0.010  0.00  0.00    -0.022 A 
ATOM     11  C   UNL     1       0.002  -0.004   0.002  0.00  0.00    +0.005 A 
ATOM     12  C   UNL     1       1.242  -2.186   0.026  0.00  0.00    -0.039 C 
ATOM     13  N   UNL     1       1.744  -2.679  -1.261  0.00  0.00    +0.390 N 
ATOM     14  C   UNL     1       3.203  -2.704  -1.284  0.00  0.00    -0.036 C 
ATOM     15  C   UNL     1       3.842  -1.333  -1.302  0.00  0.00    +0.210 C 
ATOM     16  O   UNL     1       3.583  -0.634  -0.078  0.00  0.00    -0.494 OA
ATOM     17  H   UNL     1       1.412  -2.076  -1.999  0.00  0.00    -0.081 HD
ENDBRANCH   5  13
ENDBRANCH   1   5
BRANCH   3  18
ATOM     18  C   UNL     1       1.686  -6.187  -4.624  0.00  0.00    +0.104 C 
BRANCH  18  19
ATOM     19  C   UNL     1       1.156  -7.603  -4.860  0.00  0.00    +0.025 C 
BRANCH  19  20
ATOM     20  C   UNL     1       1.572  -8.077  -6.254  0.00  0.00    +0.066 C 
BRANCH  20  21
ATOM     21  C   UNL     1       1.050  -9.472  -6.486  0.00  0.00    +0.104 A 
ATOM     22  N   UNL     1      -0.092  -9.873  -7.006  0.00  0.00    -0.145 NA
ATOM     23  N   UNL     1      -0.381 -11.094  -7.133  0.00  0.00    -0.126 NA
ATOM     24  C   UNL     1       0.452 -12.053  -6.750  0.00  0.00    +0.179 A 
ATOM     25  S   UNL     1       1.810 -11.056  -6.142  0.00  0.00    -0.036 S 
ATOM     26  N   UNL     1       0.313 -13.432  -6.807  0.00  0.00    -0.336 N 
ATOM     27  H   UNL     1      -0.495 -13.823  -7.175  0.00  0.00    +0.144 HD
ATOM     28  H   UNL     1       1.024 -14.005  -6.481  0.00  0.00    +0.144 HD
ENDBRANCH  20  21
ENDBRANCH  19  20
ENDBRANCH  18  19
ENDBRANCH   3  18
TORSDOF 6
