REMARK  Name = ZINC45501124
REMARK  9 active torsions:
REMARK  status: ('A' for Active; 'I' for Inactive)
REMARK    1  A    between atoms: C_1  and  C_2
REMARK    2  A    between atoms: C_2  and  O_3
REMARK    3  A    between atoms: O_3  and  C_4
REMARK    4  A    between atoms: C_9  and  N_10
REMARK    5  A    between atoms: N_13  and  C_16
REMARK    6  A    between atoms: C_16  and  N_17
REMARK    7  A    between atoms: N_20  and  C_29
REMARK    8  A    between atoms: C_21  and  C_23
REMARK    9  A    between atoms: C_23  and  N_24
REMARK                            x       y       z     vdW  Elec       q    Type
REMARK                         _______ _______ _______ _____ _____    ______ ____
ROOT
ATOM      1  N   UNL     1       5.386  -0.055   6.983  0.00  0.00    -0.257 N 
ATOM      2  C   UNL     1       6.631  -0.568   6.896  0.00  0.00    +0.181 A 
ATOM      3  S   UNL     1       7.063  -2.215   7.076  0.00  0.00    -0.011 S 
ATOM      4  N   UNL     1       7.471   0.455   6.641  0.00  0.00    -0.277 N 
ATOM      5  C   UNL     1       6.734   1.613   6.569  0.00  0.00    +0.120 A 
ATOM      6  N   UNL     1       5.487   1.326   6.766  0.00  0.00    -0.159 NA
ENDROOT
BRANCH   4   7
ATOM      7  C   UNL     1       8.859   0.354   6.476  0.00  0.00    +0.050 A 
ATOM      8  C   UNL     1       9.383  -0.303   5.371  0.00  0.00    +0.026 A 
ATOM      9  C   UNL     1      10.752  -0.400   5.211  0.00  0.00    +0.002 A 
ATOM     10  C   UNL     1      11.600   0.156   6.152  0.00  0.00    +0.000 A 
ATOM     11  C   UNL     1      11.081   0.810   7.254  0.00  0.00    +0.002 A 
ATOM     12  C   UNL     1       9.713   0.917   7.415  0.00  0.00    +0.026 A 
ENDBRANCH   4   7
BRANCH   1  13
ATOM     13  C   UNL     1       4.155  -0.804   7.250  0.00  0.00    +0.072 C 
BRANCH  13  17
ATOM     14  N   UNL     1       2.037  -2.290   3.961  0.00  0.00    -0.331 N 
ATOM     15  C   UNL     1       1.254  -1.633   5.019  0.00  0.00    +0.087 C 
ATOM     16  C   UNL     1       2.101  -1.589   6.295  0.00  0.00    -0.057 C 
ATOM     17  N   UNL     1       3.388  -0.945   6.005  0.00  0.00    +0.395 N 
ATOM     18  C   UNL     1       4.152  -1.760   5.051  0.00  0.00    -0.057 C 
ATOM     19  C   UNL     1       3.408  -1.815   3.717  0.00  0.00    +0.087 C 
ATOM     20  H   UNL     1       3.224  -0.032   5.609  0.00  0.00    -0.079 HD
BRANCH  14  26
ATOM     21  C   UNL     1       0.808  -3.075   2.030  0.00  0.00    +0.141 A 
ATOM     22  C   UNL     1       0.279  -4.119   1.290  0.00  0.00    +0.047 A 
ATOM     23  C   UNL     1       0.430  -5.423   1.727  0.00  0.00    +0.004 A 
ATOM     24  C   UNL     1       1.107  -5.688   2.903  0.00  0.00    +0.002 A 
ATOM     25  C   UNL     1       1.638  -4.651   3.647  0.00  0.00    +0.027 A 
ATOM     26  C   UNL     1       1.496  -3.341   3.212  0.00  0.00    +0.072 A 
BRANCH  21  27
ATOM     27  O   UNL     1       0.660  -1.792   1.602  0.00  0.00    -0.490 OA
BRANCH  27  29
ATOM     28  C   UNL     1      -0.120  -0.099   0.064  0.00  0.00    +0.048 C 
ATOM     29  C   UNL     1      -0.057  -1.595   0.382  0.00  0.00    +0.226 C 
ENDBRANCH  27  29
ENDBRANCH  21  27
ENDBRANCH  14  26
ENDBRANCH  13  17
ENDBRANCH   1  13
BRANCH   5  30
ATOM     30  C   UNL     1       7.285   2.989   6.301  0.00  0.00    -0.001 C 
BRANCH  30  31
ATOM     31  N   UNL     1       6.208   3.981   6.423  0.00  0.00    +0.384 N 
ATOM     32  C   UNL     1       5.774   4.094   7.838  0.00  0.00    -0.078 C 
ATOM     33  C   UNL     1       5.105   5.490   7.894  0.00  0.00    -0.020 C 
ATOM     34  C   UNL     1       6.000   6.339   6.961  0.00  0.00    -0.020 C 
ATOM     35  C   UNL     1       6.705   5.322   6.045  0.00  0.00    -0.078 C 
ATOM     36  H   UNL     1       5.428   3.721   5.838  0.00  0.00    -0.081 HD
ENDBRANCH  30  31
ENDBRANCH   5  30
TORSDOF 8
