REMARK  Name = ZINC65440346
REMARK  8 active torsions:
REMARK  status: ('A' for Active; 'I' for Inactive)
REMARK    1  A    between atoms: C_1  and  C_2
REMARK    2  A    between atoms: C_2  and  C_3
REMARK    3  A    between atoms: C_2  and  N_4
REMARK    4  A    between atoms: C_7  and  C_9
REMARK    5  A    between atoms: C_9  and  N_10
REMARK    6  A    between atoms: N_13  and  C_14
REMARK    7  A    between atoms: C_14  and  C_15
REMARK    8  A    between atoms: C_15  and  C_21
REMARK                            x       y       z     vdW  Elec       q    Type
REMARK                         _______ _______ _______ _____ _____    ______ ____
ROOT
ATOM      1  N   UNL     1      -4.517  -3.937  -1.189  0.00  0.00    -0.299 N 
ATOM      2  C   UNL     1      -5.519  -4.569  -0.547  0.00  0.00    +0.300 C 
ATOM      3  O   UNL     1      -5.438  -4.782   0.647  0.00  0.00    -0.253 OA
ATOM      4  N   UNL     1      -6.611  -4.967  -1.230  0.00  0.00    -0.299 N 
ATOM      5  H   UNL     1      -4.581  -3.767  -2.142  0.00  0.00    +0.150 HD
ATOM      6  H   UNL     1      -6.676  -4.797  -2.183  0.00  0.00    +0.150 HD
ENDROOT
BRANCH   1   7
ATOM      7  C   UNL     1      -3.329  -3.505  -0.447  0.00  0.00    +0.107 C 
BRANCH   7  11
ATOM      8  N   UNL     1      -0.983  -0.930  -0.729  0.00  0.00    +0.381 N 
ATOM      9  C   UNL     1      -1.737  -0.541  -1.948  0.00  0.00    -0.078 C 
ATOM     10  C   UNL     1      -2.957  -1.497  -1.930  0.00  0.00    -0.015 C 
ATOM     11  C   UNL     1      -2.352  -2.818  -1.403  0.00  0.00    -0.012 C 
ATOM     12  C   UNL     1      -1.073  -2.404  -0.653  0.00  0.00    -0.074 C 
ATOM     13  H   UNL     1      -1.401  -0.513   0.088  0.00  0.00    -0.081 HD
BRANCH   8  15
ATOM     14  C   UNL     1       0.495   1.012  -0.926  0.00  0.00    -0.014 C 
ATOM     15  C   UNL     1       0.421  -0.514  -0.848  0.00  0.00    -0.075 C 
ATOM     16  C   UNL     1       1.203  -1.001   0.373  0.00  0.00    -0.014 C 
ENDBRANCH   8  15
ENDBRANCH   7  11
ENDBRANCH   1   7
BRANCH   4  17
ATOM     17  C   UNL     1      -7.701  -5.654  -0.533  0.00  0.00    +0.117 C 
BRANCH  17  18
ATOM     18  C   UNL     1      -8.859  -5.891  -1.504  0.00  0.00    +0.015 C 
ATOM     19  C   UNL     1     -10.015  -6.572  -0.766  0.00  0.00    +0.041 C 
ATOM     20  C   UNL     1      -9.554  -7.945  -0.269  0.00  0.00    +0.160 C 
ATOM     21  O   UNL     1      -9.104  -8.726  -1.378  0.00  0.00    -0.380 OA
ATOM     22  C   UNL     1      -7.994  -8.161  -2.077  0.00  0.00    +0.160 C 
ATOM     23  C   UNL     1      -8.392  -6.797  -2.647  0.00  0.00    +0.041 C 
BRANCH  18  24
ATOM     24  C   UNL     1      -9.324  -4.571  -2.064  0.00  0.00    -0.039 A 
ATOM     25  C   UNL     1      -9.298  -4.353  -3.429  0.00  0.00    +0.005 A 
ATOM     26  C   UNL     1      -9.725  -3.143  -3.944  0.00  0.00    +0.020 A 
ATOM     27  C   UNL     1     -10.178  -2.151  -3.092  0.00  0.00    +0.041 A 
ATOM     28  C   UNL     1     -10.203  -2.370  -1.727  0.00  0.00    +0.020 A 
ATOM     29  C   UNL     1      -9.782  -3.582  -1.214  0.00  0.00    +0.005 A 
ATOM     30 CL   UNL     1     -10.713  -0.630  -3.738  0.00  0.00    -0.084 Cl
ENDBRANCH  18  24
ENDBRANCH  17  18
ENDBRANCH   4  17
TORSDOF 6
