REMARK  Name = ZINC15613950
REMARK  8 active torsions:
REMARK  status: ('A' for Active; 'I' for Inactive)
REMARK    1  A    between atoms: C_1  and  C_2
REMARK    2  A    between atoms: C_7  and  C_9
REMARK    3  A    between atoms: C_7  and  C_10
REMARK    4  A    between atoms: N_13  and  C_17
REMARK    5  A    between atoms: C_17  and  C_18
REMARK    6  A    between atoms: N_20  and  C_21
REMARK    7  A    between atoms: C_21  and  C_22
REMARK    8  A    between atoms: N_24  and  C_25
REMARK                            x       y       z     vdW  Elec       q    Type
REMARK                         _______ _______ _______ _____ _____    ______ ____
ROOT
ATOM      1  C   UNL     1      -4.136  -3.884  -3.792  0.00  0.00    +0.231 C 
ATOM      2  O   UNL     1      -3.893  -2.706  -3.945  0.00  0.00    -0.274 OA
ATOM      3  N   UNL     1      -5.057  -4.488  -4.569  0.00  0.00    -0.305 N 
ATOM      4  H   UNL     1      -5.252  -5.431  -4.446  0.00  0.00    +0.149 HD
ENDROOT
BRANCH   1   5
ATOM      5  C   UNL     1      -3.409  -4.673  -2.733  0.00  0.00    +0.213 C 
BRANCH   5  17
ATOM      6  C   UNL     1      -0.679   1.408  -0.322  0.00  0.00    +0.007 C 
ATOM      7  C   UNL     1      -0.441  -0.103  -0.283  0.00  0.00    -0.011 C 
ATOM      8  C   UNL     1      -1.743  -0.834  -0.622  0.00  0.00    +0.038 C 
ATOM      9  C   UNL     1      -1.512  -2.340  -0.563  0.00  0.00    +0.113 C 
ATOM     10  C   UNL     1      -1.030  -2.758   0.822  0.00  0.00    +0.041 C 
ATOM     11  C   UNL     1       0.270  -2.020   1.156  0.00  0.00    -0.032 C 
ATOM     12  C   UNL     1       0.022  -0.510   1.117  0.00  0.00    +0.009 C 
ATOM     13  C   UNL     1       0.741  -2.424   2.554  0.00  0.00    +0.011 C 
ATOM     14  C   UNL     1       1.343  -2.387   0.129  0.00  0.00    +0.011 C 
ATOM     15  C   UNL     1      -2.776  -3.083  -0.928  0.00  0.00    +0.247 C 
ATOM     16  O   UNL     1      -3.842  -3.045  -0.352  0.00  0.00    -0.273 OA
ATOM     17  N   UNL     1      -2.469  -3.796  -2.031  0.00  0.00    -0.215 N 
ATOM     18  C   UNL     1      -1.197  -3.605  -2.404  0.00  0.00    +0.310 C 
ATOM     19  O   UNL     1      -0.688  -4.140  -3.369  0.00  0.00    -0.252 OA
ATOM     20  N   UNL     1      -0.546  -2.752  -1.589  0.00  0.00    -0.285 N 
ATOM     21  H   UNL     1       0.378  -2.468  -1.666  0.00  0.00    +0.151 HD
ENDBRANCH   5  17
ENDBRANCH   1   5
BRANCH   3  22
ATOM     22  C   UNL     1      -5.764  -3.721  -5.598  0.00  0.00    +0.200 C 
BRANCH  22  23
ATOM     23  C   UNL     1      -6.732  -4.623  -6.320  0.00  0.00    +0.234 C 
ATOM     24  O   UNL     1      -6.822  -5.791  -6.006  0.00  0.00    -0.274 OA
ATOM     25  N   UNL     1      -7.497  -4.131  -7.315  0.00  0.00    -0.282 N 
ATOM     26  H   UNL     1      -7.373  -3.217  -7.615  0.00  0.00    +0.155 HD
BRANCH  25  27
ATOM     27  C   UNL     1      -8.470  -4.941  -7.915  0.00  0.00    +0.072 A 
ATOM     28  C   UNL     1      -9.129  -5.907  -7.167  0.00  0.00    +0.029 A 
ATOM     29  C   UNL     1     -10.089  -6.705  -7.760  0.00  0.00    +0.043 A 
ATOM     30  C   UNL     1     -10.395  -6.543  -9.100  0.00  0.00    +0.161 A 
ATOM     31  C   UNL     1      -9.740  -5.579  -9.851  0.00  0.00    +0.195 A 
ATOM     32  C   UNL     1      -8.782  -4.774  -9.259  0.00  0.00    +0.182 A 
ATOM     33  F   UNL     1      -8.146  -3.830  -9.989  0.00  0.00    -0.200 F 
ATOM     34  F   UNL     1     -10.040  -5.423 -11.159  0.00  0.00    -0.199 F 
ATOM     35  F   UNL     1     -11.334  -7.325  -9.677  0.00  0.00    -0.202 F 
ENDBRANCH  25  27
ENDBRANCH  22  23
ENDBRANCH   3  22
TORSDOF 5
