REMARK  Name = ZINC62794201
REMARK  4 active torsions:
REMARK  status: ('A' for Active; 'I' for Inactive)
REMARK    1  A    between atoms: C_3  and  S_10
REMARK    2  A    between atoms: C_6  and  C_7
REMARK    3  A    between atoms: S_10  and  C_11
REMARK    4  A    between atoms: C_15  and  N_17
REMARK                            x       y       z     vdW  Elec       q    Type
REMARK                         _______ _______ _______ _____ _____    ______ ____
ROOT
ATOM      1  C   UNL     1       3.384   4.004  -0.160  0.00  0.00    +0.196 A 
ATOM      2  N   UNL     1       2.091   4.292  -0.118  0.00  0.00    -0.207 NA
ATOM      3  C   UNL     1       1.669   5.550  -0.217  0.00  0.00    +0.122 A 
ATOM      4  C   UNL     1       2.606   6.569  -0.366  0.00  0.00    +0.086 A 
ATOM      5  C   UNL     1       3.955   6.228  -0.406  0.00  0.00    +0.122 A 
ATOM      6  N   UNL     1       4.303   4.948  -0.295  0.00  0.00    -0.207 NA
ATOM      7  N   UNL     1       0.315   5.842  -0.173  0.00  0.00    -0.343 N 
ATOM      8  H   UNL     1      -0.333   5.127  -0.070  0.00  0.00    +0.144 HD
ATOM      9  H   UNL     1       0.014   6.762  -0.246  0.00  0.00    +0.144 HD
ENDROOT
BRANCH   5  10
ATOM     10  N   UNL     1       4.923   7.209  -0.553  0.00  0.00    -0.343 N 
ATOM     11  H   UNL     1       4.662   8.140  -0.629  0.00  0.00    +0.144 HD
ATOM     12  H   UNL     1       5.861   6.965  -0.580  0.00  0.00    +0.144 HD
ENDBRANCH   5  10
BRANCH   1  13
ATOM     13  S   UNL     1       3.893   2.323  -0.024  0.00  0.00    -0.048 S 
BRANCH  13  16
ATOM     14  C   UNL     1       0.710   0.187   1.183  0.00  0.00    +0.020 A 
ATOM     15  C   UNL     1       1.892   0.893   1.174  0.00  0.00    +0.018 A 
ATOM     16  C   UNL     1       2.381   1.418  -0.018  0.00  0.00    +0.034 A 
ATOM     17  C   UNL     1       1.679   1.230  -1.206  0.00  0.00    +0.056 A 
ATOM     18  C   UNL     1       0.496   0.525  -1.204  0.00  0.00    +0.040 A 
ATOM     19  C   UNL     1       0.002  -0.004  -0.007  0.00  0.00    +0.053 A 
ATOM     20 CL   UNL     1       2.294   1.887  -2.691  0.00  0.00    -0.082 Cl
BRANCH  19  21
ATOM     21  C   UNL     1      -1.227  -0.739  -0.001  0.00  0.00    +0.099 C 
ATOM     22  N   UNL     1      -2.202  -1.322   0.004  0.00  0.00    -0.191 NA
ENDBRANCH  19  21
ENDBRANCH  13  16
ENDBRANCH   1  13
TORSDOF 4
