REMARK  Name = ZINC03407266
REMARK  14 active torsions:
REMARK  status: ('A' for Active; 'I' for Inactive)
REMARK    1  A    between atoms: C_1  and  C_2
REMARK    2  A    between atoms: C_5  and  N_9
REMARK    3  A    between atoms: C_6  and  C_8
REMARK    4  A    between atoms: C_10  and  C_12
REMARK    5  A    between atoms: C_12  and  N_60
REMARK    6  A    between atoms: C_13  and  C_14
REMARK    7  A    between atoms: C_13  and  N_60
REMARK    8  A    between atoms: C_14  and  C_15
REMARK    9  A    between atoms: C_15  and  O_16
REMARK   10  A    between atoms: C_17  and  C_18
REMARK   11  A    between atoms: C_17  and  N_60
REMARK   12  A    between atoms: N_20  and  C_21
REMARK   13  A    between atoms: C_24  and  C_28
REMARK   14  A    between atoms: C_26  and  C_27
REMARK                            x       y       z     vdW  Elec       q    Type
REMARK                         _______ _______ _______ _____ _____    ______ ____
ROOT
ATOM      1  N   UNL     1       2.058   1.233  -0.309  0.00  0.00    +0.391 N 
ATOM      2  H   UNL     1       1.807   0.617  -1.090  0.00  0.00    -0.080 HD
ENDROOT
BRANCH   1   3
ATOM      3  C   UNL     1       1.425   2.553  -0.516  0.00  0.00    +0.020 C 
BRANCH   3   5
ATOM      4  N   UNL     1       0.971   4.050  -2.431  0.00  0.00    -0.287 N 
ATOM      5  C   UNL     1       1.564   2.933  -1.967  0.00  0.00    +0.201 C 
ATOM      6  O   UNL     1       2.214   2.235  -2.717  0.00  0.00    -0.278 OA
ATOM      7  H   UNL     1       0.496   4.636  -1.821  0.00  0.00    +0.155 HD
BRANCH   4  12
ATOM      8  C   UNL     1       1.250   5.326  -7.952  0.00  0.00    +0.044 C 
ATOM      9  C   UNL     1       1.176   4.987  -6.486  0.00  0.00    -0.050 A 
ATOM     10  C   UNL     1       2.159   4.205  -5.908  0.00  0.00    +0.005 A 
ATOM     11  C   UNL     1       2.094   3.893  -4.564  0.00  0.00    +0.024 A 
ATOM     12  C   UNL     1       1.040   4.365  -3.793  0.00  0.00    +0.036 A 
ATOM     13  C   UNL     1       0.052   5.146  -4.378  0.00  0.00    -0.029 A 
ATOM     14  C   UNL     1       0.125   5.459  -5.721  0.00  0.00    +0.008 A 
ATOM     15  C   UNL     1      -1.097   5.656  -3.546  0.00  0.00    +0.045 C 
ENDBRANCH   4  12
ENDBRANCH   3   5
ENDBRANCH   1   3
BRANCH   1  16
ATOM     16  C   UNL     1       1.573   0.632   0.952  0.00  0.00    -0.075 C 
BRANCH  16  17
ATOM     17  C   UNL     1       0.091   0.286   0.795  0.00  0.00    +0.009 C 
BRANCH  17  18
ATOM     18  C   UNL     1      -0.451  -0.248   2.122  0.00  0.00    +0.154 C 
BRANCH  18  19
ATOM     19  O   UNL     1      -1.835  -0.572   1.976  0.00  0.00    -0.395 OA
ATOM     20  H   UNL     1      -2.246  -0.917   2.780  0.00  0.00    +0.209 HD
ENDBRANCH  18  19
ENDBRANCH  17  18
ENDBRANCH  16  17
ENDBRANCH   1  16
BRANCH   1  21
ATOM     21  C   UNL     1       3.528   1.379  -0.265  0.00  0.00    +0.020 C 
BRANCH  21  22
ATOM     22  C   UNL     1       4.154   0.008  -0.276  0.00  0.00    +0.201 C 
ATOM     23  O   UNL     1       3.450  -0.979  -0.299  0.00  0.00    -0.278 OA
ATOM     24  N   UNL     1       5.495  -0.120  -0.259  0.00  0.00    -0.287 N 
ATOM     25  H   UNL     1       6.057   0.667  -0.187  0.00  0.00    +0.155 HD
BRANCH  24  26
ATOM     26  C   UNL     1       6.077  -1.390  -0.347  0.00  0.00    +0.036 A 
ATOM     27  C   UNL     1       5.371  -2.510   0.074  0.00  0.00    +0.024 A 
ATOM     28  C   UNL     1       5.948  -3.761  -0.015  0.00  0.00    +0.005 A 
ATOM     29  C   UNL     1       7.228  -3.900  -0.522  0.00  0.00    -0.050 A 
ATOM     30  C   UNL     1       7.933  -2.787  -0.942  0.00  0.00    +0.008 A 
ATOM     31  C   UNL     1       7.359  -1.533  -0.861  0.00  0.00    -0.029 A 
ATOM     32  C   UNL     1       8.126  -0.322  -1.324  0.00  0.00    +0.045 C 
ATOM     33  C   UNL     1       7.854  -5.267  -0.617  0.00  0.00    +0.044 C 
ENDBRANCH  24  26
ENDBRANCH  21  22
ENDBRANCH   1  21
TORSDOF 10
