REMARK  Name = ZINC58386238
REMARK  6 active torsions:
REMARK  status: ('A' for Active; 'I' for Inactive)
REMARK    1  A    between atoms: C_1  and  C_2
REMARK    2  A    between atoms: C_2  and  C_3
REMARK    3  A    between atoms: C_2  and  N_15
REMARK    4  A    between atoms: C_16  and  C_18
REMARK    5  A    between atoms: C_23  and  S_24
REMARK    6  A    between atoms: S_24  and  C_25
REMARK                            x       y       z     vdW  Elec       q    Type
REMARK                         _______ _______ _______ _____ _____    ______ ____
ROOT
ATOM      1  N   UNL     1      -1.372  -0.511   0.012  0.00  0.00    -0.305 N 
ATOM      2  C   UNL     1      -2.029  -0.655   1.181  0.00  0.00    +0.247 C 
ATOM      3  O   UNL     1      -1.480  -0.364   2.226  0.00  0.00    -0.270 OA
ATOM      4  H   UNL     1      -1.810  -0.743  -0.822  0.00  0.00    +0.150 HD
ENDROOT
BRANCH   2   5
ATOM      5  C   UNL     1      -3.411  -1.165   1.191  0.00  0.00    +0.068 A 
ATOM      6  C   UNL     1      -4.053  -1.510  -0.004  0.00  0.00    +0.017 A 
ATOM      7  C   UNL     1      -5.351  -1.984   0.059  0.00  0.00    +0.020 A 
ATOM      8  C   UNL     1      -5.974  -2.104   1.290  0.00  0.00    +0.112 A 
ATOM      9  N   UNL     1      -5.353  -1.774   2.405  0.00  0.00    -0.248 NA
ATOM     10  C   UNL     1      -4.108  -1.321   2.402  0.00  0.00    +0.109 A 
BRANCH  10  11
ATOM     11  S   UNL     1      -3.324  -0.903   3.924  0.00  0.00    -0.102 S 
BRANCH  11  12
ATOM     12  C   UNL     1      -4.583  -1.262   5.180  0.00  0.00    +0.053 C 
ATOM     13  C   UNL     1      -5.760  -0.273   5.047  0.00  0.00    +0.014 C 
ATOM     14  C   UNL     1      -6.189   0.004   6.509  0.00  0.00    +0.001 C 
ATOM     15  C   UNL     1      -4.836   0.043   7.262  0.00  0.00    +0.001 C 
ATOM     16  C   UNL     1      -3.997  -1.062   6.588  0.00  0.00    +0.014 C 
ENDBRANCH  11  12
ENDBRANCH  10  11
ENDBRANCH   2   5
BRANCH   1  18
ATOM     17  C   UNL     1      -0.019   1.526   0.010  0.00  0.00    +0.033 C 
ATOM     18  C   UNL     1       0.002  -0.004   0.002  0.00  0.00    +0.100 C 
BRANCH  18  19
ATOM     19  C   UNL     1       0.707  -0.490  -1.238  0.00  0.00    -0.025 A 
ATOM     20  C   UNL     1       0.034  -0.520  -2.447  0.00  0.00    +0.007 A 
ATOM     21  C   UNL     1       0.672  -0.964  -3.589  0.00  0.00    +0.028 A 
ATOM     22  C   UNL     1       1.993  -1.381  -3.523  0.00  0.00    +0.067 A 
ATOM     23  C   UNL     1       2.672  -1.350  -2.304  0.00  0.00    +0.067 A 
ATOM     24  C   UNL     1       2.025  -0.898  -1.164  0.00  0.00    +0.033 A 
ATOM     25  N   UNL     1       3.960  -1.820  -2.549  0.00  0.00    -0.306 N 
ATOM     26  H   UNL     1       4.665  -1.913  -1.890  0.00  0.00    +0.170 HD
ATOM     27  C   UNL     1       4.060  -2.122  -3.857  0.00  0.00    +0.325 A 
ATOM     28  O   UNL     1       5.057  -2.559  -4.402  0.00  0.00    -0.247 OA
ATOM     29  N   UNL     1       2.889  -1.868  -4.472  0.00  0.00    -0.306 N 
ATOM     30  H   UNL     1       2.702  -2.002  -5.414  0.00  0.00    +0.170 HD
ENDBRANCH  18  19
ENDBRANCH   1  18
TORSDOF 5
