REMARK  Name = ZINC62496611
REMARK  7 active torsions:
REMARK  status: ('A' for Active; 'I' for Inactive)
REMARK    1  A    between atoms: C_1  and  C_2
REMARK    2  A    between atoms: C_6  and  C_8
REMARK    3  A    between atoms: C_8  and  C_9
REMARK    4  A    between atoms: N_13  and  C_22
REMARK    5  A    between atoms: C_17  and  N_21
REMARK    6  A    between atoms: C_22  and  C_23
REMARK    7  A    between atoms: C_22  and  C_24
REMARK                            x       y       z     vdW  Elec       q    Type
REMARK                         _______ _______ _______ _____ _____    ______ ____
ROOT
ATOM      1  C   UNL     1       1.574  -3.081   2.929  0.00  0.00    +0.263 C 
ATOM      2  C   UNL     1       1.591  -3.739   4.286  0.00  0.00    +0.261 C 
ATOM      3  O   UNL     1       1.737  -3.067   5.286  0.00  0.00    -0.271 OA
ATOM      4  N   UNL     1       1.442  -5.076   4.383  0.00  0.00    -0.263 N 
ATOM      5  C   UNL     1       1.401  -5.848   3.211  0.00  0.00    +0.079 A 
ATOM      6  C   UNL     1       1.025  -7.181   3.259  0.00  0.00    +0.029 A 
ATOM      7  C   UNL     1       0.976  -7.926   2.096  0.00  0.00    +0.025 A 
ATOM      8  C   UNL     1       1.303  -7.342   0.879  0.00  0.00    +0.028 A 
ATOM      9  C   UNL     1       1.685  -6.008   0.829  0.00  0.00    +0.070 A 
ATOM     10  C   UNL     1       1.741  -5.262   1.993  0.00  0.00    +0.145 A 
ATOM     11  O   UNL     1       2.144  -3.964   1.960  0.00  0.00    -0.477 OA
ENDROOT
BRANCH   8  12
ATOM     12  N   UNL     1       1.247  -8.098  -0.296  0.00  0.00    -0.358 N 
ATOM     13  H   UNL     1       0.980  -9.030  -0.261  0.00  0.00    +0.142 HD
ATOM     14  H   UNL     1       1.475  -7.690  -1.146  0.00  0.00    +0.142 HD
ENDBRANCH   8  12
BRANCH   4  15
ATOM     15  C   UNL     1       1.325  -5.716   5.696  0.00  0.00    +0.076 C 
ATOM     16  C   UNL     1       2.599  -5.458   6.504  0.00  0.00    +0.028 C 
ATOM     17  C   UNL     1       0.122  -5.134   6.441  0.00  0.00    +0.028 C 
ENDBRANCH   4  15
BRANCH   1  18
ATOM     18  C   UNL     1       0.130  -2.759   2.537  0.00  0.00    +0.089 C 
BRANCH  18  24
ATOM     19  C   UNL     1       0.235   1.599   0.080  0.00  0.00    +0.044 C 
ATOM     20  C   UNL     1       0.171   0.094   0.065  0.00  0.00    -0.050 A 
ATOM     21  C   UNL     1       0.103  -0.583  -1.139  0.00  0.00    +0.003 A 
ATOM     22  C   UNL     1       0.044  -1.964  -1.153  0.00  0.00    +0.001 A 
ATOM     23  C   UNL     1       0.053  -2.668   0.037  0.00  0.00    +0.004 A 
ATOM     24  C   UNL     1       0.121  -1.992   1.240  0.00  0.00    -0.043 A 
ATOM     25  C   UNL     1       0.185  -0.611   1.254  0.00  0.00    +0.007 A 
ENDBRANCH  18  24
ENDBRANCH   1  18
TORSDOF 4
