REMARK  Name = ZINC37060287
REMARK  5 active torsions:
REMARK  status: ('A' for Active; 'I' for Inactive)
REMARK    1  A    between atoms: C_3  and  O_19
REMARK    2  A    between atoms: C_6  and  C_7
REMARK    3  A    between atoms: C_7  and  N_8
REMARK    4  A    between atoms: N_8  and  C_9
REMARK    5  A    between atoms: C_11  and  N_16
REMARK                            x       y       z     vdW  Elec       q    Type
REMARK                         _______ _______ _______ _____ _____    ______ ____
ROOT
ATOM      1  N   UNL     1      -1.727  -1.016  -1.368  0.00  0.00    -0.337 N 
ATOM      2  H   UNL     1      -1.192  -0.690  -2.108  0.00  0.00    +0.146 HD
ENDROOT
BRANCH   1   3
ATOM      3  C   UNL     1      -2.911  -1.717  -1.615  0.00  0.00    +0.065 A 
ATOM      4  C   UNL     1      -3.681  -2.179  -0.556  0.00  0.00    +0.058 A 
ATOM      5  C   UNL     1      -4.850  -2.871  -0.804  0.00  0.00    +0.128 A 
ATOM      6  C   UNL     1      -5.256  -3.104  -2.105  0.00  0.00    +0.035 A 
ATOM      7  C   UNL     1      -4.494  -2.646  -3.163  0.00  0.00    +0.042 A 
ATOM      8  C   UNL     1      -3.324  -1.948  -2.923  0.00  0.00    +0.144 A 
ATOM      9  F   UNL     1      -2.582  -1.496  -3.957  0.00  0.00    -0.204 F 
BRANCH   5  10
ATOM     10  N   UNL     1      -5.670  -3.365   0.326  0.00  0.00    +0.056 N 
ATOM     11  O   UNL     1      -5.316  -3.162   1.464  0.00  0.00    -0.126 OA
ATOM     12  O   UNL     1      -6.694  -3.970   0.110  0.00  0.00    -0.126 OA
ENDBRANCH   5  10
ENDBRANCH   1   3
BRANCH   1  13
ATOM     13  C   UNL     1      -1.293  -0.774   0.011  0.00  0.00    +0.137 C 
BRANCH  13  19
ATOM     14  C   UNL     1      -0.017   1.378   0.010  0.00  0.00    +0.009 A 
ATOM     15  C   UNL     1       1.169   2.087   0.002  0.00  0.00    +0.046 A 
ATOM     16  C   UNL     1       2.380   1.409  -0.013  0.00  0.00    +0.117 A 
ATOM     17  C   UNL     1       2.396   0.022  -0.021  0.00  0.00    +0.046 A 
ATOM     18  C   UNL     1       1.207  -0.681  -0.013  0.00  0.00    +0.009 A 
ATOM     19  C   UNL     1       0.002  -0.004   0.002  0.00  0.00    -0.030 A 
BRANCH  16  20
ATOM     20  O   UNL     1       3.548   2.104  -0.021  0.00  0.00    -0.507 OA
ATOM     21  H   UNL     1       3.895   2.300   0.860  0.00  0.00    +0.292 HD
ENDBRANCH  16  20
ENDBRANCH  13  19
ENDBRANCH   1  13
TORSDOF 5
