REMARK  Name = ZINC04163320
REMARK  5 active torsions:
REMARK  status: ('A' for Active; 'I' for Inactive)
REMARK    1  A    between atoms: C_4  and  N_27
REMARK    2  A    between atoms: C_5  and  N_7
REMARK    3  A    between atoms: C_8  and  C_10
REMARK    4  A    between atoms: C_10  and  C_11
REMARK    5  A    between atoms: C_18  and  C_23
REMARK                            x       y       z     vdW  Elec       q    Type
REMARK                         _______ _______ _______ _____ _____    ______ ____
ROOT
ATOM      1  C   UNL     1       3.811   2.964   0.812  0.00  0.00    +0.146 C 
ATOM      2  C   UNL     1       3.607   1.567   0.284  0.00  0.00    +0.231 C 
ATOM      3  O   UNL     1       4.582   0.865   0.116  0.00  0.00    -0.274 OA
ATOM      4  N   UNL     1       2.410   1.068  -0.005  0.00  0.00    -0.284 N 
ATOM      5  C   UNL     1       1.197   1.751   0.017  0.00  0.00    +0.047 A 
ATOM      6  C   UNL     1       0.009   1.029   0.031  0.00  0.00    +0.036 A 
ATOM      7  C   UNL     1      -1.206   1.685   0.046  0.00  0.00    +0.057 A 
ATOM      8  C   UNL     1      -1.255   3.068   0.053  0.00  0.00    +0.013 A 
ATOM      9  C   UNL     1      -0.082   3.799   0.030  0.00  0.00    +0.017 A 
ATOM     10  C   UNL     1       1.139   3.145   0.008  0.00  0.00    +0.030 A 
ATOM     11  S   UNL     1       2.641   4.073  -0.032  0.00  0.00    -0.110 S 
ATOM     12  H   UNL     1       2.378   0.132  -0.258  0.00  0.00    +0.155 HD
ENDROOT
BRANCH   7  13
ATOM     13  C   UNL     1      -2.486   0.891   0.062  0.00  0.00    +0.417 C 
ATOM     14  F   UNL     1      -2.866   0.644   1.386  0.00  0.00    -0.166 F 
ATOM     15  F   UNL     1      -3.493   1.615  -0.585  0.00  0.00    -0.166 F 
ATOM     16  F   UNL     1      -2.288  -0.326  -0.600  0.00  0.00    -0.166 F 
ENDBRANCH   7  13
BRANCH   1  17
ATOM     17  C   UNL     1       3.549   2.989   2.319  0.00  0.00    +0.120 C 
BRANCH  17  19
ATOM     18  N   UNL     1       3.716   4.614   4.176  0.00  0.00    -0.284 N 
ATOM     19  C   UNL     1       3.872   4.357   2.862  0.00  0.00    +0.219 C 
ATOM     20  O   UNL     1       4.273   5.226   2.118  0.00  0.00    -0.275 OA
ATOM     21  H   UNL     1       3.320   3.946   4.758  0.00  0.00    +0.155 HD
BRANCH  18  26
ATOM     22  C   UNL     1       5.523   7.790   4.589  0.00  0.00    +0.002 A 
ATOM     23  C   UNL     1       4.933   8.279   5.740  0.00  0.00    +0.002 A 
ATOM     24  C   UNL     1       3.940   7.555   6.373  0.00  0.00    +0.034 A 
ATOM     25  C   UNL     1       3.530   6.342   5.854  0.00  0.00    +0.147 A 
ATOM     26  C   UNL     1       4.125   5.845   4.701  0.00  0.00    +0.064 A 
ATOM     27  C   UNL     1       5.122   6.575   4.068  0.00  0.00    +0.025 A 
BRANCH  25  28
ATOM     28  N   UNL     1       2.463   5.570   6.528  0.00  0.00    +0.058 N 
ATOM     29  O   UNL     1       1.879   6.046   7.486  0.00  0.00    -0.126 OA
ATOM     30  O   UNL     1       2.167   4.459   6.126  0.00  0.00    -0.126 OA
ENDBRANCH  25  28
ENDBRANCH  18  26
ENDBRANCH  17  19
ENDBRANCH   1  17
TORSDOF 5
