REMARK  Name = ZINC63372465
REMARK  5 active torsions:
REMARK  status: ('A' for Active; 'I' for Inactive)
REMARK    1  A    between atoms: C_1  and  O_2
REMARK    2  A    between atoms: O_2  and  C_3
REMARK    3  A    between atoms: C_10  and  C_18
REMARK    4  A    between atoms: N_24  and  C_27
REMARK    5  A    between atoms: C_27  and  C_28
REMARK                            x       y       z     vdW  Elec       q    Type
REMARK                         _______ _______ _______ _____ _____    ______ ____
ROOT
ATOM      1  C   UNL     1       0.606  -0.607  -1.056  0.00  0.00    +0.121 A 
ATOM      2  C   UNL     1       1.172   0.195  -2.062  0.00  0.00    +0.047 A 
ATOM      3  C   UNL     1       1.785  -0.326  -3.146  0.00  0.00    +0.029 A 
ATOM      4  C   UNL     1       1.877  -1.780  -3.304  0.00  0.00    +0.043 A 
ATOM      5  N   UNL     1       2.429  -2.527  -4.233  0.00  0.00    -0.376 N 
ATOM      6  C   UNL     1       2.142  -3.925  -3.931  0.00  0.00    +0.128 C 
ATOM      7  C   UNL     1       3.409  -4.777  -3.821  0.00  0.00    +0.121 C 
ATOM      8  N   UNL     1       3.044  -6.077  -3.236  0.00  0.00    -0.307 NA
ATOM      9  C   UNL     1       2.601  -5.980  -1.842  0.00  0.00    +0.086 C 
ATOM     10  C   UNL     1       1.285  -5.183  -1.760  0.00  0.00    +0.048 C 
ATOM     11  C   UNL     1       1.488  -3.914  -2.558  0.00  0.00    -0.035 C 
ATOM     12  C   UNL     1       1.288  -2.630  -2.238  0.00  0.00    +0.003 A 
ATOM     13  C   UNL     1       0.646  -1.960  -1.101  0.00  0.00    +0.055 A 
ATOM     14  H   UNL     1       2.354  -6.548  -3.802  0.00  0.00    +0.123 HD
ATOM     15  H   UNL     1       2.941  -2.204  -4.991  0.00  0.00    +0.160 HD
ENDROOT
BRANCH   7  16
ATOM     16  C   UNL     1       4.002  -4.985  -5.190  0.00  0.00    +0.100 A 
ATOM     17  C   UNL     1       3.300  -5.712  -6.168  0.00  0.00    +0.263 A 
ATOM     18  N   UNL     1       3.848  -5.886  -7.388  0.00  0.00    -0.274 N 
ATOM     19  H   UNL     1       3.366  -6.386  -8.065  0.00  0.00    +0.173 HD
ATOM     20  C   UNL     1       5.057  -5.369  -7.673  0.00  0.00    +0.332 A 
ATOM     21  O   UNL     1       5.534  -5.537  -8.779  0.00  0.00    -0.246 OA
ATOM     22  N   UNL     1       5.746  -4.670  -6.752  0.00  0.00    -0.256 N 
ATOM     23  C   UNL     1       5.224  -4.466  -5.500  0.00  0.00    +0.265 A 
ATOM     24  O   UNL     1       5.916  -3.760  -4.581  0.00  0.00    -0.267 OA
ATOM     25  O   UNL     1       2.204  -6.181  -5.915  0.00  0.00    -0.267 OA
BRANCH  22  26
ATOM     26  C   UNL     1       7.061  -4.120  -7.091  0.00  0.00    +0.165 C 
BRANCH  26  27
ATOM     27  C   UNL     1       6.895  -2.733  -7.655  0.00  0.00    -0.028 A 
ATOM     28  C   UNL     1       6.721  -2.556  -9.015  0.00  0.00    +0.005 A 
ATOM     29  C   UNL     1       6.569  -1.283  -9.533  0.00  0.00    +0.000 A 
ATOM     30  C   UNL     1       6.589  -0.187  -8.691  0.00  0.00    +0.000 A 
ATOM     31  C   UNL     1       6.762  -0.364  -7.331  0.00  0.00    +0.000 A 
ATOM     32  C   UNL     1       6.910  -1.637  -6.812  0.00  0.00    +0.005 A 
ENDBRANCH  26  27
ENDBRANCH  22  26
ENDBRANCH   7  16
BRANCH   1  34
ATOM     33  C   UNL     1      -0.017   1.425   0.010  0.00  0.00    +0.277 C 
ATOM     34  O   UNL     1       0.002  -0.004   0.002  0.00  0.00    -0.495 OA
ENDBRANCH   1  34
TORSDOF 4
