REMARK  Name = ZINC36358030
REMARK  4 active torsions:
REMARK  status: ('A' for Active; 'I' for Inactive)
REMARK    1  A    between atoms: C_5  and  N_7
REMARK    2  A    between atoms: C_13  and  O_24
REMARK    3  A    between atoms: C_15  and  C_17
REMARK    4  A    between atoms: C_21  and  O_23
REMARK                            x       y       z     vdW  Elec       q    Type
REMARK                         _______ _______ _______ _____ _____    ______ ____
ROOT
ATOM      1  N   UNL     1       1.236  -2.083  -0.021  0.00  0.00    -0.282 N 
ATOM      2  C   UNL     1       0.781  -2.899  -1.017  0.00  0.00    +0.206 A 
ATOM      3  N   UNL     1       0.968  -4.147  -0.663  0.00  0.00    -0.237 NA
ATOM      4  C   UNL     1       1.532  -4.185   0.537  0.00  0.00    +0.094 A 
ATOM      5  C   UNL     1       1.722  -2.894   0.962  0.00  0.00    +0.165 A 
ATOM      6  N   UNL     1       2.301  -2.608   2.163  0.00  0.00    -0.197 NA
ATOM      7  C   UNL     1       2.393  -3.548   3.058  0.00  0.00    +0.190 C 
ATOM      8  C   UNL     1       1.858  -4.935   2.853  0.00  0.00    +0.110 C 
ATOM      9  C   UNL     1       1.943  -5.362   1.387  0.00  0.00    +0.080 C 
ENDROOT
BRANCH   1  14
ATOM     10  C   UNL     1      -0.017   1.377   0.010  0.00  0.00    +0.002 A 
ATOM     11  C   UNL     1       1.170   2.087   0.002  0.00  0.00    +0.002 A 
ATOM     12  C   UNL     1       2.380   1.417  -0.013  0.00  0.00    +0.022 A 
ATOM     13  C   UNL     1       2.405   0.034  -0.021  0.00  0.00    +0.065 A 
ATOM     14  C   UNL     1       1.214  -0.681  -0.013  0.00  0.00    +0.068 A 
ATOM     15  C   UNL     1       0.002  -0.004   0.002  0.00  0.00    +0.028 A 
ATOM     16 CL   UNL     1       3.924  -0.807  -0.041  0.00  0.00    -0.081 Cl
ENDBRANCH   1  14
BRANCH   9  17
ATOM     17  C   UNL     1       3.362  -5.754   1.065  0.00  0.00    -0.034 A 
ATOM     18  C   UNL     1       4.388  -4.846   1.250  0.00  0.00    +0.004 A 
ATOM     19  C   UNL     1       5.691  -5.203   0.956  0.00  0.00    +0.004 A 
ATOM     20  C   UNL     1       5.970  -6.468   0.476  0.00  0.00    +0.045 A 
ATOM     21  C   UNL     1       4.942  -7.380   0.290  0.00  0.00    +0.117 A 
ATOM     22  C   UNL     1       3.636  -7.022   0.592  0.00  0.00    +0.049 A 
BRANCH  21  23
ATOM     23  O   UNL     1       5.215  -8.625  -0.182  0.00  0.00    -0.507 OA
ATOM     24  H   UNL     1       5.401  -9.276   0.509  0.00  0.00    +0.292 HD
ENDBRANCH  21  23
ENDBRANCH   9  17
BRANCH   7  25
ATOM     25  O   UNL     1       3.000  -3.261   4.229  0.00  0.00    -0.495 OA
ATOM     26  H   UNL     1       3.320  -2.351   4.293  0.00  0.00    +0.293 HD
ENDBRANCH   7  25
TORSDOF 4
