REMARK  Name = ZINC05373412
REMARK  7 active torsions:
REMARK  status: ('A' for Active; 'I' for Inactive)
REMARK    1  A    between atoms: C_1  and  C_2
REMARK    2  A    between atoms: C_2  and  C_3
REMARK    3  A    between atoms: C_3  and  C_4
REMARK    4  A    between atoms: C_4  and  C_6
REMARK    5  A    between atoms: C_4  and  N_8
REMARK    6  A    between atoms: C_12  and  C_13
REMARK    7  A    between atoms: C_18  and  C_19
REMARK                            x       y       z     vdW  Elec       q    Type
REMARK                         _______ _______ _______ _____ _____    ______ ____
ROOT
ATOM      1  N   UNL     1       2.715   3.230   0.234  0.00  0.00    -0.241 N 
ATOM      2  C   UNL     1       3.145   4.080   1.152  0.00  0.00    +0.259 C 
ATOM      3  O   UNL     1       2.431   4.453   2.064  0.00  0.00    -0.269 OA
ATOM      4  C   UNL     1       4.538   4.555   1.012  0.00  0.00    +0.077 C 
ATOM      5  C   UNL     1       5.241   5.416   1.790  0.00  0.00    +0.028 C 
ATOM      6  S   UNL     1       5.043   3.682  -0.464  0.00  0.00    -0.061 S 
ATOM      7  C   UNL     1       3.512   2.816  -0.771  0.00  0.00    +0.121 C 
ATOM      8  S   UNL     1       3.144   1.726  -2.039  0.00  0.00    -0.027 S 
ENDROOT
BRANCH   5   9
ATOM      9  C   UNL     1       6.681   5.602   1.565  0.00  0.00    -0.021 A 
ATOM     10  C   UNL     1       7.406   4.657   0.830  0.00  0.00    +0.008 A 
ATOM     11  C   UNL     1       8.757   4.840   0.623  0.00  0.00    +0.001 A 
ATOM     12  C   UNL     1       9.396   5.953   1.140  0.00  0.00    +0.000 A 
ATOM     13  C   UNL     1       8.687   6.892   1.868  0.00  0.00    +0.004 A 
ATOM     14  C   UNL     1       7.334   6.727   2.080  0.00  0.00    -0.043 A 
ATOM     15  C   UNL     1       6.562   7.754   2.868  0.00  0.00    +0.044 C 
ENDBRANCH   5   9
BRANCH   1  16
ATOM     16  C   UNL     1       1.344   2.722   0.317  0.00  0.00    +0.195 C 
BRANCH  16  17
ATOM     17  C   UNL     1       1.371   1.221   0.448  0.00  0.00    +0.376 C 
ATOM     18  O   UNL     1       2.428   0.636   0.470  0.00  0.00    -0.244 OA
ATOM     19  O   UNL     1       0.222   0.534   0.539  0.00  0.00    -0.244 OA
ENDBRANCH  16  17
BRANCH  16  20
ATOM     20  C   UNL     1       0.579   3.109  -0.951  0.00  0.00    +0.034 C 
BRANCH  20  22
ATOM     21  C   UNL     1      -0.321   5.019  -2.287  0.00  0.00    +0.004 C 
ATOM     22  C   UNL     1       0.443   4.632  -1.019  0.00  0.00    -0.001 C 
ENDBRANCH  20  22
ENDBRANCH  16  20
ENDBRANCH   1  16
TORSDOF 5
