REMARK  Name = ZINC36296523
REMARK  6 active torsions:
REMARK  status: ('A' for Active; 'I' for Inactive)
REMARK    1  A    between atoms: C_1  and  C_2
REMARK    2  A    between atoms: C_5  and  N_18
REMARK    3  A    between atoms: C_7  and  N_8
REMARK    4  A    between atoms: N_8  and  S_9
REMARK    5  A    between atoms: S_9  and  C_12
REMARK    6  A    between atoms: N_15  and  C_17
REMARK                            x       y       z     vdW  Elec       q    Type
REMARK                         _______ _______ _______ _____ _____    ______ ____
ROOT
ATOM      1  N   UNL     1       0.025  -0.013   2.415  0.00  0.00    -0.216 N 
ATOM      2  H   UNL     1      -0.523   0.782   2.510  0.00  0.00    +0.174 HD
ENDROOT
BRANCH   1   9
ATOM      3  C   UNL     1       0.151   1.693   0.145  0.00  0.00    +0.046 C 
ATOM      4  C   UNL     1       0.259   0.195   0.022  0.00  0.00    -0.028 A 
ATOM      5  C   UNL     1       0.430  -0.385  -1.220  0.00  0.00    +0.007 A 
ATOM      6  C   UNL     1       0.529  -1.758  -1.337  0.00  0.00    +0.023 A 
ATOM      7  C   UNL     1       0.458  -2.560  -0.204  0.00  0.00    +0.026 A 
ATOM      8  C   UNL     1       0.286  -1.981   1.045  0.00  0.00    +0.047 A 
ATOM      9  C   UNL     1       0.192  -0.601   1.159  0.00  0.00    +0.053 A 
BRANCH   7  10
ATOM     10  N   UNL     1       0.557  -3.948  -0.323  0.00  0.00    -0.358 N 
ATOM     11  H   UNL     1       0.677  -4.353  -1.196  0.00  0.00    +0.142 HD
ATOM     12  H   UNL     1       0.507  -4.508   0.468  0.00  0.00    +0.142 HD
ENDBRANCH   7  10
ENDBRANCH   1   9
BRANCH   1  13
ATOM     13  S   UNL     1       0.764  -0.672   3.743  0.00  0.00    +0.075 S 
ATOM     14  O   UNL     1       0.520   0.215   4.826  0.00  0.00    -0.150 OA
ATOM     15  O   UNL     1       0.387  -2.041   3.779  0.00  0.00    -0.150 OA
BRANCH  13  16
ATOM     16  C   UNL     1       2.500  -0.636   3.444  0.00  0.00    +0.146 A 
ATOM     17  C   UNL     1       3.250  -1.641   2.824  0.00  0.00    +0.163 A 
ATOM     18  N   UNL     1       4.499  -1.253   2.783  0.00  0.00    -0.178 NA
ATOM     19  N   UNL     1       4.583   0.013   3.377  0.00  0.00    -0.273 N 
ATOM     20  C   UNL     1       3.343   0.372   3.769  0.00  0.00    +0.136 A 
ATOM     21  C   UNL     1       5.802   0.810   3.538  0.00  0.00    +0.172 C 
ENDBRANCH  13  16
ENDBRANCH   1  13
TORSDOF 4
