REMARK  Name = ZINC54731486
REMARK  7 active torsions:
REMARK  status: ('A' for Active; 'I' for Inactive)
REMARK    1  A    between atoms: C_1  and  C_2
REMARK    2  A    between atoms: C_5  and  C_7
REMARK    3  A    between atoms: C_8  and  C_9
REMARK    4  A    between atoms: N_11  and  C_12
REMARK    5  A    between atoms: C_15  and  S_18
REMARK    6  A    between atoms: S_18  and  C_19
REMARK    7  A    between atoms: N_23  and  C_24
REMARK                            x       y       z     vdW  Elec       q    Type
REMARK                         _______ _______ _______ _____ _____    ______ ____
ROOT
ATOM      1  C   UNL     1       6.018  -4.999  -0.146  0.00  0.00    +0.034 A 
ATOM      2  C   UNL     1       5.459  -6.266  -0.252  0.00  0.00    +0.024 A 
ATOM      3  C   UNL     1       6.275  -7.375  -0.352  0.00  0.00    +0.017 A 
ATOM      4  C   UNL     1       7.656  -7.223  -0.346  0.00  0.00    +0.016 A 
ATOM      5  C   UNL     1       8.215  -5.955  -0.240  0.00  0.00    +0.017 A 
ATOM      6  C   UNL     1       7.399  -4.847  -0.146  0.00  0.00    +0.024 A 
ENDROOT
BRANCH   1   9
ATOM      7  C   UNL     1       5.555  -2.714  -0.626  0.00  0.00    +0.241 C 
ATOM      8  O   UNL     1       6.643  -2.619  -1.166  0.00  0.00    -0.270 OA
ATOM      9  N   UNL     1       5.190  -3.874  -0.045  0.00  0.00    -0.282 N 
ATOM     10  H   UNL     1       4.353  -3.930   0.442  0.00  0.00    +0.155 HD
BRANCH   7  12
ATOM     11  C   UNL     1       5.043  -0.439  -1.192  0.00  0.00    +0.051 C 
ATOM     12  C   UNL     1       4.675  -1.606  -0.608  0.00  0.00    +0.071 C 
BRANCH  11  17
ATOM     13  C   UNL     1       1.033   2.346  -0.309  0.00  0.00    +0.086 C 
ATOM     14  C   UNL     1       2.395   1.915  -0.791  0.00  0.00    +0.103 A 
ATOM     15  C   UNL     1       3.267   2.691  -1.472  0.00  0.00    +0.045 A 
ATOM     16  C   UNL     1       4.406   1.911  -1.726  0.00  0.00    +0.049 A 
ATOM     17  C   UNL     1       4.162   0.670  -1.174  0.00  0.00    +0.128 A 
ATOM     18  O   UNL     1       2.937   0.704  -0.609  0.00  0.00    -0.461 OA
ENDBRANCH  11  17
ENDBRANCH   7  12
ENDBRANCH   1   9
BRANCH   4  19
ATOM     19  S   UNL     1       8.698  -8.638  -0.472  0.00  0.00    -0.050 S 
BRANCH  19  20
ATOM     20  C   UNL     1       9.062  -8.748  -2.193  0.00  0.00    +0.196 A 
ATOM     21  N   UNL     1       8.566  -7.992  -3.145  0.00  0.00    -0.122 NA
ATOM     22  N   UNL     1       9.049  -8.349  -4.282  0.00  0.00    -0.137 NA
ATOM     23  C   UNL     1       9.874  -9.345  -4.124  0.00  0.00    +0.225 A 
ATOM     24  N   UNL     1       9.916  -9.631  -2.788  0.00  0.00    -0.311 N 
ATOM     25  C   UNL     1      10.712 -10.671  -2.131  0.00  0.00    +0.152 C 
ENDBRANCH  19  20
ENDBRANCH   4  19
TORSDOF 5
