REMARK  Name = ZINC51144953
REMARK  4 active torsions:
REMARK  status: ('A' for Active; 'I' for Inactive)
REMARK    1  A    between atoms: N_11  and  C_12
REMARK    2  A    between atoms: C_12  and  C_13
REMARK    3  A    between atoms: C_14  and  N_18
REMARK    4  A    between atoms: N_18  and  N_19
REMARK                            x       y       z     vdW  Elec       q    Type
REMARK                         _______ _______ _______ _____ _____    ______ ____
ROOT
ATOM      1  C   UNL     1       4.356   1.954   0.186  0.00  0.00    +0.144 C 
ENDROOT
BRANCH   1  10
ATOM      2  C   UNL     1      -0.019   1.539   0.011  0.00  0.00    +0.004 C 
ATOM      3  C   UNL     1       1.453   1.998  -0.001  0.00  0.00    +0.021 C 
ATOM      4  C   UNL     1       2.299   0.716  -0.017  0.00  0.00    +0.086 C 
ATOM      5  C   UNL     1       1.391  -0.366   0.600  0.00  0.00    +0.135 C 
ATOM      6  C   UNL     1       0.002  -0.004   0.002  0.00  0.00    +0.033 C 
ATOM      7  O   UNL     1       1.304  -0.193   2.017  0.00  0.00    -0.374 OA
ATOM      8  C   UNL     1       2.556  -0.123   2.697  0.00  0.00    +0.175 C 
ATOM      9  C   UNL     1       3.341   1.074   2.149  0.00  0.00    +0.113 C 
ATOM     10  N   UNL     1       3.532   0.870   0.738  0.00  0.00    -0.289 NA
ENDBRANCH   1  10
BRANCH   1  11
ATOM     11  C   UNL     1       5.719   1.926   0.827  0.00  0.00    +0.108 A 
ATOM     12  C   UNL     1       5.992   2.621   1.971  0.00  0.00    +0.124 A 
ATOM     13  S   UNL     1       7.609   2.243   2.231  0.00  0.00    +0.053 S 
ATOM     14  N   UNL     1       7.858   1.245   0.908  0.00  0.00    -0.108 NA
ATOM     15  N   UNL     1       6.710   1.228   0.320  0.00  0.00    -0.143 NA
BRANCH  12  16
ATOM     16  N   UNL     1       5.149   3.432   2.726  0.00  0.00    -0.274 N 
ATOM     17  H   UNL     1       4.227   3.562   2.453  0.00  0.00    +0.167 HD
BRANCH  16  18
ATOM     18  N   UNL     1       5.620   4.046   3.852  0.00  0.00    -0.256 NA
ATOM     19  H   UNL     1       6.430   4.610   3.644  0.00  0.00    +0.140 HD
ATOM     20  H   UNL     1       4.899   4.598   4.292  0.00  0.00    +0.140 HD
ENDBRANCH  16  18
ENDBRANCH  12  16
ENDBRANCH   1  11
TORSDOF 4
