REMARK  Name = ZINC40780819
REMARK  4 active torsions:
REMARK  status: ('A' for Active; 'I' for Inactive)
REMARK    1  A    between atoms: C_4  and  S_7
REMARK    2  A    between atoms: S_7  and  C_8
REMARK    3  A    between atoms: C_9  and  N_20
REMARK    4  A    between atoms: C_10  and  N_14
REMARK                            x       y       z     vdW  Elec       q    Type
REMARK                         _______ _______ _______ _____ _____    ______ ____
ROOT
ATOM      1  C   UNL     1       3.483  -2.523   0.104  0.00  0.00    +0.127 A 
ATOM      2  C   UNL     1       4.461  -3.511   0.234  0.00  0.00    +0.098 A 
ATOM      3  C   UNL     1       4.045  -4.839   0.344  0.00  0.00    +0.150 A 
ATOM      4  N   UNL     1       2.742  -5.111   0.322  0.00  0.00    -0.219 NA
ATOM      5  C   UNL     1       1.852  -4.148   0.198  0.00  0.00    +0.224 A 
ATOM      6  N   UNL     1       2.201  -2.881   0.096  0.00  0.00    -0.227 NA
ENDROOT
BRANCH   3   7
ATOM      7  N   UNL     1       4.978  -5.863   0.476  0.00  0.00    -0.277 N 
ATOM      8  C   UNL     1       4.553  -7.179   0.585  0.00  0.00    +0.163 A 
ATOM      9  N   UNL     1       3.321  -7.644   0.579  0.00  0.00    -0.233 NA
ATOM     10  C   UNL     1       3.080  -8.937   0.693  0.00  0.00    +0.120 A 
ATOM     11  C   UNL     1       4.153  -9.755   0.817  0.00  0.00    +0.068 A 
ATOM     12  S   UNL     1       5.486  -8.569   0.751  0.00  0.00    -0.061 S 
ATOM     13  H   UNL     1       5.926  -5.657   0.491  0.00  0.00    +0.156 HD
ENDBRANCH   3   7
BRANCH   2  14
ATOM     14  N   UNL     1       5.825  -3.179   0.252  0.00  0.00    -0.353 N 
ATOM     15  H   UNL     1       6.099  -2.252   0.173  0.00  0.00    +0.142 HD
ATOM     16  H   UNL     1       6.493  -3.877   0.343  0.00  0.00    +0.142 HD
ENDBRANCH   2  14
BRANCH   1  17
ATOM     17  S   UNL     1       3.939  -0.827  -0.041  0.00  0.00    -0.068 S 
BRANCH  17  21
ATOM     18  C   UNL     1      -0.017   1.379  -0.004  0.00  0.00    +0.000 A 
ATOM     19  C   UNL     1       0.594   1.037   1.189  0.00  0.00    +0.001 A 
ATOM     20  C   UNL     1       1.800   0.365   1.182  0.00  0.00    +0.015 A 
ATOM     21  C   UNL     1       2.400   0.031  -0.026  0.00  0.00    +0.014 A 
ATOM     22  C   UNL     1       1.783   0.375  -1.223  0.00  0.00    +0.015 A 
ATOM     23  C   UNL     1       0.577   1.048  -1.208  0.00  0.00    +0.001 A 
ENDBRANCH  17  21
ENDBRANCH   1  17
TORSDOF 4
