REMARK  Name = ZINC63472947
REMARK  3 active torsions:
REMARK  status: ('A' for Active; 'I' for Inactive)
REMARK    1  A    between atoms: C_7  and  C_10
REMARK    2  A    between atoms: C_10  and  C_11
REMARK    3  A    between atoms: N_19  and  C_22
REMARK                            x       y       z     vdW  Elec       q    Type
REMARK                         _______ _______ _______ _____ _____    ______ ____
ROOT
ATOM      1  C   UNL     1       0.457  -3.653  -1.462  0.00  0.00    +0.072 C 
ATOM      2  C   UNL     1      -0.476  -4.883  -1.481  0.00  0.00    +0.107 C 
ATOM      3  C   UNL     1       0.480  -6.108  -1.528  0.00  0.00    +0.122 C 
ATOM      4  C   UNL     1       0.183  -6.728  -2.875  0.00  0.00    +0.228 C 
ATOM      5  O   UNL     1       0.712  -7.725  -3.319  0.00  0.00    -0.275 OA
ATOM      6  N   UNL     1      -0.753  -6.006  -3.501  0.00  0.00    -0.238 N 
ATOM      7  C   UNL     1      -1.204  -4.937  -2.805  0.00  0.00    +0.227 C 
ATOM      8  O   UNL     1      -2.048  -4.149  -3.172  0.00  0.00    -0.275 OA
ATOM      9  C   UNL     1       1.887  -5.499  -1.524  0.00  0.00    +0.136 C 
ATOM     10  N   UNL     1       1.730  -4.127  -2.066  0.00  0.00    -0.295 NA
ATOM     11  C   UNL     1       2.841  -6.303  -2.361  0.00  0.00    +0.005 A 
ATOM     12  C   UNL     1       2.864  -6.663  -3.690  0.00  0.00    +0.027 A 
ATOM     13  C   UNL     1       3.906  -7.431  -4.182  0.00  0.00    +0.041 A 
ATOM     14  C   UNL     1       4.923  -7.835  -3.334  0.00  0.00    +0.022 A 
ATOM     15  C   UNL     1       4.903  -7.476  -2.003  0.00  0.00    +0.025 A 
ATOM     16  C   UNL     1       3.858  -6.703  -1.500  0.00  0.00    +0.039 A 
ATOM     17  N   UNL     1       3.619  -6.220  -0.211  0.00  0.00    -0.283 N 
ATOM     18  C   UNL     1       2.481  -5.502  -0.142  0.00  0.00    +0.243 C 
ATOM     19  O   UNL     1       2.024  -4.963   0.844  0.00  0.00    -0.273 OA
ATOM     20 CL   UNL     1       3.937  -7.886  -5.857  0.00  0.00    -0.084 Cl
ATOM     21  H   UNL     1       1.674  -4.129  -3.073  0.00  0.00    +0.124 HD
ATOM     22  H   UNL     1       4.204  -6.382   0.545  0.00  0.00    +0.155 HD
ENDROOT
BRANCH   6  23
ATOM     23  C   UNL     1      -1.258  -6.347  -4.834  0.00  0.00    +0.084 C 
ATOM     24  C   UNL     1      -0.983  -5.189  -5.795  0.00  0.00    +0.023 C 
ATOM     25  C   UNL     1      -1.510  -5.545  -7.186  0.00  0.00    +0.002 C 
ATOM     26  C   UNL     1      -3.017  -5.799  -7.111  0.00  0.00    +0.000 C 
ATOM     27  C   UNL     1      -3.292  -6.957  -6.150  0.00  0.00    +0.002 C 
ATOM     28  C   UNL     1      -2.765  -6.601  -4.759  0.00  0.00    +0.023 C 
ENDBRANCH   6  23
BRANCH   1  29
ATOM     29  C   UNL     1       0.691  -3.186  -0.024  0.00  0.00    +0.052 C 
BRANCH  29  36
ATOM     30  C   UNL     1      -3.381  -3.349   2.085  0.00  0.00    +0.001 A 
ATOM     31  C   UNL     1      -4.001  -2.097   2.209  0.00  0.00    +0.002 A 
ATOM     32  C   UNL     1      -3.442  -0.958   1.748  0.00  0.00    +0.026 A 
ATOM     33  C   UNL     1      -2.174  -0.989   1.104  0.00  0.00    +0.043 A 
ATOM     34  N   UNL     1      -1.438  -0.039   0.581  0.00  0.00    -0.380 N 
ATOM     35  C   UNL     1      -0.211  -0.640   0.045  0.00  0.00    +0.144 C 
ATOM     36  C   UNL     1      -0.317  -2.122   0.328  0.00  0.00    -0.040 C 
ATOM     37  C   UNL     1      -1.499  -2.299   0.961  0.00  0.00    -0.001 A 
ATOM     38  C   UNL     1      -2.175  -3.489   1.490  0.00  0.00    +0.010 A 
ATOM     39  H   UNL     1      -1.666   0.903   0.552  0.00  0.00    +0.160 HD
ENDBRANCH  29  36
ENDBRANCH   1  29
TORSDOF 3
