REMARK  Name = ZINC12661503
REMARK  7 active torsions:
REMARK  status: ('A' for Active; 'I' for Inactive)
REMARK    1  A    between atoms: C_1  and  C_2
REMARK    2  A    between atoms: C_6  and  C_30
REMARK    3  A    between atoms: C_6  and  O_31
REMARK    4  A    between atoms: C_7  and  O_29
REMARK    5  A    between atoms: C_17  and  C_19
REMARK    6  A    between atoms: C_19  and  N_67
REMARK    7  A    between atoms: O_31  and  C_32
REMARK                            x       y       z     vdW  Elec       q    Type
REMARK                         _______ _______ _______ _____ _____    ______ ____
ROOT
ATOM      1  C   UNL     1       0.445   3.446  -2.897  0.00  0.00    +0.014 C 
ATOM      2  C   UNL     1       0.588   1.936  -3.081  0.00  0.00    +0.003 C 
ATOM      3  C   UNL     1       0.887   1.633  -4.554  0.00  0.00    +0.010 C 
ATOM      4  C   UNL     1      -0.326   1.980  -5.413  0.00  0.00    +0.003 C 
ATOM      5  C   UNL     1      -1.522   1.129  -4.997  0.00  0.00    +0.037 C 
ATOM      6  C   UNL     1      -1.860   1.320  -3.519  0.00  0.00    +0.095 C 
ATOM      7  C   UNL     1      -0.637   1.147  -2.638  0.00  0.00    +0.100 C 
ATOM      8  C   UNL     1      -0.952   1.474  -1.175  0.00  0.00    +0.046 C 
ATOM      9  C   UNL     1       0.189   0.969  -0.290  0.00  0.00    +0.044 C 
ATOM     10  C   UNL     1       1.539   1.547  -0.760  0.00  0.00    +0.181 C 
ATOM     11  C   UNL     1       1.780   1.448  -2.243  0.00  0.00    +0.054 C 
ATOM     12  O   UNL     1       1.571   2.902  -0.242  0.00  0.00    -0.461 OA
ATOM     13  C   UNL     1       0.783   3.003   0.846  0.00  0.00    +0.309 C 
ATOM     14  O   UNL     1       0.641   3.997   1.522  0.00  0.00    -0.251 OA
ATOM     15  C   UNL     1       0.090   1.675   1.091  0.00  0.00    +0.088 C 
ATOM     16  C   UNL     1      -2.568   2.655  -3.309  0.00  0.00    +0.044 C 
ENDROOT
BRANCH   7  17
ATOM     17  O   UNL     1      -0.282  -0.260  -2.677  0.00  0.00    -0.385 OA
ATOM     18  H   UNL     1      -0.998  -0.853  -2.412  0.00  0.00    +0.210 HD
ENDBRANCH   7  17
BRANCH   6  19
ATOM     19  O   UNL     1      -2.802   0.279  -3.167  0.00  0.00    -0.374 OA
ATOM     20  C   UNL     1      -4.015   0.314  -3.921  0.00  0.00    +0.194 C 
ENDBRANCH   6  19
BRANCH  15  21
ATOM     21  C   UNL     1      -1.353   1.879   1.540  0.00  0.00    -0.064 C 
BRANCH  21  31
ATOM     22  C   UNL     1      -1.218  -0.320   2.544  0.00  0.00    -0.074 C 
ATOM     23  C   UNL     1      -1.851  -1.714   2.552  0.00  0.00    +0.046 C 
ATOM     24  C   UNL     1      -3.289  -1.611   3.067  0.00  0.00    +0.167 C 
ATOM     25  C   UNL     1      -4.079  -0.635   2.192  0.00  0.00    +0.046 C 
ATOM     26  C   UNL     1      -3.377   0.725   2.195  0.00  0.00    -0.074 C 
ATOM     27  O   UNL     1      -3.908  -2.906   3.020  0.00  0.00    -0.346 OA
ATOM     28  C   UNL     1      -3.740  -3.445   4.354  0.00  0.00    +0.191 C 
ATOM     29  C   UNL     1      -3.895  -2.176   5.228  0.00  0.00    +0.191 C 
ATOM     30  O   UNL     1      -3.283  -1.148   4.423  0.00  0.00    -0.346 OA
ATOM     31  N   UNL     1      -2.010   0.561   1.659  0.00  0.00    +0.380 N 
ATOM     32  H   UNL     1      -2.067   0.132   0.727  0.00  0.00    -0.082 HD
ENDBRANCH  21  31
ENDBRANCH  15  21
TORSDOF 4
