REMARK  Name = ZINC45947546
REMARK  4 active torsions:
REMARK  status: ('A' for Active; 'I' for Inactive)
REMARK    1  A    between atoms: C_1  and  C_2
REMARK    2  A    between atoms: C_4  and  N_18
REMARK    3  A    between atoms: C_21  and  C_24
REMARK    4  A    between atoms: C_24  and  N_25
REMARK                            x       y       z     vdW  Elec       q    Type
REMARK                         _______ _______ _______ _____ _____    ______ ____
ROOT
ATOM      1  C   UNL     1       0.420   1.475   0.029  0.00  0.00    +0.066 C 
ATOM      2  C   UNL     1       0.210  -0.017   0.011  0.00  0.00    +0.045 A 
ATOM      3  C   UNL     1       0.223  -0.709  -1.184  0.00  0.00    +0.066 A 
ATOM      4  C   UNL     1       0.026  -2.091  -1.156  0.00  0.00    +0.127 A 
ATOM      5  N   UNL     1      -0.167  -2.692   0.014  0.00  0.00    -0.199 NA
ATOM      6  C   UNL     1      -0.172  -1.991   1.139  0.00  0.00    +0.220 A 
ATOM      7  N   UNL     1       0.018  -0.680   1.142  0.00  0.00    -0.219 NA
ATOM      8  N   UNL     1      -0.375  -2.647   2.341  0.00  0.00    -0.295 N 
ATOM      9  C   UNL     1      -0.395  -1.914   3.618  0.00  0.00    +0.113 C 
ATOM     10  C   UNL     1      -1.797  -2.046   4.212  0.00  0.00    +0.054 C 
ATOM     11  C   UNL     1      -2.263  -3.478   4.172  0.00  0.00    -0.041 A 
ATOM     12  C   UNL     1      -3.293  -3.844   5.031  0.00  0.00    +0.004 A 
ATOM     13  C   UNL     1      -3.774  -5.136   5.038  0.00  0.00    +0.000 A 
ATOM     14  C   UNL     1      -3.230  -6.077   4.184  0.00  0.00    +0.000 A 
ATOM     15  C   UNL     1      -2.206  -5.718   3.333  0.00  0.00    +0.005 A 
ATOM     16  C   UNL     1      -1.716  -4.418   3.329  0.00  0.00    -0.027 A 
ATOM     17  C   UNL     1      -0.584  -4.098   2.393  0.00  0.00    +0.143 C 
ENDROOT
BRANCH   4  18
ATOM     18  N   UNL     1       0.030  -2.826  -2.330  0.00  0.00    -0.315 N 
ATOM     19  C   UNL     1       0.044  -4.295  -2.294  0.00  0.00    +0.107 C 
ATOM     20  C   UNL     1      -1.120  -4.820  -3.139  0.00  0.00    +0.020 C 
ATOM     21  C   UNL     1      -1.033  -4.225  -4.547  0.00  0.00    -0.026 C 
ATOM     22  C   UNL     1      -1.145  -2.701  -4.466  0.00  0.00    +0.020 C 
ATOM     23  C   UNL     1       0.013  -2.152  -3.635  0.00  0.00    +0.107 C 
BRANCH  21  24
ATOM     24  C   UNL     1      -2.175  -4.775  -5.404  0.00  0.00    -0.083 C 
BRANCH  24  25
ATOM     25  N   UNL     1      -2.024  -4.298  -6.785  0.00  0.00    +0.378 N 
ATOM     26  H   UNL     1      -2.049  -3.290  -6.798  0.00  0.00    -0.090 HD
ATOM     27  H   UNL     1      -1.141  -4.617  -7.156  0.00  0.00    -0.090 HD
ATOM     28  H   UNL     1      -2.777  -4.661  -7.351  0.00  0.00    -0.090 HD
ENDBRANCH  24  25
ENDBRANCH  21  24
ENDBRANCH   4  18
TORSDOF 3
