REMARK  Name = ZINC43042323
REMARK  8 active torsions:
REMARK  status: ('A' for Active; 'I' for Inactive)
REMARK    1  A    between atoms: C_1  and  C_2
REMARK    2  A    between atoms: C_7  and  N_12
REMARK    3  A    between atoms: C_9  and  C_11
REMARK    4  A    between atoms: N_15  and  N_16
REMARK    5  A    between atoms: C_17  and  C_19
REMARK    6  A    between atoms: C_19  and  C_21
REMARK    7  A    between atoms: C_19  and  O_22
REMARK    8  A    between atoms: O_22  and  C_23
REMARK                            x       y       z     vdW  Elec       q    Type
REMARK                         _______ _______ _______ _____ _____    ______ ____
ROOT
ATOM      1  N   UNL     1       1.186  -2.736   2.539  0.00  0.00    -0.295 N 
ATOM      2  C   UNL     1       1.618  -4.010   2.621  0.00  0.00    +0.316 C 
ATOM      3  O   UNL     1       1.394  -4.787   1.713  0.00  0.00    -0.251 OA
ATOM      4  N   UNL     1       2.297  -4.423   3.709  0.00  0.00    -0.218 N 
ATOM      5  H   UNL     1       1.364  -2.116   3.264  0.00  0.00    +0.151 HD
ATOM      6  H   UNL     1       2.608  -5.340   3.768  0.00  0.00    +0.174 HD
ENDROOT
BRANCH   1  12
ATOM      7  C   UNL     1       0.005   1.207  -0.200  0.00  0.00    +0.008 C 
ATOM      8  C   UNL     1      -0.159  -0.306  -0.039  0.00  0.00    -0.009 C 
ATOM      9  C   UNL     1      -1.643  -0.643   0.127  0.00  0.00    +0.003 C 
ATOM     10  C   UNL     1      -1.807  -2.156   0.287  0.00  0.00    +0.002 C 
ATOM     11  C   UNL     1      -1.035  -2.624   1.523  0.00  0.00    +0.022 C 
ATOM     12  C   UNL     1       0.448  -2.287   1.356  0.00  0.00    +0.078 C 
ATOM     13  C   UNL     1       0.612  -0.774   1.196  0.00  0.00    +0.009 C 
ATOM     14  C   UNL     1       0.064  -0.068   2.438  0.00  0.00    +0.009 C 
ENDBRANCH   1  12
BRANCH   4  15
ATOM     15  N   UNL     1       2.555  -3.527   4.756  0.00  0.00    -0.230 N 
ATOM     16  C   UNL     1       3.234  -3.940   5.844  0.00  0.00    +0.270 C 
ATOM     17  O   UNL     1       3.623  -5.087   5.918  0.00  0.00    -0.270 OA
ATOM     18  H   UNL     1       2.244  -2.611   4.697  0.00  0.00    +0.173 HD
BRANCH  16  19
ATOM     19  C   UNL     1       3.511  -2.977   6.970  0.00  0.00    +0.257 C 
ATOM     20  C   UNL     1       2.190  -2.555   7.616  0.00  0.00    +0.062 C 
BRANCH  19  21
ATOM     21  O   UNL     1       4.338  -3.612   7.947  0.00  0.00    -0.477 OA
BRANCH  21  22
ATOM     22  C   UNL     1       5.100  -2.803   8.730  0.00  0.00    +0.157 A 
ATOM     23  C   UNL     1       4.970  -1.425   8.639  0.00  0.00    +0.048 A 
ATOM     24  C   UNL     1       5.745  -0.605   9.437  0.00  0.00    +0.004 A 
ATOM     25  C   UNL     1       6.651  -1.155  10.324  0.00  0.00    +0.003 A 
ATOM     26  C   UNL     1       6.784  -2.528  10.417  0.00  0.00    +0.042 A 
ATOM     27  C   UNL     1       6.006  -3.354   9.627  0.00  0.00    +0.165 A 
ATOM     28  F   UNL     1       6.132  -4.696   9.722  0.00  0.00    -0.202 F 
ENDBRANCH  21  22
ENDBRANCH  19  21
ENDBRANCH  16  19
ENDBRANCH   4  15
TORSDOF 5
