REMARK  Name = ZINC46916696
REMARK  5 active torsions:
REMARK  status: ('A' for Active; 'I' for Inactive)
REMARK    1  A    between atoms: C_3  and  N_19
REMARK    2  A    between atoms: C_6  and  C_7
REMARK    3  A    between atoms: N_9  and  N_10
REMARK    4  A    between atoms: N_13  and  C_14
REMARK    5  A    between atoms: C_14  and  C_15
REMARK                            x       y       z     vdW  Elec       q    Type
REMARK                         _______ _______ _______ _____ _____    ______ ____
ROOT
ATOM      1  C   UNL     1      -1.266  -0.764   0.011  0.00  0.00    +0.260 C 
ATOM      2  O   UNL     1      -2.329  -0.173   0.024  0.00  0.00    -0.269 OA
ATOM      3  N   UNL     1      -1.244  -2.111   0.003  0.00  0.00    -0.229 N 
ATOM      4  H   UNL     1      -0.397  -2.583  -0.008  0.00  0.00    +0.173 HD
ENDROOT
BRANCH   1  10
ATOM      5  C   UNL     1      -0.017   1.391   0.010  0.00  0.00    +0.015 A 
ATOM      6  C   UNL     1       1.170   2.095   0.002  0.00  0.00    +0.033 A 
ATOM      7  C   UNL     1       2.378   1.419  -0.013  0.00  0.00    +0.126 A 
ATOM      8  C   UNL     1       2.403   0.036  -0.021  0.00  0.00    +0.033 A 
ATOM      9  C   UNL     1       1.224  -0.679  -0.014  0.00  0.00    +0.015 A 
ATOM     10  C   UNL     1       0.002  -0.004   0.002  0.00  0.00    +0.038 A 
BRANCH   7  11
ATOM     11  N   UNL     1       3.647   2.180  -0.022  0.00  0.00    +0.056 N 
ATOM     12  O   UNL     1       3.628   3.389  -0.015  0.00  0.00    -0.126 OA
ATOM     13  O   UNL     1       4.704   1.592  -0.035  0.00  0.00    -0.126 OA
ENDBRANCH   7  11
ENDBRANCH   1  10
BRANCH   3  14
ATOM     14  N   UNL     1      -2.446  -2.831   0.011  0.00  0.00    -0.218 N 
ATOM     15  C   UNL     1      -2.425  -4.179   0.004  0.00  0.00    +0.316 C 
ATOM     16  O   UNL     1      -3.468  -4.804   0.011  0.00  0.00    -0.251 OA
ATOM     17  N   UNL     1      -1.247  -4.834  -0.011  0.00  0.00    -0.290 N 
ATOM     18  H   UNL     1      -3.294  -2.360   0.022  0.00  0.00    +0.174 HD
ATOM     19  H   UNL     1      -0.415  -4.335  -0.017  0.00  0.00    +0.151 HD
BRANCH  17  20
ATOM     20  C   UNL     1      -1.223  -6.299  -0.020  0.00  0.00    +0.219 C 
BRANCH  20  21
ATOM     21  C   UNL     1       0.227  -6.785  -0.037  0.00  0.00    +0.405 C 
ATOM     22  F   UNL     1       0.890  -6.315   1.102  0.00  0.00    -0.169 F 
ATOM     23  F   UNL     1       0.250  -8.184  -0.044  0.00  0.00    -0.169 F 
ATOM     24  F   UNL     1       0.868  -6.302  -1.183  0.00  0.00    -0.169 F 
ENDBRANCH  20  21
ENDBRANCH  17  20
ENDBRANCH   3  14
TORSDOF 5
