REMARK  Name = ZINC12997076
REMARK  13 active torsions:
REMARK  status: ('A' for Active; 'I' for Inactive)
REMARK    1  A    between atoms: C_1  and  C_2
REMARK    2  A    between atoms: C_2  and  C_3
REMARK    3  A    between atoms: C_3  and  C_4
REMARK    4  A    between atoms: C_3  and  C_5
REMARK    5  A    between atoms: C_3  and  C_6
REMARK    6  A    between atoms: C_9  and  N_12
REMARK    7  A    between atoms: C_13  and  C_15
REMARK    8  A    between atoms: C_15  and  S_16
REMARK    9  A    between atoms: S_16  and  C_17
REMARK   10  A    between atoms: C_22  and  C_26
REMARK   11  A    between atoms: C_23  and  C_25
REMARK   12  A    between atoms: C_26  and  C_27
REMARK   13  A    between atoms: C_27  and  C_28
REMARK                            x       y       z     vdW  Elec       q    Type
REMARK                         _______ _______ _______ _____ _____    ______ ____
ROOT
ATOM      1  C   UNL     1      -3.091  -8.292   1.730  0.00  0.00    +0.173 C 
ENDROOT
BRANCH   1   3
ATOM      2  N   UNL     1      -2.067  -6.095   1.238  0.00  0.00    -0.312 N 
ATOM      3  C   UNL     1      -3.111  -6.785   1.738  0.00  0.00    +0.224 C 
ATOM      4  O   UNL     1      -4.067  -6.194   2.194  0.00  0.00    -0.275 OA
ATOM      5  H   UNL     1      -1.303  -6.567   0.874  0.00  0.00    +0.149 HD
BRANCH   2   9
ATOM      6  C   UNL     1      -1.413  -2.063   0.004  0.00  0.00    -0.005 C 
ATOM      7  C   UNL     1      -0.673  -2.570   1.244  0.00  0.00    +0.006 C 
ATOM      8  C   UNL     1      -0.652  -4.100   1.236  0.00  0.00    +0.022 C 
ATOM      9  C   UNL     1      -2.087  -4.630   1.246  0.00  0.00    +0.073 C 
ATOM     10  C   UNL     1      -2.827  -4.123   0.007  0.00  0.00    +0.022 C 
ATOM     11  C   UNL     1      -2.848  -2.593   0.015  0.00  0.00    +0.006 C 
BRANCH   6  12
ATOM     12  C   UNL     1      -1.433  -0.534   0.013  0.00  0.00    -0.032 C 
ATOM     13  C   UNL     1      -2.149  -0.040   1.272  0.00  0.00    +0.011 C 
ATOM     14  C   UNL     1      -2.173  -0.027  -1.227  0.00  0.00    +0.011 C 
BRANCH  12  16
ATOM     15  C   UNL     1      -0.019   1.526   0.010  0.00  0.00    +0.004 C 
ATOM     16  C   UNL     1       0.002  -0.004   0.002  0.00  0.00    +0.003 C 
ENDBRANCH  12  16
ENDBRANCH   6  12
ENDBRANCH   2   9
ENDBRANCH   1   3
BRANCH   1  17
ATOM     17  S   UNL     1      -4.625  -8.922   2.464  0.00  0.00    -0.078 S 
BRANCH  17  18
ATOM     18  C   UNL     1      -4.450 -10.673   2.382  0.00  0.00    +0.170 A 
ATOM     19  N   UNL     1      -5.449 -11.469   2.854  0.00  0.00    -0.302 N 
ATOM     20  H   UNL     1      -6.250 -11.072   3.232  0.00  0.00    +0.171 HD
ATOM     21  C   UNL     1      -5.322 -12.812   2.794  0.00  0.00    +0.256 A 
ATOM     22  O   UNL     1      -6.207 -13.540   3.212  0.00  0.00    -0.267 OA
ATOM     23  C   UNL     1      -4.149 -13.355   2.240  0.00  0.00    +0.038 A 
ATOM     24  C   UNL     1      -3.181 -12.508   1.782  0.00  0.00    +0.049 A 
ATOM     25  N   UNL     1      -3.355 -11.191   1.859  0.00  0.00    -0.228 NA
ATOM     26  C   UNL     1      -1.915 -13.066   1.185  0.00  0.00    +0.066 C 
BRANCH  23  27
ATOM     27  C   UNL     1      -3.964 -14.848   2.153  0.00  0.00    +0.053 C 
BRANCH  27  28
ATOM     28  C   UNL     1      -3.400 -15.370   3.476  0.00  0.00    +0.130 C 
BRANCH  28  29
ATOM     29  C   UNL     1      -3.215 -16.863   3.389  0.00  0.00    +0.356 C 
ATOM     30  O   UNL     1      -3.507 -17.455   2.364  0.00  0.00    -0.246 OA
ATOM     31  O   UNL     1      -2.773 -17.479   4.344  0.00  0.00    -0.246 OA
ENDBRANCH  28  29
ENDBRANCH  27  28
ENDBRANCH  23  27
ENDBRANCH  17  18
ENDBRANCH   1  17
TORSDOF 9
