REMARK  Name = ZINC54888190
REMARK  7 active torsions:
REMARK  status: ('A' for Active; 'I' for Inactive)
REMARK    1  A    between atoms: C_1  and  C_2
REMARK    2  A    between atoms: C_4  and  C_14
REMARK    3  A    between atoms: N_16  and  C_17
REMARK    4  A    between atoms: C_19  and  C_25
REMARK    5  A    between atoms: C_19  and  C_26
REMARK    6  A    between atoms: C_21  and  C_23
REMARK    7  A    between atoms: C_21  and  C_24
REMARK                            x       y       z     vdW  Elec       q    Type
REMARK                         _______ _______ _______ _____ _____    ______ ____
ROOT
ATOM      1  C   UNL     1       2.134  -0.028  -1.361  0.00  0.00    +0.258 C 
ATOM      2  O   UNL     1       3.068  -0.800  -1.413  0.00  0.00    -0.272 OA
ATOM      3  N   UNL     1       2.354   1.301  -1.402  0.00  0.00    -0.309 N 
ATOM      4  H   UNL     1       1.615   1.918  -1.288  0.00  0.00    +0.149 HD
ENDROOT
BRANCH   3   5
ATOM      5  C   UNL     1       3.713   1.814  -1.619  0.00  0.00    +0.070 C 
ATOM      6  C   UNL     1       4.430   1.919  -0.272  0.00  0.00    +0.009 C 
ATOM      7  C   UNL     1       5.843   2.464  -0.479  0.00  0.00    -0.072 C 
ATOM      8  N   UNL     1       5.844   3.721  -1.211  0.00  0.00    +0.386 N 
ATOM      9  C   UNL     1       5.025   3.805  -2.410  0.00  0.00    -0.072 C 
ATOM     10  C   UNL     1       3.632   3.212  -2.229  0.00  0.00    +0.009 C 
ATOM     11  C   UNL     1       5.715   3.159  -3.614  0.00  0.00    -0.010 C 
ATOM     12  C   UNL     1       4.845   5.305  -2.745  0.00  0.00    -0.010 C 
ATOM     13  C   UNL     1       6.724   1.408  -1.147  0.00  0.00    -0.010 C 
ATOM     14  C   UNL     1       6.438   2.739   0.921  0.00  0.00    -0.010 C 
ATOM     15  H   UNL     1       5.555   4.465  -0.571  0.00  0.00    -0.084 HD
ATOM     16  H   UNL     1       6.809   3.945  -1.464  0.00  0.00    -0.084 HD
ENDBRANCH   3   5
BRANCH   1  19
ATOM     17  C   UNL     1       0.172   1.247   0.397  0.00  0.00    +0.056 C 
ATOM     18  C   UNL     1       0.171  -0.263   0.148  0.00  0.00    +0.220 C 
ATOM     19  C   UNL     1       0.727  -0.556  -1.252  0.00  0.00    +0.299 C 
ATOM     20  O   UNL     1       0.726  -1.975  -1.446  0.00  0.00    -0.472 OA
ATOM     21  C   UNL     1       1.217  -2.732  -0.427  0.00  0.00    +0.163 A 
ATOM     22  C   UNL     1       1.582  -4.047  -0.671  0.00  0.00    +0.049 A 
ATOM     23  C   UNL     1       2.079  -4.830   0.354  0.00  0.00    +0.004 A 
ATOM     24  C   UNL     1       2.214  -4.303   1.625  0.00  0.00    +0.004 A 
ATOM     25  C   UNL     1       1.853  -2.993   1.875  0.00  0.00    +0.049 A 
ATOM     26  C   UNL     1       1.355  -2.202   0.850  0.00  0.00    +0.163 A 
ATOM     27  O   UNL     1       1.011  -0.910   1.110  0.00  0.00    -0.481 OA
ENDBRANCH   1  19
TORSDOF 2
