REMARK  Name = ZINC00196804
REMARK  4 active torsions:
REMARK  status: ('A' for Active; 'I' for Inactive)
REMARK    1  A    between atoms: C_4  and  C_22
REMARK    2  A    between atoms: C_5  and  C_7
REMARK    3  A    between atoms: C_9  and  C_20
REMARK    4  A    between atoms: C_10  and  N_19
REMARK                            x       y       z     vdW  Elec       q    Type
REMARK                         _______ _______ _______ _____ _____    ______ ____
ROOT
ATOM      1  C   UNL     1      -2.786   2.377  -2.421  0.00  0.00    +0.101 C 
ATOM      2  C   UNL     1      -4.275   2.187  -2.339  0.00  0.00    +0.098 C 
ATOM      3  C   UNL     1      -4.874   1.968  -1.144  0.00  0.00    +0.198 C 
ATOM      4  O   UNL     1      -4.165   1.919  -0.005  0.00  0.00    -0.445 OA
ATOM      5  C   UNL     1      -2.847   1.650  -0.049  0.00  0.00    +0.115 C 
ATOM      6  C   UNL     1      -2.127   1.853  -1.167  0.00  0.00    +0.046 C 
ATOM      7  C   UNL     1      -0.745   1.587  -1.207  0.00  0.00    +0.163 C 
ATOM      8  O   UNL     1      -0.133   1.764  -2.241  0.00  0.00    -0.292 OA
ATOM      9  C   UNL     1      -0.013   1.086   0.008  0.00  0.00    +0.080 C 
ATOM     10  C   UNL     1      -0.735   1.582   1.265  0.00  0.00    +0.016 C 
ATOM     11  C   UNL     1      -2.192   1.111   1.202  0.00  0.00    +0.075 C 
ENDROOT
BRANCH   1  16
ATOM     12  C   UNL     1      -2.584   6.083  -1.732  0.00  0.00    +0.000 A 
ATOM     13  C   UNL     1      -1.912   6.535  -2.852  0.00  0.00    +0.001 A 
ATOM     14  C   UNL     1      -1.523   5.642  -3.832  0.00  0.00    +0.012 A 
ATOM     15  C   UNL     1      -1.806   4.296  -3.693  0.00  0.00    +0.059 A 
ATOM     16  C   UNL     1      -2.478   3.844  -2.573  0.00  0.00    -0.023 A 
ATOM     17  C   UNL     1      -2.871   4.738  -1.594  0.00  0.00    +0.005 A 
BRANCH  15  18
ATOM     18  C   UNL     1      -1.383   3.323  -4.762  0.00  0.00    +0.418 C 
ATOM     19  F   UNL     1      -0.726   4.012  -5.787  0.00  0.00    -0.166 F 
ATOM     20  F   UNL     1      -0.517   2.372  -4.211  0.00  0.00    -0.166 F 
ATOM     21  F   UNL     1      -2.512   2.680  -5.281  0.00  0.00    -0.166 F 
ENDBRANCH  15  18
ENDBRANCH   1  16
BRANCH   3  22
ATOM     22  N   UNL     1      -6.235   1.794  -1.096  0.00  0.00    -0.328 N 
ATOM     23  H   UNL     1      -6.675   1.637  -0.245  0.00  0.00    +0.145 HD
ATOM     24  H   UNL     1      -6.758   1.827  -1.913  0.00  0.00    +0.145 HD
ENDBRANCH   3  22
BRANCH   2  25
ATOM     25  C   UNL     1      -5.065   2.237  -3.533  0.00  0.00    +0.101 C 
ATOM     26  N   UNL     1      -5.692   2.277  -4.479  0.00  0.00    -0.191 NA
ENDBRANCH   2  25
TORSDOF 4
