REMARK  Name = ZINC44114237
REMARK  4 active torsions:
REMARK  status: ('A' for Active; 'I' for Inactive)
REMARK    1  A    between atoms: C_3  and  N_23
REMARK    2  A    between atoms: C_5  and  O_7
REMARK    3  A    between atoms: O_7  and  C_8
REMARK    4  A    between atoms: C_8  and  C_10
REMARK                            x       y       z     vdW  Elec       q    Type
REMARK                         _______ _______ _______ _____ _____    ______ ____
ROOT
ATOM      1  C   UNL     1       0.040  -4.157   0.198  0.00  0.00    +0.124 A 
ATOM      2  C   UNL     1      -1.159  -4.848   0.307  0.00  0.00    +0.033 A 
ATOM      3  C   UNL     1      -1.128  -6.256   0.406  0.00  0.00    +0.038 A 
ATOM      4  C   UNL     1       0.076  -6.939   0.388  0.00  0.00    +0.030 A 
ATOM      5  N   UNL     1       1.242  -6.269   0.287  0.00  0.00    -0.325 N 
ATOM      6  H   UNL     1       2.073  -6.768   0.284  0.00  0.00    +0.169 HD
ATOM      7  C   UNL     1       1.285  -4.930   0.185  0.00  0.00    +0.263 A 
ATOM      8  O   UNL     1       2.357  -4.360   0.088  0.00  0.00    -0.267 OA
ATOM      9  C   UNL     1       0.127  -8.443   0.472  0.00  0.00    +0.054 C 
ATOM     10  C   UNL     1      -1.130  -9.006   1.128  0.00  0.00    +0.014 C 
ATOM     11  C   UNL     1      -2.366  -8.495   0.375  0.00  0.00    +0.080 C 
ATOM     12  C   UNL     1      -2.399  -6.990   0.535  0.00  0.00    +0.165 C 
ATOM     13  O   UNL     1      -3.438  -6.407   0.762  0.00  0.00    -0.292 OA
ENDROOT
BRANCH   1  14
ATOM     14  C   UNL     1       0.060  -2.691   0.090  0.00  0.00    +0.350 C 
ATOM     15  O   UNL     1      -0.983  -2.067   0.102  0.00  0.00    -0.244 OA
BRANCH  14  16
ATOM     16  O   UNL     1       1.235  -2.039  -0.021  0.00  0.00    -0.422 OA
BRANCH  16  21
ATOM     17  C   UNL     1       1.492   1.420  -1.120  0.00  0.00    +0.006 A 
ATOM     18  C   UNL     1       1.176   2.085   0.051  0.00  0.00    +0.033 A 
ATOM     19  C   UNL     1       0.881   1.371   1.197  0.00  0.00    +0.130 A 
ATOM     20  C   UNL     1       0.899  -0.010   1.175  0.00  0.00    +0.079 A 
ATOM     21  C   UNL     1       1.215  -0.680   0.003  0.00  0.00    +0.134 A 
ATOM     22  C   UNL     1       1.512   0.039  -1.147  0.00  0.00    +0.046 A 
BRANCH  19  23
ATOM     23  N   UNL     1       0.544   2.087   2.448  0.00  0.00    +0.057 N 
ATOM     24  O   UNL     1       0.528   3.296   2.467  0.00  0.00    -0.126 OA
ATOM     25  O   UNL     1       0.285   1.463   3.450  0.00  0.00    -0.126 OA
ENDBRANCH  19  23
ENDBRANCH  16  21
ENDBRANCH  14  16
ENDBRANCH   1  14
TORSDOF 4
