REMARK  Name = ZINC67014102
REMARK  3 active torsions:
REMARK  status: ('A' for Active; 'I' for Inactive)
REMARK    1  A    between atoms: C_1  and  C_2
REMARK    2  A    between atoms: C_4  and  N_7
REMARK    3  A    between atoms: C_14  and  C_17
REMARK                            x       y       z     vdW  Elec       q    Type
REMARK                         _______ _______ _______ _____ _____    ______ ____
ROOT
ATOM      1  N   UNL     1       0.034  -3.231  -1.551  0.00  0.00    -0.238 N 
ATOM      2  C   UNL     1       0.058  -4.466  -1.011  0.00  0.00    +0.309 C 
ATOM      3  O   UNL     1       0.161  -4.601   0.193  0.00  0.00    -0.252 OA
ATOM      4  N   UNL     1      -0.033  -5.551  -1.806  0.00  0.00    -0.280 N 
ATOM      5  C   UNL     1      -0.038  -5.418  -3.271  0.00  0.00    +0.137 C 
ATOM      6  C   UNL     1       1.009  -6.377  -3.847  0.00  0.00    +0.179 C 
ATOM      7  O   UNL     1       0.781  -7.690  -3.328  0.00  0.00    -0.369 OA
ATOM      8  C   UNL     1       0.922  -7.790  -1.909  0.00  0.00    +0.166 C 
ATOM      9  C   UNL     1      -0.124  -6.903  -1.234  0.00  0.00    +0.145 C 
ATOM     10  H   UNL     1       0.025  -3.123  -2.515  0.00  0.00    +0.159 HD
ENDROOT
BRANCH   8  11
ATOM     11  C   UNL     1       0.723  -9.222  -1.483  0.00  0.00    -0.015 A 
ATOM     12  C   UNL     1      -0.186 -10.021  -2.152  0.00  0.00    +0.009 A 
ATOM     13  C   UNL     1      -0.370 -11.334  -1.763  0.00  0.00    +0.041 A 
ATOM     14  C   UNL     1       0.355 -11.851  -0.704  0.00  0.00    +0.158 A 
ATOM     15  C   UNL     1       1.267 -11.050  -0.034  0.00  0.00    +0.159 A 
ATOM     16  C   UNL     1       1.453  -9.736  -0.428  0.00  0.00    +0.047 A 
ATOM     17  F   UNL     1       1.976 -11.552   1.001  0.00  0.00    -0.202 F 
ATOM     18  F   UNL     1       0.175 -13.135  -0.323  0.00  0.00    -0.202 F 
ENDBRANCH   8  11
BRANCH   1  22
ATOM     19  C   UNL     1      -0.029   1.502   0.012  0.00  0.00    +0.069 C 
ATOM     20  C   UNL     1      -0.005  -0.004   0.003  0.00  0.00    +0.082 A 
ATOM     21  C   UNL     1      -0.001  -0.820  -1.137  0.00  0.00    +0.092 A 
ATOM     22  C   UNL     1       0.023  -2.114  -0.728  0.00  0.00    +0.225 A 
ATOM     23  O   UNL     1       0.033  -2.121   0.615  0.00  0.00    -0.339 OA
ATOM     24  N   UNL     1       0.021  -0.775   1.056  0.00  0.00    -0.081 NA
ENDBRANCH   1  22
TORSDOF 2
