REMARK  Name = ZINC04925586
REMARK  4 active torsions:
REMARK  status: ('A' for Active; 'I' for Inactive)
REMARK    1  A    between atoms: C_6  and  N_7
REMARK    2  A    between atoms: N_7  and  N_8
REMARK    3  A    between atoms: C_9  and  C_10
REMARK    4  A    between atoms: C_13  and  O_17
REMARK                            x       y       z     vdW  Elec       q    Type
REMARK                         _______ _______ _______ _____ _____    ______ ____
ROOT
ATOM      1  N   UNL     1      -1.168  -2.119   0.002  0.00  0.00    -0.189 NA
ATOM      2  C   UNL     1      -2.282  -2.787   0.010  0.00  0.00    +0.138 C 
ENDROOT
BRANCH   2   3
ATOM      3  C   UNL     1      -2.258  -4.261   0.002  0.00  0.00    -0.003 A 
ATOM      4  C   UNL     1      -1.038  -4.942  -0.008  0.00  0.00    +0.028 A 
ATOM      5  C   UNL     1      -1.020  -6.321  -0.015  0.00  0.00    +0.061 A 
ATOM      6  C   UNL     1      -2.213  -7.033  -0.013  0.00  0.00    +0.145 A 
ATOM      7  C   UNL     1      -3.428  -6.360  -0.003  0.00  0.00    +0.061 A 
ATOM      8  C   UNL     1      -3.455  -4.981   0.010  0.00  0.00    +0.028 A 
ATOM      9 BR   UNL     1      -5.048  -7.336   0.000  0.00  0.00    -0.046 Br
ATOM     10 BR   UNL     1       0.630  -7.244  -0.029  0.00  0.00    -0.046 Br
BRANCH   6  11
ATOM     11  O   UNL     1      -2.191  -8.392  -0.020  0.00  0.00    -0.505 OA
ATOM     12  H   UNL     1      -2.180  -8.790   0.861  0.00  0.00    +0.292 HD
ENDBRANCH   6  11
ENDBRANCH   2   3
BRANCH   1  13
ATOM     13  N   UNL     1      -1.191  -0.719   0.010  0.00  0.00    -0.220 N 
ATOM     14  H   UNL     1      -2.038  -0.247   0.021  0.00  0.00    +0.176 HD
BRANCH  13  20
ATOM     15  C   UNL     1      -0.017   1.391   0.010  0.00  0.00    +0.050 A 
ATOM     16  C   UNL     1       1.198   2.056   0.002  0.00  0.00    +0.045 A 
ATOM     17  C   UNL     1       2.360   1.294  -0.013  0.00  0.00    +0.152 A 
ATOM     18  N   UNL     1       2.285  -0.023  -0.020  0.00  0.00    -0.136 NA
ATOM     19  N   UNL     1       1.162  -0.645  -0.013  0.00  0.00    -0.131 NA
ATOM     20  C   UNL     1       0.002  -0.004   0.002  0.00  0.00    +0.161 A 
ATOM     21 CL   UNL     1       3.910   2.075  -0.025  0.00  0.00    -0.060 Cl
ENDBRANCH  13  20
ENDBRANCH   1  13
TORSDOF 4
