REMARK  Name = ZINC58946119
REMARK  5 active torsions:
REMARK  status: ('A' for Active; 'I' for Inactive)
REMARK    1  A    between atoms: C_1  and  N_2
REMARK    2  A    between atoms: C_6  and  C_19
REMARK    3  A    between atoms: N_10  and  C_11
REMARK    4  A    between atoms: N_21  and  C_22
REMARK    5  A    between atoms: C_26  and  C_28
REMARK                            x       y       z     vdW  Elec       q    Type
REMARK                         _______ _______ _______ _____ _____    ______ ____
ROOT
ATOM      1  C   UNL     1       0.003   1.459  -0.002  0.00  0.00    +0.140 C 
ATOM      2  N   UNL     1       0.017  -0.006  -0.007  0.00  0.00    -0.254 N 
ATOM      3  C   UNL     1      -1.148  -0.637   0.004  0.00  0.00    +0.223 C 
ATOM      4  O   UNL     1      -2.125   0.066   0.153  0.00  0.00    -0.275 OA
ATOM      5  C   UNL     1      -1.417  -2.095  -0.143  0.00  0.00    +0.120 C 
ATOM      6  C   UNL     1      -0.249  -2.957   0.341  0.00  0.00    +0.149 C 
ATOM      7  S   UNL     1       1.268  -2.355  -0.472  0.00  0.00    -0.077 S 
ATOM      8  C   UNL     1       1.246  -0.640  -0.030  0.00  0.00    +0.164 C 
ATOM      9  N   UNL     1       2.351   0.001   0.268  0.00  0.00    -0.226 NA
ENDROOT
BRANCH   9  10
ATOM     10  C   UNL     1       3.553  -0.655   0.237  0.00  0.00    +0.069 A 
ATOM     11  C   UNL     1       3.672  -1.927   0.802  0.00  0.00    +0.048 A 
ATOM     12  C   UNL     1       4.886  -2.583   0.767  0.00  0.00    +0.044 A 
ATOM     13  C   UNL     1       5.984  -1.983   0.174  0.00  0.00    +0.040 A 
ATOM     14  C   UNL     1       5.872  -0.723  -0.387  0.00  0.00    +0.044 A 
ATOM     15  C   UNL     1       4.662  -0.058  -0.364  0.00  0.00    +0.048 A 
ATOM     16 CL   UNL     1       7.255   0.021  -1.128  0.00  0.00    -0.083 Cl
ATOM     17 CL   UNL     1       5.036  -4.164   1.468  0.00  0.00    -0.083 Cl
ENDBRANCH   9  10
BRANCH   6  18
ATOM     18  C   UNL     1      -0.491  -4.397  -0.030  0.00  0.00    +0.231 C 
ATOM     19  O   UNL     1      -1.053  -4.670  -1.069  0.00  0.00    -0.274 OA
ATOM     20  N   UNL     1      -0.083  -5.383   0.794  0.00  0.00    -0.285 N 
ATOM     21  H   UNL     1       0.425  -5.168   1.592  0.00  0.00    +0.155 HD
BRANCH  20  22
ATOM     22  C   UNL     1      -0.392  -6.715   0.498  0.00  0.00    +0.034 A 
ATOM     23  C   UNL     1      -0.670  -7.609   1.526  0.00  0.00    +0.023 A 
ATOM     24  C   UNL     1      -0.976  -8.926   1.240  0.00  0.00    +0.003 A 
ATOM     25  C   UNL     1      -1.008  -9.364  -0.069  0.00  0.00    +0.015 A 
ATOM     26  C   UNL     1      -0.731  -8.474  -1.109  0.00  0.00    +0.065 A 
ATOM     27  C   UNL     1      -0.426  -7.142  -0.820  0.00  0.00    +0.038 A 
BRANCH  26  28
ATOM     28  C   UNL     1      -0.764  -8.938  -2.510  0.00  0.00    +0.387 C 
ATOM     29  O   UNL     1      -1.034 -10.104  -2.761  0.00  0.00    -0.241 OA
ATOM     30  O   UNL     1      -0.521  -8.157  -3.419  0.00  0.00    -0.241 OA
ENDBRANCH  26  28
ENDBRANCH  20  22
ENDBRANCH   6  18
TORSDOF 4
