REMARK  Name = ZINC39671593
REMARK  6 active torsions:
REMARK  status: ('A' for Active; 'I' for Inactive)
REMARK    1  A    between atoms: C_1  and  C_2
REMARK    2  A    between atoms: C_4  and  C_9
REMARK    3  A    between atoms: C_5  and  C_8
REMARK    4  A    between atoms: C_13  and  C_22
REMARK    5  A    between atoms: N_24  and  C_25
REMARK    6  A    between atoms: C_25  and  C_26
REMARK                            x       y       z     vdW  Elec       q    Type
REMARK                         _______ _______ _______ _____ _____    ______ ____
ROOT
ATOM      1  C   UNL     1       0.374  -0.081  -2.544  0.00  0.00    +0.247 C 
ATOM      2  O   UNL     1       1.001  -0.592  -3.455  0.00  0.00    -0.270 OA
ATOM      3  N   UNL     1      -0.613   0.796  -2.815  0.00  0.00    -0.296 N 
ATOM      4  C   UNL     1      -1.406   1.597  -1.853  0.00  0.00    +0.121 C 
ATOM      5  C   UNL     1      -1.570   2.974  -2.533  0.00  0.00    +0.100 C 
ATOM      6  C   UNL     1      -1.404   2.692  -4.035  0.00  0.00    -0.004 C 
ATOM      7  C   UNL     1      -1.146   1.182  -4.144  0.00  0.00    +0.115 C 
ATOM      8  C   UNL     1      -2.677   3.068  -4.788  0.00  0.00    -0.010 C 
ATOM      9  C   UNL     1      -2.466   2.833  -6.286  0.00  0.00    -0.082 C 
ATOM     10  N   UNL     1      -1.338   3.646  -6.757  0.00  0.00    +0.379 N 
ATOM     11  C   UNL     1      -0.101   3.215  -6.096  0.00  0.00    -0.082 C 
ATOM     12  C   UNL     1      -0.211   3.466  -4.589  0.00  0.00    -0.010 C 
ATOM     13  H   UNL     1      -1.240   3.536  -7.755  0.00  0.00    -0.086 HD
ATOM     14  H   UNL     1      -1.512   4.616  -6.543  0.00  0.00    -0.086 HD
ENDROOT
BRANCH   1  17
ATOM     15  C   UNL     1       3.165  -0.193  -1.029  0.00  0.00    +0.046 C 
ATOM     16  C   UNL     1       1.823   0.154  -0.382  0.00  0.00    +0.182 C 
ATOM     17  C   UNL     1       0.683  -0.406  -1.203  0.00  0.00    +0.066 C 
ATOM     18  C   UNL     1       0.017  -1.273  -0.416  0.00  0.00    +0.046 C 
ATOM     19  N   UNL     1       0.585  -1.346   0.817  0.00  0.00    -0.269 N 
ATOM     20  O   UNL     1       1.706  -0.483   0.899  0.00  0.00    -0.266 OA
ATOM     21  C   UNL     1      -1.196  -2.058  -0.846  0.00  0.00    +0.066 C 
ATOM     22  H   UNL     1       0.266  -1.908   1.540  0.00  0.00    +0.194 HD
ENDBRANCH   1  17
BRANCH   5  23
ATOM     23  C   UNL     1      -0.505   3.926  -2.054  0.00  0.00    +0.219 C 
ATOM     24  O   UNL     1       0.556   3.497  -1.652  0.00  0.00    -0.275 OA
ATOM     25  N   UNL     1      -0.731   5.255  -2.072  0.00  0.00    -0.309 N 
ATOM     26  H   UNL     1      -1.579   5.598  -2.393  0.00  0.00    +0.149 HD
BRANCH  25  27
ATOM     27  C   UNL     1       0.305   6.181  -1.606  0.00  0.00    +0.157 C 
BRANCH  27  28
ATOM     28  C   UNL     1      -0.195   7.597  -1.729  0.00  0.00    +0.034 A 
ATOM     29  H   UNL     1       0.262   8.071  -3.705  0.00  0.00    +0.166 HD
ATOM     30  C   UNL     1      -0.774   8.298  -0.742  0.00  0.00    +0.032 A 
ATOM     31  C   UNL     1      -1.103   9.617  -1.288  0.00  0.00    -0.000 A 
ATOM     32  C   UNL     1      -1.704  10.762  -0.764  0.00  0.00    +0.010 A 
ATOM     33  C   UNL     1      -1.871  11.863  -1.556  0.00  0.00    +0.001 A 
ATOM     34  C   UNL     1      -1.449  11.852  -2.878  0.00  0.00    +0.002 A 
ATOM     35  C   UNL     1      -0.853  10.732  -3.416  0.00  0.00    +0.026 A 
ATOM     36  C   UNL     1      -0.672   9.600  -2.628  0.00  0.00    +0.047 A 
ATOM     37  N   UNL     1      -0.120   8.361  -2.862  0.00  0.00    -0.357 N 
ENDBRANCH  27  28
ENDBRANCH  25  27
ENDBRANCH   5  23
TORSDOF 4
