REMARK  Name = ZINC02129176
REMARK  6 active torsions:
REMARK  status: ('A' for Active; 'I' for Inactive)
REMARK    1  A    between atoms: C_1  and  C_2
REMARK    2  A    between atoms: C_13  and  C_15
REMARK    3  A    between atoms: C_15  and  C_16
REMARK    4  A    between atoms: C_16  and  C_17
REMARK    5  A    between atoms: N_21  and  C_24
REMARK    6  A    between atoms: C_24  and  C_25
REMARK                            x       y       z     vdW  Elec       q    Type
REMARK                         _______ _______ _______ _____ _____    ______ ____
ROOT
ATOM      1  C   UNL     1      -1.270   6.989   0.299  0.00  0.00    +0.044 C 
ATOM      2  C   UNL     1      -1.706   5.635   0.797  0.00  0.00    -0.050 A 
ATOM      3  C   UNL     1      -2.995   5.451   1.264  0.00  0.00    +0.005 A 
ATOM      4  C   UNL     1      -3.400   4.214   1.720  0.00  0.00    +0.024 A 
ATOM      5  C   UNL     1      -2.514   3.140   1.713  0.00  0.00    +0.036 A 
ATOM      6  C   UNL     1      -1.219   3.337   1.242  0.00  0.00    -0.027 A 
ATOM      7  C   UNL     1      -0.819   4.574   0.788  0.00  0.00    +0.008 A 
ATOM      8  C   UNL     1      -0.530   2.008   1.367  0.00  0.00    +0.050 C 
ATOM      9  C   UNL     1      -0.018   1.508   0.010  0.00  0.00    +0.088 C 
ATOM     10  C   UNL     1       1.489   1.886  -0.002  0.00  0.00    +0.073 C 
ATOM     11  C   UNL     1       1.732   2.595   1.347  0.00  0.00    -0.057 C 
ATOM     12  C   UNL     1       2.185   0.544   0.006  0.00  0.00    +0.224 C 
ATOM     13  O   UNL     1       3.386   0.378   0.012  0.00  0.00    -0.275 OA
ATOM     14  N   UNL     1       1.270  -0.432   0.004  0.00  0.00    -0.237 N 
ATOM     15  C   UNL     1       0.002  -0.004   0.002  0.00  0.00    +0.225 C 
ATOM     16  O   UNL     1      -0.978  -0.718  -0.005  0.00  0.00    -0.275 OA
ATOM     17  C   UNL     1      -1.568   1.081   1.939  0.00  0.00    +0.211 C 
ATOM     18  O   UNL     1      -1.425  -0.096   2.195  0.00  0.00    -0.277 OA
ATOM     19  N   UNL     1      -2.685   1.812   2.113  0.00  0.00    -0.286 N 
ATOM     20  H   UNL     1      -3.513   1.458   2.473  0.00  0.00    +0.155 HD
ATOM     21  N   UNL     1       0.652   2.101   2.205  0.00  0.00    +0.394 N 
ATOM     22  H   UNL     1       0.894   1.177   2.583  0.00  0.00    -0.083 HD
ATOM     23  H   UNL     1       0.488   2.754   2.980  0.00  0.00    -0.083 HD
ENDROOT
BRANCH  11  24
ATOM     24  C   UNL     1       3.106   2.219   1.906  0.00  0.00    -0.004 C 
BRANCH  24  25
ATOM     25  C   UNL     1       3.377   3.026   3.177  0.00  0.00    +0.123 C 
BRANCH  25  26
ATOM     26  C   UNL     1       4.730   2.657   3.728  0.00  0.00    +0.356 C 
ATOM     27  O   UNL     1       5.408   1.832   3.162  0.00  0.00    -0.246 OA
ATOM     28  O   UNL     1       5.183   3.244   4.847  0.00  0.00    -0.246 OA
ENDBRANCH  25  26
ENDBRANCH  24  25
ENDBRANCH  11  24
BRANCH  14  29
ATOM     29  C   UNL     1       1.627  -1.853   0.003  0.00  0.00    +0.151 C 
BRANCH  29  30
ATOM     30  C   UNL     1       1.751  -2.339  -1.418  0.00  0.00    -0.030 A 
ATOM     31  C   UNL     1       0.648  -2.858  -2.070  0.00  0.00    +0.005 A 
ATOM     32  C   UNL     1       0.761  -3.300  -3.375  0.00  0.00    +0.000 A 
ATOM     33  C   UNL     1       1.979  -3.231  -4.025  0.00  0.00    +0.000 A 
ATOM     34  C   UNL     1       3.083  -2.716  -3.371  0.00  0.00    +0.000 A 
ATOM     35  C   UNL     1       2.969  -2.270  -2.068  0.00  0.00    +0.005 A 
ENDBRANCH  29  30
ENDBRANCH  14  29
TORSDOF 5
