REMARK  Name = ZINC36999605
REMARK  5 active torsions:
REMARK  status: ('A' for Active; 'I' for Inactive)
REMARK    1  A    between atoms: C_1  and  N_2
REMARK    2  A    between atoms: N_2  and  S_3
REMARK    3  A    between atoms: S_3  and  C_6
REMARK    4  A    between atoms: C_11  and  N_12
REMARK    5  A    between atoms: C_13  and  C_15
REMARK                            x       y       z     vdW  Elec       q    Type
REMARK                         _______ _______ _______ _____ _____    ______ ____
ROOT
ATOM      1  C   UNL     1       2.420  -0.327  -1.335  0.00  0.00    +0.126 A 
ATOM      2  C   UNL     1       3.422  -1.268  -1.197  0.00  0.00    +0.030 A 
ATOM      3  C   UNL     1       4.747  -0.875  -1.209  0.00  0.00    +0.002 A 
ATOM      4  C   UNL     1       5.075   0.460  -1.359  0.00  0.00    +0.002 A 
ATOM      5  C   UNL     1       4.078   1.405  -1.498  0.00  0.00    +0.025 A 
ATOM      6  C   UNL     1       2.745   1.014  -1.491  0.00  0.00    +0.060 A 
ENDROOT
BRANCH   6   7
ATOM      7  N   UNL     1       1.733   1.968  -1.637  0.00  0.00    -0.285 N 
ATOM      8  C   UNL     1       1.970   3.256  -1.317  0.00  0.00    +0.204 C 
ATOM      9  O   UNL     1       3.025   3.570  -0.807  0.00  0.00    -0.277 OA
ATOM     10  H   UNL     1       0.861   1.704  -1.968  0.00  0.00    +0.155 HD
BRANCH   8  11
ATOM     11  C   UNL     1       0.924   4.306  -1.592  0.00  0.00    +0.027 C 
ATOM     12  C   UNL     1       0.609   4.300  -3.108  0.00  0.00    +0.060 C 
ATOM     13  S   UNL     1       0.387   6.112  -3.397  0.00  0.00    -0.181 S 
ATOM     14  C   UNL     1       1.544   6.678  -2.074  0.00  0.00    -0.011 C 
ATOM     15  N   UNL     1       1.408   5.584  -1.086  0.00  0.00    +0.393 N 
ATOM     16  H   UNL     1       0.774   5.895  -0.365  0.00  0.00    -0.084 HD
ATOM     17  H   UNL     1       2.311   5.432  -0.662  0.00  0.00    -0.084 HD
ENDBRANCH   8  11
ENDBRANCH   6   7
BRANCH   1  18
ATOM     18  S   UNL     1       0.731  -0.829  -1.321  0.00  0.00    +0.060 S 
ATOM     19  O   UNL     1       0.729  -2.246  -1.214  0.00  0.00    -0.153 OA
ATOM     20  O   UNL     1       0.095  -0.145  -2.391  0.00  0.00    -0.153 OA
BRANCH  18  22
ATOM     21  C   UNL     1      -0.023   1.197   0.305  0.00  0.00    +0.127 C 
ATOM     22  N   UNL     1       0.060  -0.248   0.077  0.00  0.00    -0.193 NA
ATOM     23  H   UNL     1      -0.279  -0.864   0.746  0.00  0.00    +0.148 HD
ENDBRANCH  18  22
ENDBRANCH   1  18
TORSDOF 4
