REMARK  Name = ZINC38810931
REMARK  8 active torsions:
REMARK  status: ('A' for Active; 'I' for Inactive)
REMARK    1  A    between atoms: C_1  and  C_2
REMARK    2  A    between atoms: C_4  and  C_17
REMARK    3  A    between atoms: N_8  and  C_10
REMARK    4  A    between atoms: N_18  and  N_19
REMARK    5  A    between atoms: C_20  and  C_22
REMARK    6  A    between atoms: C_22  and  C_23
REMARK    7  A    between atoms: C_23  and  N_24
REMARK    8  A    between atoms: N_24  and  C_25
REMARK                            x       y       z     vdW  Elec       q    Type
REMARK                         _______ _______ _______ _____ _____    ______ ____
ROOT
ATOM      1  N   UNL     1      -0.487  -3.551  -2.994  0.00  0.00    -0.207 N 
ATOM      2  C   UNL     1      -1.012  -3.843  -4.201  0.00  0.00    +0.233 C 
ATOM      3  O   UNL     1      -1.161  -2.966  -5.026  0.00  0.00    -0.274 OA
ATOM      4  H   UNL     1      -0.368  -4.252  -2.335  0.00  0.00    +0.177 HD
ENDROOT
BRANCH   1   6
ATOM      5  C   UNL     1       0.387  -1.958  -1.548  0.00  0.00    +0.111 C 
ATOM      6  N   UNL     1      -0.112  -2.235  -2.693  0.00  0.00    -0.192 NA
BRANCH   5   9
ATOM      7  C   UNL     1      -0.019   1.526   0.010  0.00  0.00    +0.026 C 
ATOM      8  C   UNL     1       0.002  -0.004   0.002  0.00  0.00    +0.081 C 
ATOM      9  C   UNL     1       0.789  -0.542  -1.224  0.00  0.00    +0.087 C 
ATOM     10  C   UNL     1       2.243  -0.483  -0.695  0.00  0.00    +0.191 C 
ATOM     11  N   UNL     1       2.125  -0.436   0.771  0.00  0.00    -0.248 N 
ATOM     12  N   UNL     1       0.805  -0.531   1.135  0.00  0.00    -0.235 NA
ATOM     13 CL   UNL     1       3.152  -1.954  -1.204  0.00  0.00    -0.099 Cl
ATOM     14  H   UNL     1       0.555  -1.486   1.342  0.00  0.00    +0.145 HD
BRANCH  11  15
ATOM     15  C   UNL     1       3.196  -0.314   1.659  0.00  0.00    +0.046 A 
ATOM     16  C   UNL     1       4.494  -0.219   1.175  0.00  0.00    +0.024 A 
ATOM     17  C   UNL     1       5.551  -0.098   2.056  0.00  0.00    +0.002 A 
ATOM     18  C   UNL     1       5.317  -0.070   3.419  0.00  0.00    +0.000 A 
ATOM     19  C   UNL     1       4.026  -0.164   3.904  0.00  0.00    +0.002 A 
ATOM     20  C   UNL     1       2.964  -0.280   3.028  0.00  0.00    +0.024 A 
ENDBRANCH  11  15
ENDBRANCH   5   9
ENDBRANCH   1   6
BRANCH   2  21
ATOM     21  C   UNL     1      -1.415  -5.259  -4.525  0.00  0.00    +0.112 C 
BRANCH  21  22
ATOM     22  C   UNL     1      -1.978  -5.316  -5.946  0.00  0.00    +0.092 C 
BRANCH  22  23
ATOM     23  N   UNL     1      -2.370  -6.696  -6.262  0.00  0.00    -0.286 NA
ATOM     24  H   UNL     1      -1.595  -7.330  -6.139  0.00  0.00    +0.124 HD
BRANCH  23  25
ATOM     25  C   UNL     1      -2.917  -6.790  -7.622  0.00  0.00    +0.280 C 
ATOM     26  C   UNL     1      -4.219  -7.566  -7.553  0.00  0.00    +0.261 C 
ATOM     27  O   UNL     1      -5.146  -7.199  -6.863  0.00  0.00    -0.271 OA
ATOM     28  N   UNL     1      -4.291  -8.691  -8.305  0.00  0.00    -0.234 N 
ATOM     29  C   UNL     1      -3.241  -9.062  -9.056  0.00  0.00    +0.347 C 
ATOM     30  O   UNL     1      -3.343 -10.076  -9.716  0.00  0.00    -0.249 OA
ATOM     31  N   UNL     1      -2.092  -8.384  -9.121  0.00  0.00    -0.065 NA
ATOM     32  N   UNL     1      -1.869  -7.341  -8.498  0.00  0.00    -0.165 NA
ATOM     33  H   UNL     1      -5.099  -9.228  -8.300  0.00  0.00    +0.159 HD
ENDBRANCH  23  25
ENDBRANCH  22  23
ENDBRANCH  21  22
ENDBRANCH   2  21
TORSDOF 7
