REMARK  Name = ZINC12793408
REMARK  11 active torsions:
REMARK  status: ('A' for Active; 'I' for Inactive)
REMARK    1  A    between atoms: C_1  and  C_2
REMARK    2  A    between atoms: C_2  and  C_3
REMARK    3  A    between atoms: C_3  and  C_4
REMARK    4  A    between atoms: C_4  and  N_5
REMARK    5  A    between atoms: C_6  and  N_34
REMARK    6  A    between atoms: C_7  and  N_14
REMARK    7  A    between atoms: N_14  and  C_15
REMARK    8  A    between atoms: C_20  and  C_22
REMARK    9  A    between atoms: C_22  and  N_23
REMARK   10  A    between atoms: C_26  and  C_30
REMARK   11  A    between atoms: C_26  and  C_31
REMARK                            x       y       z     vdW  Elec       q    Type
REMARK                         _______ _______ _______ _____ _____    ______ ____
ROOT
ATOM      1  N   UNL     1       2.730   2.039   4.655  0.00  0.00    -0.260 N 
ATOM      2  C   UNL     1       3.078   3.306   4.345  0.00  0.00    +0.238 C 
ATOM      3  O   UNL     1       2.559   3.863   3.400  0.00  0.00    -0.273 OA
ENDROOT
BRANCH   1   6
ATOM      4  N   UNL     1      -0.600   1.190   3.354  0.00  0.00    -0.280 N 
ATOM      5  C   UNL     1       0.389   1.836   4.059  0.00  0.00    +0.127 A 
ATOM      6  C   UNL     1       1.693   1.398   3.945  0.00  0.00    +0.140 A 
ATOM      7  C   UNL     1       1.971   0.301   3.108  0.00  0.00    +0.277 A 
ATOM      8  O   UNL     1       3.114  -0.106   2.989  0.00  0.00    -0.266 OA
ATOM      9  N   UNL     1       0.965  -0.296   2.439  0.00  0.00    -0.273 N 
ATOM     10  H   UNL     1       1.162  -1.073   1.841  0.00  0.00    +0.173 HD
ATOM     11  C   UNL     1      -0.300   0.141   2.566  0.00  0.00    +0.331 A 
ATOM     12  O   UNL     1      -1.190  -0.419   1.955  0.00  0.00    -0.246 OA
BRANCH   5  13
ATOM     13  N   UNL     1       0.083   2.904   4.868  0.00  0.00    -0.343 N 
ATOM     14  H   UNL     1      -0.820   3.259   4.881  0.00  0.00    +0.144 HD
ATOM     15  H   UNL     1       0.769   3.302   5.426  0.00  0.00    +0.144 HD
ENDBRANCH   5  13
BRANCH   4  16
ATOM     16  C   UNL     1      -1.988   1.644   3.466  0.00  0.00    +0.128 C 
BRANCH  16  17
ATOM     17  C   UNL     1      -2.267   2.701   2.395  0.00  0.00    +0.021 C 
BRANCH  17  19
ATOM     18  C   UNL     1      -3.996   4.232   1.442  0.00  0.00    +0.004 C 
ATOM     19  C   UNL     1      -3.717   3.175   2.512  0.00  0.00    -0.002 C 
ENDBRANCH  17  19
ENDBRANCH  16  17
ENDBRANCH   4  16
ENDBRANCH   1   6
BRANCH   1  20
ATOM     20  C   UNL     1       3.429   1.331   5.730  0.00  0.00    +0.082 C 
ATOM     21  C   UNL     1       2.920  -0.123   5.823  0.00  0.00    +0.023 C 
ATOM     22  C   UNL     1       2.908  -0.425   7.342  0.00  0.00    +0.002 C 
ATOM     23  C   UNL     1       2.435   0.917   7.954  0.00  0.00    +0.002 C 
ATOM     24  C   UNL     1       3.121   1.992   7.085  0.00  0.00    +0.023 C 
ENDBRANCH   1  20
BRANCH   2  25
ATOM     25  C   UNL     1       4.111   4.028   5.170  0.00  0.00    +0.214 C 
BRANCH  25  26
ATOM     26  N   UNL     1       4.244   5.405   4.691  0.00  0.00    -0.215 N 
ATOM     27  C   UNL     1       3.518   6.442   5.154  0.00  0.00    +0.247 C 
ATOM     28  O   UNL     1       2.663   6.411   6.013  0.00  0.00    -0.273 OA
ATOM     29  C   UNL     1       3.992   7.654   4.377  0.00  0.00    +0.113 C 
ATOM     30  N   UNL     1       5.028   7.109   3.482  0.00  0.00    -0.285 N 
ATOM     31  C   UNL     1       5.106   5.791   3.743  0.00  0.00    +0.310 C 
ATOM     32  O   UNL     1       5.871   5.035   3.178  0.00  0.00    -0.252 OA
ATOM     33  C   UNL     1       2.842   8.259   3.568  0.00  0.00    +0.042 C 
ATOM     34  H   UNL     1       5.554   7.604   2.835  0.00  0.00    +0.151 HD
BRANCH  29  35
ATOM     35  C   UNL     1       4.591   8.698   5.321  0.00  0.00    +0.021 C 
ATOM     36  C   UNL     1       3.767   9.957   5.598  0.00  0.00    +0.006 C 
ATOM     37  C   UNL     1       5.015  10.038   4.716  0.00  0.00    +0.006 C 
ENDBRANCH  29  35
ENDBRANCH  25  26
ENDBRANCH   2  25
TORSDOF 9
