REMARK  Name = ZINC39956687
REMARK  4 active torsions:
REMARK  status: ('A' for Active; 'I' for Inactive)
REMARK    1  A    between atoms: C_1  and  C_2
REMARK    2  A    between atoms: C_7  and  C_8
REMARK    3  A    between atoms: C_8  and  N_9
REMARK    4  A    between atoms: C_11  and  N_17
REMARK                            x       y       z     vdW  Elec       q    Type
REMARK                         _______ _______ _______ _____ _____    ______ ____
ROOT
ATOM      1  N   UNL     1      -1.315   0.565   2.776  0.00  0.00    -0.323 N 
ATOM      2  C   UNL     1      -1.575   1.233   3.968  0.00  0.00    +0.149 A 
ATOM      3  C   UNL     1      -2.864   1.681   4.239  0.00  0.00    +0.167 A 
ATOM      4  C   UNL     1      -3.110   2.343   5.428  0.00  0.00    +0.053 A 
ATOM      5  C   UNL     1      -2.053   2.536   6.310  0.00  0.00    +0.038 A 
ATOM      6  C   UNL     1      -0.799   2.065   5.976  0.00  0.00    +0.128 A 
ATOM      7  N   UNL     1      -0.596   1.431   4.836  0.00  0.00    -0.237 NA
ATOM      8 BR   UNL     1      -2.330   3.436   7.950  0.00  0.00    -0.049 Br
ATOM      9  H   UNL     1      -2.010   0.482   2.105  0.00  0.00    +0.148 HD
ENDROOT
BRANCH   3  10
ATOM     10  N   UNL     1      -3.958   1.452   3.268  0.00  0.00    +0.060 N 
ATOM     11  O   UNL     1      -4.803   2.300   3.099  0.00  0.00    -0.126 OA
ATOM     12  O   UNL     1      -4.006   0.417   2.645  0.00  0.00    -0.126 OA
ENDBRANCH   3  10
BRANCH   1  13
ATOM     13  C   UNL     1       0.009  -0.014   2.535  0.00  0.00    +0.138 C 
BRANCH  13  20
ATOM     14  C   UNL     1       0.351   1.581   0.150  0.00  0.00    +0.044 C 
ATOM     15  C   UNL     1       0.192   0.087   0.041  0.00  0.00    -0.046 A 
ATOM     16  C   UNL     1       0.216  -0.522  -1.200  0.00  0.00    +0.003 A 
ATOM     17  C   UNL     1       0.071  -1.892  -1.301  0.00  0.00    +0.000 A 
ATOM     18  C   UNL     1      -0.098  -2.655  -0.160  0.00  0.00    +0.000 A 
ATOM     19  C   UNL     1      -0.121  -2.047   1.081  0.00  0.00    +0.005 A 
ATOM     20  C   UNL     1       0.029  -0.676   1.181  0.00  0.00    -0.027 A 
ENDBRANCH  13  20
ENDBRANCH   1  13
TORSDOF 3
