REMARK  Name = ZINC35636770
REMARK  13 active torsions:
REMARK  status: ('A' for Active; 'I' for Inactive)
REMARK    1  A    between atoms: C_1  and  N_2
REMARK    2  A    between atoms: N_2  and  C_3
REMARK    3  A    between atoms: N_2  and  C_4
REMARK    4  A    between atoms: C_4  and  C_5
REMARK    5  A    between atoms: C_5  and  N_6
REMARK    6  A    between atoms: C_7  and  C_9
REMARK    7  A    between atoms: C_9  and  C_10
REMARK    8  A    between atoms: C_10  and  N_11
REMARK    9  A    between atoms: C_17  and  C_26
REMARK   10  A    between atoms: N_22  and  C_23
REMARK   11  A    between atoms: C_23  and  C_24
REMARK   12  A    between atoms: C_30  and  O_32
REMARK   13  A    between atoms: O_32  and  C_33
REMARK                            x       y       z     vdW  Elec       q    Type
REMARK                         _______ _______ _______ _____ _____    ______ ____
ROOT
ATOM      1  N   UNL     1      -7.792  -6.358  -0.035  0.00  0.00    -0.292 N 
ATOM      2  C   UNL     1      -8.778  -6.912   0.904  0.00  0.00    +0.159 C 
ATOM      3  C   UNL     1      -9.844  -7.532   0.028  0.00  0.00    +0.043 C 
ATOM      4  C   UNL     1      -9.455  -7.324  -1.246  0.00  0.00    +0.058 C 
ATOM      5  C   UNL     1      -8.234  -6.620  -1.278  0.00  0.00    +0.247 C 
ATOM      6  O   UNL     1      -7.654  -6.294  -2.298  0.00  0.00    -0.270 OA
ATOM      7  C   UNL     1     -10.350  -7.850  -2.350  0.00  0.00    +0.142 C 
ATOM      8  N   UNL     1     -11.579  -8.549  -1.937  0.00  0.00    -0.288 N 
ATOM      9  C   UNL     1     -11.831  -8.678  -0.619  0.00  0.00    +0.307 C 
ATOM     10  O   UNL     1     -12.843  -9.253  -0.268  0.00  0.00    -0.252 OA
ATOM     11  N   UNL     1     -11.004  -8.193   0.316  0.00  0.00    -0.253 N 
ATOM     12  H   UNL     1     -12.192  -8.907  -2.597  0.00  0.00    +0.151 HD
ENDROOT
BRANCH   7  13
ATOM     13  C   UNL     1      -9.539  -8.799  -3.194  0.00  0.00    -0.019 A 
ATOM     14  C   UNL     1      -9.334 -10.099  -2.769  0.00  0.00    +0.006 A 
ATOM     15  C   UNL     1      -8.590 -10.972  -3.542  0.00  0.00    +0.004 A 
ATOM     16  C   UNL     1      -8.049 -10.547  -4.740  0.00  0.00    +0.046 A 
ATOM     17  C   UNL     1      -8.253  -9.243  -5.168  0.00  0.00    +0.129 A 
ATOM     18  C   UNL     1      -9.005  -8.371  -4.394  0.00  0.00    +0.052 A 
BRANCH  17  19
ATOM     19  O   UNL     1      -7.722  -8.823  -6.346  0.00  0.00    -0.456 OA
BRANCH  19  20
ATOM     20  C   UNL     1      -7.942  -7.536  -6.723  0.00  0.00    +0.128 A 
ATOM     21  C   UNL     1      -7.054  -6.540  -6.343  0.00  0.00    +0.046 A 
ATOM     22  C   UNL     1      -7.281  -5.232  -6.727  0.00  0.00    +0.004 A 
ATOM     23  C   UNL     1      -8.391  -4.916  -7.488  0.00  0.00    +0.000 A 
ATOM     24  C   UNL     1      -9.278  -5.907  -7.866  0.00  0.00    +0.004 A 
ATOM     25  C   UNL     1      -9.053  -7.217  -7.491  0.00  0.00    +0.046 A 
ENDBRANCH  19  20
ENDBRANCH  17  19
ENDBRANCH   7  13
BRANCH   1  26
ATOM     26  C   UNL     1      -6.559  -5.648   0.317  0.00  0.00    +0.117 C 
BRANCH  26  27
ATOM     27  C   UNL     1      -6.849  -4.150   0.431  0.00  0.00    +0.114 C 
BRANCH  27  29
ATOM     28  N   UNL     1      -5.596  -2.081   0.949  0.00  0.00    -0.317 N 
ATOM     29  C   UNL     1      -5.582  -3.419   0.794  0.00  0.00    +0.214 C 
ATOM     30  O   UNL     1      -4.549  -4.036   0.946  0.00  0.00    -0.276 OA
ATOM     31  H   UNL     1      -6.423  -1.587   0.828  0.00  0.00    +0.149 HD
BRANCH  28  32
ATOM     32  C   UNL     1      -4.364  -1.371   1.301  0.00  0.00    +0.085 C 
BRANCH  32  33
ATOM     33  C   UNL     1      -4.654   0.128   1.415  0.00  0.00    -0.061 C 
BRANCH  33  35
ATOM     34  C   UNL     1      -3.669   2.287   1.761  0.00  0.00    -0.097 C 
ATOM     35  N   UNL     1      -3.419   0.840   1.769  0.00  0.00    +0.377 N 
ATOM     36  C   UNL     1      -2.981   0.425   3.108  0.00  0.00    -0.097 C 
ATOM     37  H   UNL     1      -2.699   0.619   1.096  0.00  0.00    -0.083 HD
ENDBRANCH  33  35
ENDBRANCH  32  33
ENDBRANCH  28  32
ENDBRANCH  27  29
ENDBRANCH  26  27
ENDBRANCH   1  26
BRANCH  11  38
ATOM     38  C   UNL     1     -11.362  -8.382   1.724  0.00  0.00    +0.141 C 
BRANCH  38  39
ATOM     39  C   UNL     1     -12.191  -7.214   2.192  0.00  0.00    -0.015 C 
ATOM     40  C   UNL     1     -13.367  -7.419   2.731  0.00  0.00    +0.005 C 
ENDBRANCH  38  39
ENDBRANCH  11  38
TORSDOF 11
