REMARK  Name = ZINC08175144
REMARK  6 active torsions:
REMARK  status: ('A' for Active; 'I' for Inactive)
REMARK    1  A    between atoms: C_1  and  C_2
REMARK    2  A    between atoms: C_2  and  C_4
REMARK    3  A    between atoms: C_2  and  S_19
REMARK    4  A    between atoms: N_6  and  C_7
REMARK    5  A    between atoms: S_19  and  C_20
REMARK    6  A    between atoms: N_25  and  C_26
REMARK                            x       y       z     vdW  Elec       q    Type
REMARK                         _______ _______ _______ _____ _____    ______ ____
ROOT
ATOM      1  C   UNL     1       1.453   1.507   0.122  0.00  0.00    +0.230 C 
ATOM      2  O   UNL     1       1.801   2.365   0.905  0.00  0.00    -0.274 OA
ATOM      3  N   UNL     1       2.336   1.006  -0.765  0.00  0.00    -0.285 N 
ATOM      4  H   UNL     1       2.080   0.267  -1.340  0.00  0.00    +0.155 HD
ENDROOT
BRANCH   3   5
ATOM      5  C   UNL     1       3.622   1.552  -0.857  0.00  0.00    +0.035 A 
ATOM      6  C   UNL     1       4.702   0.735  -1.175  0.00  0.00    +0.025 A 
ATOM      7  C   UNL     1       5.972   1.267  -1.266  0.00  0.00    +0.029 A 
ATOM      8  C   UNL     1       6.173   2.621  -1.042  0.00  0.00    +0.067 A 
ATOM      9  C   UNL     1       5.091   3.444  -0.724  0.00  0.00    +0.069 A 
ATOM     10  C   UNL     1       3.816   2.907  -0.637  0.00  0.00    +0.051 A 
ATOM     11  N   UNL     1       5.599   4.730  -0.558  0.00  0.00    -0.306 N 
ATOM     12  H   UNL     1       5.082   5.519  -0.332  0.00  0.00    +0.170 HD
ATOM     13  C   UNL     1       6.929   4.692  -0.766  0.00  0.00    +0.325 A 
ATOM     14  O   UNL     1       7.676   5.651  -0.699  0.00  0.00    -0.247 OA
ATOM     15  N   UNL     1       7.306   3.434  -1.060  0.00  0.00    -0.306 N 
ATOM     16  H   UNL     1       8.211   3.143  -1.252  0.00  0.00    +0.170 HD
ENDBRANCH   3   5
BRANCH   1  18
ATOM     17  C   UNL     1      -0.763   1.677  -0.978  0.00  0.00    +0.029 C 
ATOM     18  C   UNL     1       0.033   1.001   0.139  0.00  0.00    +0.136 C 
BRANCH  18  19
ATOM     19  S   UNL     1      -0.726   1.385   1.741  0.00  0.00    -0.084 S 
BRANCH  19  20
ATOM     20  C   UNL     1      -2.306   0.611   1.661  0.00  0.00    +0.161 A 
ATOM     21  N   UNL     1      -2.847  -0.087   0.681  0.00  0.00    -0.133 NA
ATOM     22  N   UNL     1      -4.109  -0.614   0.830  0.00  0.00    -0.125 NA
ATOM     23  C   UNL     1      -4.777  -0.409   1.949  0.00  0.00    +0.182 A 
ATOM     24  S   UNL     1      -3.609   0.567   2.883  0.00  0.00    -0.025 S 
ATOM     25  N   UNL     1      -6.050  -0.839   2.305  0.00  0.00    -0.325 N 
ATOM     26  C   UNL     1      -6.841  -1.640   1.368  0.00  0.00    +0.127 C 
ATOM     27  H   UNL     1      -6.414  -0.608   3.174  0.00  0.00    +0.148 HD
ENDBRANCH  19  20
ENDBRANCH  18  19
ENDBRANCH   1  18
TORSDOF 4
