REMARK  Name = ZINC50657598
REMARK  10 active torsions:
REMARK  status: ('A' for Active; 'I' for Inactive)
REMARK    1  A    between atoms: C_1  and  C_2
REMARK    2  A    between atoms: C_2  and  C_4
REMARK    3  A    between atoms: C_2  and  N_7
REMARK    4  A    between atoms: C_4  and  C_5
REMARK    5  A    between atoms: C_4  and  C_6
REMARK    6  A    between atoms: N_7  and  C_8
REMARK    7  A    between atoms: N_7  and  S_9
REMARK    8  A    between atoms: S_9  and  C_12
REMARK    9  A    between atoms: C_14  and  N_21
REMARK   10  A    between atoms: C_17  and  N_18
REMARK                            x       y       z     vdW  Elec       q    Type
REMARK                         _______ _______ _______ _____ _____    ______ ____
ROOT
ATOM      1  C   UNL     1       3.373  -0.549  -1.041  0.00  0.00    +0.137 A 
ATOM      2  C   UNL     1       3.263   0.793  -1.350  0.00  0.00    +0.053 A 
ATOM      3  C   UNL     1       4.401   1.587  -1.405  0.00  0.00    +0.027 A 
ATOM      4  C   UNL     1       5.647   1.028  -1.150  0.00  0.00    +0.025 A 
ATOM      5  C   UNL     1       5.750  -0.314  -0.842  0.00  0.00    +0.036 A 
ATOM      6  C   UNL     1       4.614  -1.100  -0.782  0.00  0.00    +0.153 A 
ENDROOT
BRANCH   1   7
ATOM      7  S   UNL     1       1.930  -1.557  -0.970  0.00  0.00    +0.063 S 
ATOM      8  O   UNL     1       1.941  -2.193   0.301  0.00  0.00    -0.153 OA
ATOM      9  O   UNL     1       1.885  -2.288  -2.187  0.00  0.00    -0.153 OA
BRANCH   7  10
ATOM     10  N   UNL     1       0.622  -0.541  -0.979  0.00  0.00    -0.177 NA
ATOM     11  C   UNL     1       0.080  -0.056  -2.250  0.00  0.00    +0.132 C 
BRANCH  10  13
ATOM     12  C   UNL     1      -0.035   1.401   0.355  0.00  0.00    +0.026 C 
ATOM     13  C   UNL     1       0.008  -0.127   0.285  0.00  0.00    +0.079 C 
BRANCH  13  14
ATOM     14  C   UNL     1      -1.416  -0.681   0.366  0.00  0.00    +0.001 C 
ATOM     15  C   UNL     1      -1.384  -2.199   0.175  0.00  0.00    +0.009 C 
ATOM     16  C   UNL     1      -2.015  -0.351   1.734  0.00  0.00    +0.009 C 
ENDBRANCH  13  14
ENDBRANCH  10  13
ENDBRANCH   7  10
ENDBRANCH   1   7
BRANCH   6  17
ATOM     17  N   UNL     1       4.728  -2.537  -0.446  0.00  0.00    +0.058 N 
ATOM     18  O   UNL     1       5.793  -2.995  -0.101  0.00  0.00    -0.126 OA
ATOM     19  O   UNL     1       3.757  -3.253  -0.517  0.00  0.00    -0.126 OA
ENDBRANCH   6  17
BRANCH   3  20
ATOM     20  N   UNL     1       4.293   2.944  -1.718  0.00  0.00    -0.358 N 
ATOM     21  H   UNL     1       3.423   3.333  -1.896  0.00  0.00    +0.142 HD
ATOM     22  H   UNL     1       5.089   3.498  -1.756  0.00  0.00    +0.142 HD
ENDBRANCH   3  20
TORSDOF 6
