REMARK  Name = ZINC33334244
REMARK  5 active torsions:
REMARK  status: ('A' for Active; 'I' for Inactive)
REMARK    1  A    between atoms: C_4  and  O_24
REMARK    2  A    between atoms: C_5  and  C_7
REMARK    3  A    between atoms: N_9  and  N_10
REMARK    4  A    between atoms: C_11  and  C_12
REMARK    5  A    between atoms: N_16  and  C_17
REMARK                            x       y       z     vdW  Elec       q    Type
REMARK                         _______ _______ _______ _____ _____    ______ ____
ROOT
ATOM      1  N   UNL     1       0.013   0.007   4.874  0.00  0.00    -0.186 NA
ATOM      2  C   UNL     1      -0.030  -0.653   5.994  0.00  0.00    +0.156 C 
ENDROOT
BRANCH   2   3
ATOM      3  C   UNL     1      -0.011  -2.119   5.982  0.00  0.00    +0.066 A 
ATOM      4  C   UNL     1       0.176  -2.922   4.878  0.00  0.00    +0.029 A 
ATOM      5  C   UNL     1       0.124  -4.252   5.319  0.00  0.00    +0.020 A 
ATOM      6  C   UNL     1      -0.098  -4.239   6.652  0.00  0.00    +0.092 A 
ATOM      7  N   UNL     1      -0.182  -2.943   7.071  0.00  0.00    -0.315 N 
BRANCH   7   8
ATOM      8  C   UNL     1      -0.405  -2.522   8.389  0.00  0.00    +0.047 A 
ATOM      9  C   UNL     1       0.426  -1.571   8.965  0.00  0.00    +0.027 A 
ATOM     10  C   UNL     1       0.201  -1.154  10.262  0.00  0.00    +0.016 A 
ATOM     11  C   UNL     1      -0.845  -1.691  10.991  0.00  0.00    +0.014 A 
ATOM     12  C   UNL     1      -1.671  -2.643  10.421  0.00  0.00    +0.016 A 
ATOM     13  C   UNL     1      -1.454  -3.060   9.123  0.00  0.00    +0.027 A 
ATOM     14  I   UNL     1      -1.179  -1.062  12.961  0.00  0.00    -0.044 I 
ENDBRANCH   7   8
ENDBRANCH   2   3
BRANCH   1  17
ATOM     15  C   UNL     1      -0.203   0.020   2.503  0.00  0.00    +0.267 C 
ATOM     16  O   UNL     1       0.301   1.127   2.477  0.00  0.00    -0.268 OA
ATOM     17  N   UNL     1      -0.382  -0.611   3.681  0.00  0.00    -0.203 N 
ATOM     18  H   UNL     1      -0.838  -1.612   3.704  0.00  0.00    +0.178 HD
BRANCH  15  23
ATOM     19  C   UNL     1      -1.583  -2.506   0.095  0.00  0.00    +0.001 A 
ATOM     20  C   UNL     1      -1.400  -1.858  -1.115  0.00  0.00    +0.004 A 
ATOM     21  C   UNL     1      -0.834  -0.599  -1.155  0.00  0.00    +0.046 A 
ATOM     22  C   UNL     1      -0.435   0.021   0.020  0.00  0.00    +0.129 A 
ATOM     23  C   UNL     1      -0.619  -0.631   1.247  0.00  0.00    +0.080 A 
ATOM     24  C   UNL     1      -1.198  -1.903   1.273  0.00  0.00    +0.017 A 
BRANCH  22  25
ATOM     25  O   UNL     1       0.126   1.256  -0.017  0.00  0.00    -0.506 OA
ATOM     26  H   UNL     1       0.442   1.745   0.916  0.00  0.00    +0.292 HD
ENDBRANCH  22  25
ENDBRANCH  15  23
ENDBRANCH   1  17
TORSDOF 5
