REMARK  Name = ZINC49152223
REMARK  7 active torsions:
REMARK  status: ('A' for Active; 'I' for Inactive)
REMARK    1  A    between atoms: C_1  and  C_2
REMARK    2  A    between atoms: C_2  and  C_3
REMARK    3  A    between atoms: C_2  and  C_4
REMARK    4  A    between atoms: C_4  and  N_5
REMARK    5  A    between atoms: N_8  and  N_9
REMARK    6  A    between atoms: N_9  and  S_10
REMARK    7  A    between atoms: S_10  and  C_13
REMARK                            x       y       z     vdW  Elec       q    Type
REMARK                         _______ _______ _______ _____ _____    ______ ____
ROOT
ATOM      1  N   UNL     1       4.731   0.684  -1.081  0.00  0.00    -0.107 NA
ATOM      2  H   UNL     1       4.301   1.514  -0.823  0.00  0.00    +0.172 HD
ENDROOT
BRANCH   1   6
ATOM      3  N   UNL     1       2.125  -0.091  -1.209  0.00  0.00    -0.298 N 
ATOM      4  C   UNL     1       2.955  -0.418  -2.220  0.00  0.00    +0.315 C 
ATOM      5  O   UNL     1       2.537  -1.050  -3.170  0.00  0.00    -0.251 OA
ATOM      6  N   UNL     1       4.249  -0.044  -2.176  0.00  0.00    -0.216 N 
ATOM      7  H   UNL     1       2.459   0.413  -0.451  0.00  0.00    +0.150 HD
ATOM      8  H   UNL     1       4.847  -0.279  -2.903  0.00  0.00    +0.172 HD
BRANCH   3   9
ATOM      9  C   UNL     1       0.718  -0.497  -1.257  0.00  0.00    +0.108 C 
BRANCH   9  11
ATOM     10  C   UNL     1      -0.019   1.526   0.010  0.00  0.00    +0.009 C 
ATOM     11  C   UNL     1       0.002  -0.004   0.002  0.00  0.00    -0.000 C 
ATOM     12  C   UNL     1      -1.433  -0.534   0.013  0.00  0.00    +0.009 C 
ENDBRANCH   9  11
ENDBRANCH   3   9
ENDBRANCH   1   6
BRANCH   1  13
ATOM     13  S   UNL     1       6.036   0.128  -0.226  0.00  0.00    +0.074 S 
ATOM     14  O   UNL     1       6.368   1.141   0.714  0.00  0.00    -0.152 OA
ATOM     15  O   UNL     1       5.729  -1.203   0.165  0.00  0.00    -0.152 OA
BRANCH  13  16
ATOM     16  C   UNL     1       7.389   0.023  -1.350  0.00  0.00    +0.108 A 
ATOM     17  C   UNL     1       7.609  -1.143  -2.060  0.00  0.00    +0.028 A 
ATOM     18  C   UNL     1       8.670  -1.226  -2.942  0.00  0.00    +0.003 A 
ATOM     19  C   UNL     1       9.511  -0.143  -3.115  0.00  0.00    +0.015 A 
ATOM     20  C   UNL     1       9.291   1.023  -2.406  0.00  0.00    +0.020 A 
ATOM     21  C   UNL     1       8.226   1.108  -1.527  0.00  0.00    +0.043 A 
ATOM     22 BR   UNL     1      10.443   2.505  -2.642  0.00  0.00    -0.050 Br
ENDBRANCH  13  16
ENDBRANCH   1  13
TORSDOF 5
