REMARK  Name = ZINC00236579
REMARK  8 active torsions:
REMARK  status: ('A' for Active; 'I' for Inactive)
REMARK    1  A    between atoms: C_1  and  C_2
REMARK    2  A    between atoms: C_5  and  N_22
REMARK    3  A    between atoms: C_7  and  N_8
REMARK    4  A    between atoms: N_8  and  C1*_9
REMARK    5  A    between atoms: C2*_11  and  O2*_21
REMARK    6  A    between atoms: C3*_13  and  O3*_20
REMARK    7  A    between atoms: C4*_15  and  C5*_18
REMARK    8  A    between atoms: C5*_18  and  O5*_19
REMARK                            x       y       z     vdW  Elec       q    Type
REMARK                         _______ _______ _______ _____ _____    ______ ____
ROOT
ATOM      1  N   UNL     1      -0.718   1.568   1.198  0.00  0.00    -0.317 N 
ATOM      2  H   UNL     1      -0.544   2.460   1.537  0.00  0.00    +0.149 HD
ENDROOT
BRANCH   1   9
ATOM      3  C   UNL     1      -2.188   2.655   3.378  0.00  0.00    +0.045 C 
ATOM      4  C   UNL     1      -2.399   1.242   2.899  0.00  0.00    -0.029 A 
ATOM      5  C   UNL     1      -3.333   0.434   3.518  0.00  0.00    +0.007 A 
ATOM      6  C   UNL     1      -3.523  -0.864   3.083  0.00  0.00    +0.033 A 
ATOM      7  C   UNL     1      -2.784  -1.357   2.023  0.00  0.00    +0.128 A 
ATOM      8  C   UNL     1      -1.853  -0.553   1.396  0.00  0.00    +0.056 A 
ATOM      9  C   UNL     1      -1.659   0.752   1.831  0.00  0.00    +0.034 A 
BRANCH   7  10
ATOM     10  N   UNL     1      -2.991  -2.748   1.561  0.00  0.00    +0.056 N 
ATOM     11  O   UNL     1      -2.340  -3.183   0.628  0.00  0.00    -0.126 OA
ATOM     12  O   UNL     1      -3.812  -3.458   2.114  0.00  0.00    -0.126 OA
ENDBRANCH   7  10
ENDBRANCH   1   9
BRANCH   1  13
ATOM     13  C1* UNL     1       0.007   1.076   0.024  0.00  0.00    +0.235 C 
ATOM     14  C2* UNL     1       1.431   1.665   0.002  0.00  0.00    +0.192 C 
ATOM     15  C3* UNL     1       1.474   2.504  -1.298  0.00  0.00    +0.178 C 
ATOM     16  C4* UNL     1      -0.031   2.748  -1.577  0.00  0.00    +0.177 C 
ATOM     17  O4* UNL     1      -0.653   1.508  -1.178  0.00  0.00    -0.348 OA
BRANCH  15  18
ATOM     18  O3* UNL     1       2.160   3.739  -1.085  0.00  0.00    -0.386 OA
ATOM     19  H3* UNL     1       3.084   3.635  -0.818  0.00  0.00    +0.210 HD
ENDBRANCH  15  18
BRANCH  14  20
ATOM     20  O2* UNL     1       1.645   2.498   1.143  0.00  0.00    -0.385 OA
ATOM     21  H2* UNL     1       1.571   2.034   1.988  0.00  0.00    +0.210 HD
ENDBRANCH  14  20
BRANCH  16  22
ATOM     22  C5* UNL     1      -0.266   3.014  -3.066  0.00  0.00    +0.190 C 
BRANCH  22  23
ATOM     23  O5* UNL     1      -1.639   3.350  -3.278  0.00  0.00    -0.392 OA
ATOM     24  H5* UNL     1      -1.861   3.532  -4.202  0.00  0.00    +0.210 HD
ENDBRANCH  22  23
ENDBRANCH  16  22
ENDBRANCH   1  13
TORSDOF 7
