REMARK  Name = ZINC36573578
REMARK  16 active torsions:
REMARK  status: ('A' for Active; 'I' for Inactive)
REMARK    1  A    between atoms: C_1  and  C_2
REMARK    2  A    between atoms: C_2  and  C_3
REMARK    3  A    between atoms: C_3  and  N_4
REMARK    4  A    between atoms: N_4  and  C_5
REMARK    5  A    between atoms: C_5  and  C_7
REMARK    6  A    between atoms: C_5  and  C_16
REMARK    7  A    between atoms: C_8  and  O_15
REMARK    8  A    between atoms: C_10  and  O_14
REMARK    9  A    between atoms: C_12  and  O_13
REMARK   10  A    between atoms: N_18  and  C_19
REMARK   11  A    between atoms: C_19  and  S_20
REMARK   12  A    between atoms: S_20  and  C_23
REMARK   13  A    between atoms: C_26  and  C_29
REMARK   14  A    between atoms: C_30  and  C_32
REMARK   15  A    between atoms: C_33  and  C_34
REMARK   16  A    between atoms: C_33  and  C_35
REMARK                            x       y       z     vdW  Elec       q    Type
REMARK                         _______ _______ _______ _____ _____    ______ ____
ROOT
ATOM      1  C   UNL     1      -1.541  -2.415   1.613  0.00  0.00    +0.199 C 
ENDROOT
BRANCH   1   2
ATOM      2  C   UNL     1      -0.270  -2.393   2.421  0.00  0.00    +0.065 A 
ATOM      3  C   UNL     1      -0.002  -3.416   3.319  0.00  0.00    +0.129 A 
ATOM      4  C   UNL     1       1.168  -3.396   4.063  0.00  0.00    +0.091 A 
ATOM      5  C   UNL     1       2.070  -2.354   3.909  0.00  0.00    +0.124 A 
ATOM      6  C   UNL     1       1.802  -1.332   3.011  0.00  0.00    +0.091 A 
ATOM      7  C   UNL     1       0.634  -1.354   2.264  0.00  0.00    +0.129 A 
BRANCH   7   8
ATOM      8  O   UNL     1       0.374  -0.355   1.381  0.00  0.00    -0.506 OA
ATOM      9  H   UNL     1      -0.190   0.346   1.735  0.00  0.00    +0.292 HD
ENDBRANCH   7   8
BRANCH   5  10
ATOM     10  O   UNL     1       3.216  -2.334   4.639  0.00  0.00    -0.507 OA
ATOM     11  H   UNL     1       3.962  -2.780   4.214  0.00  0.00    +0.292 HD
ENDBRANCH   5  10
BRANCH   3  12
ATOM     12  O   UNL     1      -0.885  -4.437   3.469  0.00  0.00    -0.506 OA
ATOM     13  H   UNL     1      -0.684  -5.215   2.931  0.00  0.00    +0.292 HD
ENDBRANCH   3  12
ENDBRANCH   1   2
BRANCH   1  14
ATOM     14  C   UNL     1      -2.678  -1.888   2.450  0.00  0.00    +0.240 C 
ATOM     15  O   UNL     1      -3.578  -1.266   1.927  0.00  0.00    -0.273 OA
ATOM     16  N   UNL     1      -2.694  -2.108   3.779  0.00  0.00    -0.294 N 
ATOM     17  H   UNL     1      -1.950  -2.560   4.205  0.00  0.00    +0.150 HD
BRANCH  16  18
ATOM     18  C   UNL     1      -3.837  -1.663   4.581  0.00  0.00    +0.278 C 
BRANCH  18  19
ATOM     19  S   UNL     1      -5.008  -3.034   4.777  0.00  0.00    +0.013 S 
ATOM     20  O   UNL     1      -6.092  -2.637   5.606  0.00  0.00    -0.168 OA
ATOM     21  O   UNL     1      -5.246  -3.658   3.523  0.00  0.00    -0.168 OA
BRANCH  19  22
ATOM     22  C   UNL     1      -4.138  -4.241   5.722  0.00  0.00    +0.090 A 
ATOM     23  C   UNL     1      -3.383  -5.206   5.082  0.00  0.00    +0.027 A 
ATOM     24  C   UNL     1      -2.700  -6.153   5.823  0.00  0.00    +0.005 A 
ATOM     25  C   UNL     1      -2.774  -6.134   7.204  0.00  0.00    -0.050 A 
ATOM     26  C   UNL     1      -3.529  -5.169   7.843  0.00  0.00    +0.005 A 
ATOM     27  C   UNL     1      -4.207  -4.220   7.102  0.00  0.00    +0.027 A 
ATOM     28  C   UNL     1      -2.031  -7.167   8.011  0.00  0.00    +0.044 C 
ENDBRANCH  19  22
ENDBRANCH  18  19
ENDBRANCH  16  18
ENDBRANCH   1  14
BRANCH   1  29
ATOM     29  N   UNL     1      -1.379  -1.574   0.424  0.00  0.00    -0.282 N 
ATOM     30  C   UNL     1      -1.649  -0.255   0.490  0.00  0.00    +0.240 C 
ATOM     31  O   UNL     1      -2.071   0.228   1.523  0.00  0.00    -0.271 OA
BRANCH  30  32
ATOM     32  C   UNL     1      -1.433   0.600  -0.687  0.00  0.00    +0.066 C 
ATOM     33  C   UNL     1      -1.700   1.901  -0.622  0.00  0.00    -0.071 C 
ATOM     34  C   UNL     1      -2.223   2.500   0.658  0.00  0.00    +0.039 C 
ATOM     35  C   UNL     1      -1.479   2.777  -1.829  0.00  0.00    +0.039 C 
ENDBRANCH  30  32
BRANCH  29  36
ATOM     36  C   UNL     1      -0.922  -2.166  -0.835  0.00  0.00    +0.109 C 
BRANCH  36  38
ATOM     37  C   UNL     1      -1.654  -3.013  -3.069  0.00  0.00    +0.005 C 
ATOM     38  C   UNL     1      -2.132  -2.509  -1.706  0.00  0.00    +0.016 C 
ENDBRANCH  36  38
ENDBRANCH  29  36
ENDBRANCH   1  29
TORSDOF 12
