REMARK  Name = ZINC09067921
REMARK  9 active torsions:
REMARK  status: ('A' for Active; 'I' for Inactive)
REMARK    1  A    between atoms: C_1  and  C_2
REMARK    2  A    between atoms: C_7  and  C_37
REMARK    3  A    between atoms: C_20  and  C_22
REMARK    4  A    between atoms: C_22  and  N_65
REMARK    5  A    between atoms: C_23  and  C_24
REMARK    6  A    between atoms: C_23  and  N_65
REMARK    7  A    between atoms: C_24  and  C_25
REMARK    8  A    between atoms: C_32  and  O_35
REMARK    9  A    between atoms: O_35  and  C_36
REMARK                            x       y       z     vdW  Elec       q    Type
REMARK                         _______ _______ _______ _____ _____    ______ ____
ROOT
ATOM      1  C   UNL     1       8.386   3.232  -2.239  0.00  0.00    -0.067 C 
ENDROOT
BRANCH   1  17
ATOM      2  C   UNL     1      13.922   0.506  -2.624  0.00  0.00    +0.010 C 
ATOM      3  C   UNL     1      13.773   1.001  -4.064  0.00  0.00    +0.021 C 
ATOM      4  C   UNL     1      14.494   0.040  -5.018  0.00  0.00    +0.006 C 
ATOM      5  C   UNL     1      13.833  -1.337  -4.966  0.00  0.00    +0.001 C 
ATOM      6  C   UNL     1      12.377  -1.244  -5.430  0.00  0.00    +0.010 C 
ATOM      7  C   UNL     1      11.605  -0.333  -4.473  0.00  0.00    +0.003 C 
ATOM      8  C   UNL     1      12.292   1.036  -4.447  0.00  0.00    +0.104 C 
ATOM      9  C   UNL     1      11.455   2.261  -4.149  0.00  0.00    +0.159 C 
ATOM     10  O   UNL     1      11.918   1.968  -5.469  0.00  0.00    -0.363 OA
ATOM     11  C   UNL     1       9.980   2.157  -3.887  0.00  0.00    +0.073 C 
ATOM     12  C   UNL     1       9.419   0.735  -3.962  0.00  0.00    +0.183 C 
ATOM     13  C   UNL     1      10.172  -0.128  -4.962  0.00  0.00    +0.054 C 
ATOM     14  O   UNL     1       9.526   0.189  -2.620  0.00  0.00    -0.461 OA
ATOM     15  C   UNL     1       9.688   1.161  -1.712  0.00  0.00    +0.309 C 
ATOM     16  O   UNL     1       9.789   0.987  -0.521  0.00  0.00    -0.251 OA
ATOM     17  C   UNL     1       9.725   2.510  -2.399  0.00  0.00    +0.090 C 
ATOM     18  C   UNL     1      11.590  -0.930  -3.065  0.00  0.00    +0.014 C 
ENDBRANCH   1  17
BRANCH   1  19
ATOM     19  N   UNL     1       8.184   3.568  -0.817  0.00  0.00    +0.380 N 
ATOM     20  H   UNL     1       8.948   4.176  -0.500  0.00  0.00    -0.086 HD
ATOM     21  H   UNL     1       8.182   2.704  -0.262  0.00  0.00    -0.086 HD
BRANCH  19  22
ATOM     22  C   UNL     1       6.897   4.266  -0.633  0.00  0.00    -0.078 C 
BRANCH  22  23
ATOM     23  C   UNL     1       6.716   4.600   0.849  0.00  0.00    +0.018 C 
BRANCH  23  24
ATOM     24  C   UNL     1       5.403   5.314   1.045  0.00  0.00    -0.024 A 
ATOM     25  C   UNL     1       5.216   6.643   1.089  0.00  0.00    +0.087 A 
ATOM     26  N   UNL     1       3.891   6.922   1.282  0.00  0.00    -0.360 N 
ATOM     27  H   UNL     1       3.512   7.812   1.347  0.00  0.00    +0.165 HD
ATOM     28  C   UNL     1       3.173   5.747   1.369  0.00  0.00    +0.047 A 
ATOM     29  C   UNL     1       4.090   4.690   1.225  0.00  0.00    +0.006 A 
ATOM     30  C   UNL     1       3.644   3.368   1.272  0.00  0.00    +0.056 A 
ATOM     31  C   UNL     1       2.301   3.107   1.460  0.00  0.00    +0.121 A 
ATOM     32  C   UNL     1       1.396   4.156   1.602  0.00  0.00    +0.047 A 
ATOM     33  C   UNL     1       1.825   5.464   1.557  0.00  0.00    +0.030 A 
BRANCH  31  34
ATOM     34  O   UNL     1       1.861   1.822   1.506  0.00  0.00    -0.495 OA
ATOM     35  C   UNL     1       0.460   1.622   1.703  0.00  0.00    +0.277 C 
ENDBRANCH  31  34
ENDBRANCH  23  24
ENDBRANCH  22  23
ENDBRANCH  19  22
ENDBRANCH   1  19
TORSDOF 6
