REMARK  Name = ZINC37629478
REMARK  6 active torsions:
REMARK  status: ('A' for Active; 'I' for Inactive)
REMARK    1  A    between atoms: C_2  and  N_12
REMARK    2  A    between atoms: C_6  and  N_7
REMARK    3  A    between atoms: C_13  and  C_15
REMARK    4  A    between atoms: C_15  and  C_17
REMARK    5  A    between atoms: C_15  and  N_21
REMARK    6  A    between atoms: C_17  and  C_18
REMARK                            x       y       z     vdW  Elec       q    Type
REMARK                         _______ _______ _______ _____ _____    ______ ____
ROOT
ATOM      1  N   UNL     1       1.159   3.488   0.009  0.00  0.00    -0.285 N 
ATOM      2  C   UNL     1      -0.013   4.148  -0.078  0.00  0.00    +0.203 C 
ATOM      3  O   UNL     1      -1.058   3.533  -0.072  0.00  0.00    -0.277 OA
ATOM      4  H   UNL     1       1.990   3.983   0.085  0.00  0.00    +0.155 HD
ENDROOT
BRANCH   1   6
ATOM      5  C   UNL     1       0.141   1.387  -0.611  0.00  0.00    +0.061 A 
ATOM      6  C   UNL     1       1.177   2.087  -0.009  0.00  0.00    +0.071 A 
ATOM      7  C   UNL     1       2.233   1.397   0.575  0.00  0.00    +0.147 A 
ATOM      8  C   UNL     1       2.248   0.014   0.554  0.00  0.00    +0.081 A 
ATOM      9  C   UNL     1       1.213  -0.681  -0.047  0.00  0.00    +0.156 A 
ATOM     10  C   UNL     1       0.161   0.005  -0.628  0.00  0.00    +0.163 A 
ATOM     11  F   UNL     1       1.230  -2.032  -0.067  0.00  0.00    -0.203 F 
ATOM     12  F   UNL     1       3.243   2.076   1.161  0.00  0.00    -0.203 F 
BRANCH  10  13
ATOM     13  N   UNL     1      -0.945  -0.742  -1.270  0.00  0.00    +0.059 N 
ATOM     14  O   UNL     1      -1.864  -0.143  -1.778  0.00  0.00    -0.126 OA
ATOM     15  O   UNL     1      -0.929  -1.950  -1.286  0.00  0.00    -0.126 OA
ENDBRANCH  10  13
ENDBRANCH   1   6
BRANCH   2  16
ATOM     16  C   UNL     1      -0.025   5.652  -0.184  0.00  0.00    +0.022 C 
BRANCH  16  17
ATOM     17  N   UNL     1      -1.346   6.160   0.209  0.00  0.00    +0.386 N 
ATOM     18  H   UNL     1      -1.541   5.888   1.161  0.00  0.00    -0.089 HD
ATOM     19  H   UNL     1      -1.354   7.166   0.138  0.00  0.00    -0.089 HD
ATOM     20  H   UNL     1      -2.050   5.774  -0.402  0.00  0.00    -0.089 HD
ENDBRANCH  16  17
BRANCH  16  21
ATOM     21  C   UNL     1       0.271   6.064  -1.627  0.00  0.00    +0.088 C 
BRANCH  21  22
ATOM     22  C   UNL     1       0.380   7.564  -1.709  0.00  0.00    +0.209 C 
ATOM     23  O   UNL     1       0.236   8.238  -0.711  0.00  0.00    -0.276 OA
ATOM     24  N   UNL     1       0.639   8.158  -2.891  0.00  0.00    -0.329 N 
ATOM     25  H   UNL     1       0.754   7.619  -3.689  0.00  0.00    +0.145 HD
ATOM     26  H   UNL     1       0.709   9.124  -2.944  0.00  0.00    +0.145 HD
ENDBRANCH  21  22
ENDBRANCH  16  21
ENDBRANCH   2  16
TORSDOF 6
