REMARK  Name = ZINC62100126
REMARK  3 active torsions:
REMARK  status: ('A' for Active; 'I' for Inactive)
REMARK    1  A    between atoms: C_2  and  N_20
REMARK    2  A    between atoms: C_6  and  S_7
REMARK    3  A    between atoms: S_7  and  N_10
REMARK                            x       y       z     vdW  Elec       q    Type
REMARK                         _______ _______ _______ _____ _____    ______ ____
ROOT
ATOM      1  S   UNL     1      -1.512  -0.905   0.012  0.00  0.00    +0.064 S 
ATOM      2  O   UNL     1      -1.394  -1.888   1.031  0.00  0.00    -0.153 OA
ATOM      3  O   UNL     1      -2.558   0.058  -0.000  0.00  0.00    -0.153 OA
ENDROOT
BRANCH   1   4
ATOM      4  N   UNL     1      -1.605  -1.722  -1.426  0.00  0.00    -0.175 NA
ATOM      5  C   UNL     1      -2.238  -1.065  -2.568  0.00  0.00    +0.119 C 
ATOM      6  C   UNL     1      -3.495  -1.843  -2.975  0.00  0.00    +0.113 C 
ATOM      7  C   UNL     1      -3.076  -3.037  -3.803  0.00  0.00    +0.214 C 
ATOM      8  O   UNL     1      -3.305  -3.054  -4.993  0.00  0.00    -0.276 OA
ATOM      9  N   UNL     1      -2.455  -4.073  -3.231  0.00  0.00    -0.314 N 
ATOM     10  C   UNL     1      -2.173  -4.075  -1.789  0.00  0.00    +0.121 C 
ATOM     11  C   UNL     1      -1.046  -3.069  -1.505  0.00  0.00    +0.128 C 
ATOM     12  H   UNL     1      -2.187  -4.832  -3.774  0.00  0.00    +0.149 HD
ENDBRANCH   1   4
BRANCH   1  18
ATOM     13  C   UNL     1      -0.017   1.377   0.010  0.00  0.00    +0.057 A 
ATOM     14  C   UNL     1       1.176   2.087   0.002  0.00  0.00    +0.062 A 
ATOM     15  C   UNL     1       2.388   1.406  -0.013  0.00  0.00    +0.147 A 
ATOM     16  C   UNL     1       2.401   0.023  -0.021  0.00  0.00    +0.080 A 
ATOM     17  C   UNL     1       1.209  -0.682  -0.014  0.00  0.00    +0.152 A 
ATOM     18  C   UNL     1       0.002  -0.004   0.002  0.00  0.00    +0.142 A 
ATOM     19  F   UNL     1       1.224  -2.033  -0.021  0.00  0.00    -0.203 F 
ATOM     20  F   UNL     1       3.551   2.093  -0.021  0.00  0.00    -0.203 F 
BRANCH  14  21
ATOM     21  N   UNL     1       1.159   3.487   0.009  0.00  0.00    -0.356 N 
ATOM     22  H   UNL     1       0.313   3.962   0.020  0.00  0.00    +0.142 HD
ATOM     23  H   UNL     1       1.993   3.982   0.004  0.00  0.00    +0.142 HD
ENDBRANCH  14  21
ENDBRANCH   1  18
TORSDOF 3
