REMARK  Name = ZINC66905211
REMARK  3 active torsions:
REMARK  status: ('A' for Active; 'I' for Inactive)
REMARK    1  A    between atoms: C_1  and  N_2
REMARK    2  A    between atoms: C_4  and  C_14
REMARK    3  A    between atoms: C_5  and  C_7
REMARK                            x       y       z     vdW  Elec       q    Type
REMARK                         _______ _______ _______ _____ _____    ______ ____
ROOT
ATOM      1  C   UNL     1       0.098  -3.349  -1.497  0.00  0.00    +0.212 C 
ATOM      2  N   UNL     1       0.548  -3.016  -2.860  0.00  0.00    -0.293 N 
ATOM      3  C   UNL     1      -0.345  -2.522  -3.772  0.00  0.00    +0.183 C 
ATOM      4  N   UNL     1      -1.625  -2.850  -3.728  0.00  0.00    -0.183 NA
ATOM      5  C   UNL     1      -2.053  -3.643  -2.719  0.00  0.00    +0.236 A 
ATOM      6  N   UNL     1      -1.249  -3.919  -1.622  0.00  0.00    -0.285 N 
ATOM      7  C   UNL     1      -1.947  -4.748  -0.796  0.00  0.00    +0.072 A 
ATOM      8  C   UNL     1      -1.642  -5.353   0.416  0.00  0.00    +0.028 A 
ATOM      9  C   UNL     1      -2.619  -6.153   0.988  0.00  0.00    +0.002 A 
ATOM     10  C   UNL     1      -3.851  -6.349   0.388  0.00  0.00    +0.002 A 
ATOM     11  C   UNL     1      -4.180  -5.759  -0.818  0.00  0.00    +0.030 A 
ATOM     12  C   UNL     1      -3.208  -4.947  -1.415  0.00  0.00    +0.091 A 
ATOM     13  N   UNL     1      -3.211  -4.242  -2.570  0.00  0.00    -0.210 NA
ATOM     14  N   UNL     1       0.095  -1.671  -4.749  0.00  0.00    -0.331 N 
ATOM     15  H   UNL     1       1.476  -3.147  -3.111  0.00  0.00    +0.151 HD
ATOM     16  H   UNL     1       1.032  -1.423  -4.790  0.00  0.00    +0.145 HD
ATOM     17  H   UNL     1      -0.530  -1.315  -5.400  0.00  0.00    +0.145 HD
ENDROOT
BRANCH   1  21
ATOM     18  C   UNL     1      -1.563   0.670   0.995  0.00  0.00    +0.172 C 
ATOM     19  N   UNL     1      -0.675  -0.352   0.435  0.00  0.00    -0.274 N 
ATOM     20  C   UNL     1      -1.052  -1.392  -0.338  0.00  0.00    +0.116 A 
ATOM     21  C   UNL     1       0.053  -2.103  -0.650  0.00  0.00    +0.039 A 
ATOM     22  C   UNL     1       1.157  -1.472  -0.043  0.00  0.00    +0.101 A 
ATOM     23  N   UNL     1       0.714  -0.415   0.604  0.00  0.00    -0.171 NA
BRANCH  22  24
ATOM     24  C   UNL     1       2.570  -1.918  -0.124  0.00  0.00    +0.021 A 
ATOM     25  C   UNL     1       2.924  -2.974  -0.961  0.00  0.00    +0.011 A 
ATOM     26  C   UNL     1       4.239  -3.384  -1.033  0.00  0.00    +0.001 A 
ATOM     27  C   UNL     1       5.207  -2.749  -0.276  0.00  0.00    +0.001 A 
ATOM     28  C   UNL     1       4.864  -1.700   0.557  0.00  0.00    +0.020 A 
ATOM     29  C   UNL     1       3.550  -1.277   0.632  0.00  0.00    +0.050 A 
ATOM     30 CL   UNL     1       3.121   0.045   1.672  0.00  0.00    -0.083 Cl
ENDBRANCH  22  24
ENDBRANCH   1  21
TORSDOF 2
