REMARK  Name = ZINC02126594
REMARK  7 active torsions:
REMARK  status: ('A' for Active; 'I' for Inactive)
REMARK    1  A    between atoms: C_3  and  O_12
REMARK    2  A    between atoms: O_12  and  C_13
REMARK    3  A    between atoms: C_15  and  O_28
REMARK    4  A    between atoms: C_17  and  O_27
REMARK    5  A    between atoms: C_19  and  O_26
REMARK    6  A    between atoms: C_21  and  C_24
REMARK    7  A    between atoms: C_24  and  O_25
REMARK                            x       y       z     vdW  Elec       q    Type
REMARK                         _______ _______ _______ _____ _____    ______ ____
ROOT
ATOM      1  C   UNL     1       3.529   3.055  -0.014  0.00  0.00    +0.339 C 
ATOM      2  C   UNL     1       4.747   3.974  -0.146  0.00  0.00    +0.214 C 
ATOM      3  C   UNL     1       4.815   4.897   1.074  0.00  0.00    +0.180 C 
ATOM      4  C   UNL     1       4.867   4.042   2.344  0.00  0.00    +0.177 C 
ATOM      5  C   UNL     1       3.644   3.121   2.380  0.00  0.00    +0.179 C 
ATOM      6  O   UNL     1       3.625   2.312   1.202  0.00  0.00    -0.331 OA
ENDROOT
BRANCH   4   7
ATOM      7  O   UNL     1       4.857   4.893   3.493  0.00  0.00    -0.386 OA
ATOM      8  H   UNL     1       5.602   5.508   3.533  0.00  0.00    +0.210 HD
ENDBRANCH   4   7
BRANCH   3   9
ATOM      9  O   UNL     1       3.656   5.732   1.107  0.00  0.00    -0.386 OA
ATOM     10  H   UNL     1       3.556   6.297   0.329  0.00  0.00    +0.210 HD
ENDBRANCH   3   9
BRANCH   2  11
ATOM     11  O   UNL     1       4.625   4.760  -1.333  0.00  0.00    -0.383 OA
ATOM     12  H   UNL     1       4.571   4.240  -2.146  0.00  0.00    +0.210 HD
ENDBRANCH   2  11
BRANCH   1  13
ATOM     13  O   UNL     1       2.337   3.843   0.001  0.00  0.00    -0.461 OA
BRANCH  13  16
ATOM     14  C   UNL     1      -0.013   1.076   0.008  0.00  0.00    +0.012 A 
ATOM     15  C   UNL     1       1.154   1.775   0.001  0.00  0.00    +0.046 A 
ATOM     16  C   UNL     1       1.155   3.173   0.008  0.00  0.00    +0.125 A 
ATOM     17  C   UNL     1      -0.017   3.874   0.023  0.00  0.00    +0.054 A 
ATOM     18  C   UNL     1      -1.240   3.183   0.031  0.00  0.00    -0.014 A 
ATOM     19  C   UNL     1      -1.238   1.765   0.018  0.00  0.00    -0.017 A 
ATOM     20  C   UNL     1      -2.461   1.074   0.031  0.00  0.00    +0.023 A 
ATOM     21  C   UNL     1      -3.630   1.774   0.046  0.00  0.00    +0.018 A 
ATOM     22  C   UNL     1      -3.632   3.168   0.054  0.00  0.00    +0.016 A 
ATOM     23  C   UNL     1      -2.466   3.870   0.047  0.00  0.00    +0.010 A 
ATOM     24 BR   UNL     1      -5.274   0.840   0.055  0.00  0.00    -0.050 Br
ENDBRANCH  13  16
ENDBRANCH   1  13
BRANCH   5  25
ATOM     25  C   UNL     1       3.720   2.221   3.616  0.00  0.00    +0.190 C 
BRANCH  25  26
ATOM     26  O   UNL     1       2.525   1.444   3.712  0.00  0.00    -0.392 OA
ATOM     27  H   UNL     1       2.503   0.849   4.474  0.00  0.00    +0.210 HD
ENDBRANCH  25  26
ENDBRANCH   5  25
TORSDOF 7
