REMARK  Name = ZINC35047442
REMARK  8 active torsions:
REMARK  status: ('A' for Active; 'I' for Inactive)
REMARK    1  A    between atoms: C_1  and  C_2
REMARK    2  A    between atoms: C_2  and  O_3
REMARK    3  A    between atoms: O_3  and  C_4
REMARK    4  A    between atoms: C_7  and  C_11
REMARK    5  A    between atoms: C_11  and  N_12
REMARK    6  A    between atoms: N_12  and  C_13
REMARK    7  A    between atoms: C_13  and  C_15
REMARK    8  A    between atoms: C_13  and  C_16
REMARK                            x       y       z     vdW  Elec       q    Type
REMARK                         _______ _______ _______ _____ _____    ______ ____
ROOT
ATOM      1  C   UNL     1       0.777  -1.810  -1.336  0.00  0.00    +0.148 A 
ATOM      2  C   UNL     1       1.874  -2.488  -0.824  0.00  0.00    +0.061 A 
ATOM      3  C   UNL     1       1.979  -3.857  -0.990  0.00  0.00    +0.020 A 
ATOM      4  C   UNL     1       0.992  -4.550  -1.667  0.00  0.00    -0.062 A 
ATOM      5  C   UNL     1      -0.102  -3.877  -2.179  0.00  0.00    +0.020 A 
ATOM      6  C   UNL     1      -0.215  -2.509  -2.010  0.00  0.00    +0.061 A 
ATOM      7 BR   UNL     1      -1.715  -1.591  -2.704  0.00  0.00    -0.046 Br
ATOM      8 BR   UNL     1       3.224  -1.541   0.101  0.00  0.00    -0.046 Br
ENDROOT
BRANCH   1   9
ATOM      9  O   UNL     1       0.671  -0.465  -1.174  0.00  0.00    -0.490 OA
BRANCH   9  11
ATOM     10  C   UNL     1      -0.019   1.526   0.010  0.00  0.00    +0.048 C 
ATOM     11  C   UNL     1       0.002  -0.004   0.002  0.00  0.00    +0.226 C 
ENDBRANCH   9  11
ENDBRANCH   1   9
BRANCH   4  12
ATOM     12  C   UNL     1       1.109  -6.041  -1.847  0.00  0.00    -0.046 C 
BRANCH  12  13
ATOM     13  N   UNL     1       0.469  -6.723  -0.714  0.00  0.00    +0.389 N 
ATOM     14  H   UNL     1       0.925  -6.451   0.144  0.00  0.00    -0.084 HD
ATOM     15  H   UNL     1      -0.505  -6.465  -0.673  0.00  0.00    -0.084 HD
BRANCH  13  16
ATOM     16  C   UNL     1       0.584  -8.177  -0.889  0.00  0.00    +0.013 C 
ATOM     17  C   UNL     1      -0.213  -8.606  -2.123  0.00  0.00    -0.004 C 
BRANCH  16  18
ATOM     18  C   UNL     1       0.037  -8.875   0.329  0.00  0.00    +0.196 C 
ATOM     19  O   UNL     1      -0.405  -8.225   1.253  0.00  0.00    -0.278 OA
ATOM     20  N   UNL     1       0.038 -10.221   0.393  0.00  0.00    -0.331 N 
ATOM     21  H   UNL     1       0.392 -10.741  -0.346  0.00  0.00    +0.145 HD
ATOM     22  H   UNL     1      -0.314 -10.670   1.177  0.00  0.00    +0.145 HD
ENDBRANCH  16  18
ENDBRANCH  13  16
ENDBRANCH  12  13
ENDBRANCH   4  12
TORSDOF 6
