REMARK  Name = ZINC13735288
REMARK  6 active torsions:
REMARK  status: ('A' for Active; 'I' for Inactive)
REMARK    1  A    between atoms: C_1  and  C_2
REMARK    2  A    between atoms: C_10  and  C_12
REMARK    3  A    between atoms: C_15  and  O_18
REMARK    4  A    between atoms: O_18  and  C_19
REMARK    5  A    between atoms: C_23  and  C_25
REMARK    6  A    between atoms: C_23  and  C_26
REMARK                            x       y       z     vdW  Elec       q    Type
REMARK                         _______ _______ _______ _____ _____    ______ ____
ROOT
ATOM      1  C   UNL     1      -0.018   1.503   0.010  0.00  0.00    +0.069 C 
ATOM      2  C   UNL     1       0.002  -0.004   0.002  0.00  0.00    +0.087 A 
ATOM      3  C   UNL     1       0.008  -0.816  -1.130  0.00  0.00    +0.049 A 
ATOM      4  C   UNL     1       0.026  -2.118  -0.716  0.00  0.00    +0.226 A 
ATOM      5  O   UNL     1       0.035  -2.127   0.616  0.00  0.00    -0.339 OA
ATOM      6  N   UNL     1       0.023  -0.778   1.057  0.00  0.00    -0.081 NA
ATOM      7  N   UNL     1       0.028  -3.163  -1.623  0.00  0.00    -0.286 N 
ATOM      8  C   UNL     1      -0.295  -2.898  -2.932  0.00  0.00    +0.019 C 
ATOM      9  C   UNL     1      -0.324  -1.644  -3.428  0.00  0.00    +0.024 C 
ATOM     10  C   UNL     1      -0.000  -0.431  -2.583  0.00  0.00    +0.091 C 
ATOM     11  C   UNL     1      -0.656  -1.407  -4.775  0.00  0.00    +0.162 C 
ATOM     12  O   UNL     1      -0.697  -0.263  -5.184  0.00  0.00    -0.292 OA
ATOM     13  C   UNL     1      -0.962  -2.536  -5.719  0.00  0.00    +0.086 C 
ATOM     14  C   UNL     1      -0.214  -3.790  -5.251  0.00  0.00    -0.023 C 
ATOM     15  C   UNL     1      -0.628  -4.084  -3.808  0.00  0.00    +0.058 C 
ATOM     16  C   UNL     1       1.294  -3.545  -5.316  0.00  0.00    +0.011 C 
ATOM     17  C   UNL     1      -0.585  -4.974  -6.146  0.00  0.00    +0.011 C 
ATOM     18  H   UNL     1       0.253  -4.063  -1.341  0.00  0.00    +0.155 HD
ENDROOT
BRANCH  10  19
ATOM     19  C   UNL     1       1.355   0.103  -2.968  0.00  0.00    -0.035 A 
ATOM     20  C   UNL     1       2.474  -0.701  -2.845  0.00  0.00    +0.008 A 
ATOM     21  C   UNL     1       3.717  -0.214  -3.198  0.00  0.00    +0.046 A 
ATOM     22  C   UNL     1       3.844   1.082  -3.675  0.00  0.00    +0.120 A 
ATOM     23  C   UNL     1       2.720   1.887  -3.797  0.00  0.00    +0.046 A 
ATOM     24  C   UNL     1       1.478   1.393  -3.449  0.00  0.00    +0.008 A 
BRANCH  22  25
ATOM     25  O   UNL     1       5.067   1.564  -4.022  0.00  0.00    -0.495 OA
ATOM     26  C   UNL     1       5.122   2.907  -4.505  0.00  0.00    +0.277 C 
ENDBRANCH  22  25
ENDBRANCH  10  19
TORSDOF 2
