REMARK  Name = ZINC08643459
REMARK  11 active torsions:
REMARK  status: ('A' for Active; 'I' for Inactive)
REMARK    1  A    between atoms: C_1  and  C_2
REMARK    2  A    between atoms: C_5  and  N_8
REMARK    3  A    between atoms: N_11  and  C_12
REMARK    4  A    between atoms: C_12  and  C_13
REMARK    5  A    between atoms: C_15  and  O_35
REMARK    6  A    between atoms: C_17  and  O_34
REMARK    7  A    between atoms: C_19  and  C_22
REMARK    8  A    between atoms: C_22  and  C_23
REMARK    9  A    between atoms: N_25  and  C_26
REMARK   10  A    between atoms: N_25  and  C_27
REMARK   11  A    between atoms: C_27  and  C_28
REMARK                            x       y       z     vdW  Elec       q    Type
REMARK                         _______ _______ _______ _____ _____    ______ ____
ROOT
ATOM      1  C   UNL     1       2.804   2.463   1.670  0.00  0.00    +0.167 C 
ATOM      2  C   UNL     1       2.089   1.165   1.248  0.00  0.00    +0.176 C 
ATOM      3  C   UNL     1       1.294   1.563  -0.019  0.00  0.00    +0.175 C 
ATOM      4  C   UNL     1       1.197   3.103   0.130  0.00  0.00    +0.159 C 
ATOM      5  O   UNL     1       2.474   3.468   0.696  0.00  0.00    -0.366 OA
ENDROOT
BRANCH   3   6
ATOM      6  O   UNL     1      -0.005   0.968  -0.014  0.00  0.00    -0.387 OA
ATOM      7  H   UNL     1       0.005   0.001  -0.015  0.00  0.00    +0.210 HD
ENDBRANCH   3   6
BRANCH   2   8
ATOM      8  O   UNL     1       1.202   0.725   2.278  0.00  0.00    -0.387 OA
ATOM      9  H   UNL     1       0.683  -0.057   2.043  0.00  0.00    +0.210 HD
ENDBRANCH   2   8
BRANCH   1  10
ATOM     10  C   UNL     1       4.317   2.239   1.695  0.00  0.00    +0.140 C 
BRANCH  10  14
ATOM     11  N   UNL     1       6.932   4.578   2.797  0.00  0.00    -0.269 N 
ATOM     12  C   UNL     1       6.323   3.473   2.322  0.00  0.00    +0.304 C 
ATOM     13  O   UNL     1       6.984   2.507   1.995  0.00  0.00    -0.253 OA
ATOM     14  N   UNL     1       4.980   3.440   2.210  0.00  0.00    -0.297 N 
ATOM     15  H   UNL     1       6.412   5.372   2.994  0.00  0.00    +0.156 HD
ATOM     16  H   UNL     1       4.452   4.211   2.471  0.00  0.00    +0.150 HD
BRANCH  11  21
ATOM     17  C   UNL     1      12.543   4.582   3.637  0.00  0.00    +0.044 C 
ATOM     18  C   UNL     1      11.053   4.581   3.414  0.00  0.00    -0.050 A 
ATOM     19  C   UNL     1      10.514   3.876   2.353  0.00  0.00    +0.005 A 
ATOM     20  C   UNL     1       9.149   3.873   2.146  0.00  0.00    +0.023 A 
ATOM     21  C   UNL     1       8.316   4.579   3.004  0.00  0.00    +0.035 A 
ATOM     22  C   UNL     1       8.860   5.290   4.066  0.00  0.00    +0.023 A 
ATOM     23  C   UNL     1      10.226   5.285   4.271  0.00  0.00    +0.005 A 
ENDBRANCH  11  21
ENDBRANCH  10  14
ENDBRANCH   1  10
BRANCH   4  24
ATOM     24  C   UNL     1       1.004   3.766  -1.235  0.00  0.00    +0.130 C 
BRANCH  24  25
ATOM     25  C   UNL     1       0.790   5.246  -1.050  0.00  0.00    +0.218 C 
ATOM     26  O   UNL     1       0.792   5.724   0.065  0.00  0.00    -0.276 OA
ATOM     27  N   UNL     1       0.598   6.038  -2.123  0.00  0.00    -0.300 N 
ATOM     28  C   UNL     1       0.595   5.461  -3.469  0.00  0.00    +0.132 C 
BRANCH  27  29
ATOM     29  C   UNL     1       0.390   7.477  -1.943  0.00  0.00    +0.142 C 
BRANCH  29  30
ATOM     30  C   UNL     1       1.720   8.185  -1.975  0.00  0.00    -0.030 A 
ATOM     31  C   UNL     1       2.428   8.380  -0.804  0.00  0.00    +0.005 A 
ATOM     32  C   UNL     1       3.650   9.026  -0.834  0.00  0.00    +0.000 A 
ATOM     33  C   UNL     1       4.160   9.483  -2.034  0.00  0.00    +0.000 A 
ATOM     34  C   UNL     1       3.450   9.292  -3.205  0.00  0.00    +0.000 A 
ATOM     35  C   UNL     1       2.230   8.643  -3.175  0.00  0.00    +0.005 A 
ENDBRANCH  29  30
ENDBRANCH  27  29
ENDBRANCH  24  25
ENDBRANCH   4  24
TORSDOF 9
