REMARK  Name = ZINC47872163
REMARK  10 active torsions:
REMARK  status: ('A' for Active; 'I' for Inactive)
REMARK    1  A    between atoms: C_1  and  C_2
REMARK    2  A    between atoms: C_7  and  N_12
REMARK    3  A    between atoms: C_9  and  C_11
REMARK    4  A    between atoms: N_12  and  C_13
REMARK    5  A    between atoms: C_13  and  N_15
REMARK    6  A    between atoms: N_15  and  N_16
REMARK    7  A    between atoms: C_17  and  C_19
REMARK    8  A    between atoms: C_22  and  O_28
REMARK    9  A    between atoms: C_23  and  N_25
REMARK   10  A    between atoms: O_28  and  C_29
REMARK                            x       y       z     vdW  Elec       q    Type
REMARK                         _______ _______ _______ _____ _____    ______ ____
ROOT
ATOM      1  N   UNL     1       2.778  -3.389   4.647  0.00  0.00    -0.231 N 
ATOM      2  C   UNL     1       3.430  -3.835   5.739  0.00  0.00    +0.260 C 
ATOM      3  O   UNL     1       3.957  -4.930   5.727  0.00  0.00    -0.269 OA
ATOM      4  H   UNL     1       2.357  -2.515   4.657  0.00  0.00    +0.173 HD
ENDROOT
BRANCH   2   5
ATOM      5  C   UNL     1       3.503  -2.994   6.950  0.00  0.00    +0.041 A 
ATOM      6  C   UNL     1       2.892  -1.738   6.969  0.00  0.00    +0.017 A 
ATOM      7  C   UNL     1       2.962  -0.956   8.100  0.00  0.00    +0.049 A 
ATOM      8  C   UNL     1       3.641  -1.416   9.223  0.00  0.00    +0.150 A 
ATOM      9  C   UNL     1       4.249  -2.665   9.209  0.00  0.00    +0.168 A 
ATOM     10  C   UNL     1       4.178  -3.455   8.083  0.00  0.00    +0.049 A 
BRANCH   9  11
ATOM     11  N   UNL     1       4.971  -3.150  10.408  0.00  0.00    +0.060 N 
ATOM     12  O   UNL     1       5.500  -4.237  10.396  0.00  0.00    -0.126 OA
ATOM     13  O   UNL     1       5.030  -2.459  11.398  0.00  0.00    -0.126 OA
ENDBRANCH   9  11
BRANCH   8  14
ATOM     14  O   UNL     1       3.709  -0.643  10.336  0.00  0.00    -0.493 OA
ATOM     15  C   UNL     1       3.061   0.630  10.283  0.00  0.00    +0.277 C 
ENDBRANCH   8  14
ENDBRANCH   2   5
BRANCH   1  16
ATOM     16  N   UNL     1       2.708  -4.187   3.498  0.00  0.00    -0.246 N 
ATOM     17  H   UNL     1       3.129  -5.060   3.488  0.00  0.00    +0.172 HD
BRANCH  16  18
ATOM     18  C   UNL     1       2.056  -3.740   2.406  0.00  0.00    +0.147 C 
ATOM     19  S   UNL     1       1.972  -4.715   1.002  0.00  0.00    -0.017 S 
BRANCH  18  20
ATOM     20  N   UNL     1       1.471  -2.526   2.420  0.00  0.00    -0.322 N 
ATOM     21  H   UNL     1       1.520  -1.974   3.216  0.00  0.00    +0.148 HD
BRANCH  20  27
ATOM     22  C   UNL     1      -0.019   1.526   0.010  0.00  0.00    +0.008 C 
ATOM     23  C   UNL     1       0.002  -0.004   0.002  0.00  0.00    -0.009 C 
ATOM     24  C   UNL     1      -1.433  -0.534   0.013  0.00  0.00    +0.003 C 
ATOM     25  C   UNL     1      -1.413  -2.063   0.004  0.00  0.00    +0.002 C 
ATOM     26  C   UNL     1      -0.673  -2.570   1.244  0.00  0.00    +0.022 C 
ATOM     27  C   UNL     1       0.763  -2.041   1.233  0.00  0.00    +0.075 C 
ATOM     28  C   UNL     1       0.742  -0.511   1.242  0.00  0.00    +0.009 C 
ATOM     29  C   UNL     1       0.026  -0.018   2.500  0.00  0.00    +0.009 C 
ENDBRANCH  20  27
ENDBRANCH  18  20
ENDBRANCH  16  18
ENDBRANCH   1  16
TORSDOF 7
