REMARK  Name = ZINC05006530
REMARK  6 active torsions:
REMARK  status: ('A' for Active; 'I' for Inactive)
REMARK    1  A    between atoms: C_2  and  C_3
REMARK    2  A    between atoms: C_3  and  O_4
REMARK    3  A    between atoms: O_4  and  C_5
REMARK    4  A    between atoms: C_8  and  C_11
REMARK    5  A    between atoms: N_18  and  C_21
REMARK    6  A    between atoms: C_24  and  O_27
REMARK                            x       y       z     vdW  Elec       q    Type
REMARK                         _______ _______ _______ _____ _____    ______ ____
ROOT
ATOM      1  C   UNL     1       2.412   4.069  -1.054  0.00  0.00    +0.026 C 
ATOM      2  C   UNL     1       1.263   3.330  -0.843  0.00  0.00    +0.100 C 
ATOM      3  C   UNL     1       1.294   1.856  -0.780  0.00  0.00    +0.257 C 
ATOM      4  O   UNL     1       2.339   1.247  -0.914  0.00  0.00    -0.270 OA
ATOM      5  N   UNL     1       0.133   1.202  -0.571  0.00  0.00    -0.235 N 
ATOM      6  C   UNL     1      -1.026   1.861  -0.428  0.00  0.00    +0.320 C 
ATOM      7  O   UNL     1      -2.037   1.211  -0.247  0.00  0.00    -0.251 OA
ATOM      8  N   UNL     1      -1.129   3.196  -0.467  0.00  0.00    -0.190 N 
ATOM      9  C   UNL     1      -0.051   3.981  -0.669  0.00  0.00    +0.263 C 
ATOM     10  O   UNL     1      -0.158   5.193  -0.708  0.00  0.00    -0.269 OA
ATOM     11  H   UNL     1       0.136   0.233  -0.527  0.00  0.00    +0.159 HD
ENDROOT
BRANCH   1  15
ATOM     12  C   UNL     1       6.199   2.219  -0.744  0.00  0.00    +0.121 A 
ATOM     13  C   UNL     1       5.948   3.116  -1.778  0.00  0.00    +0.046 A 
ATOM     14  C   UNL     1       4.727   3.717  -1.884  0.00  0.00    +0.011 A 
ATOM     15  C   UNL     1       3.722   3.428  -0.947  0.00  0.00    -0.024 A 
ATOM     16  C   UNL     1       3.983   2.527   0.097  0.00  0.00    +0.011 A 
ATOM     17  C   UNL     1       5.207   1.929   0.189  0.00  0.00    +0.046 A 
BRANCH  12  18
ATOM     18  O   UNL     1       7.414   1.625  -0.644  0.00  0.00    -0.488 OA
BRANCH  18  19
ATOM     19  C   UNL     1       7.604   0.715   0.441  0.00  0.00    +0.256 C 
BRANCH  19  21
ATOM     20  C   UNL     1       9.719   0.082   1.484  0.00  0.00    +0.007 C 
ATOM     21  C   UNL     1       9.003   0.158   0.389  0.00  0.00    +0.006 C 
ENDBRANCH  19  21
ENDBRANCH  18  19
ENDBRANCH  12  18
ENDBRANCH   1  15
BRANCH   8  22
ATOM     22  C   UNL     1      -2.388   3.792  -0.299  0.00  0.00    +0.046 A 
ATOM     23  C   UNL     1      -3.255   3.899  -1.379  0.00  0.00    +0.027 A 
ATOM     24  C   UNL     1      -4.496   4.480  -1.212  0.00  0.00    +0.047 A 
ATOM     25  C   UNL     1      -4.873   4.966   0.031  0.00  0.00    +0.117 A 
ATOM     26  C   UNL     1      -4.005   4.865   1.109  0.00  0.00    +0.047 A 
ATOM     27  C   UNL     1      -2.766   4.279   0.944  0.00  0.00    +0.027 A 
BRANCH  25  28
ATOM     28  O   UNL     1      -6.094   5.542   0.194  0.00  0.00    -0.507 OA
ATOM     29  H   UNL     1      -6.102   6.497   0.037  0.00  0.00    +0.292 HD
ENDBRANCH  25  28
ENDBRANCH   8  22
TORSDOF 6
