REMARK  Name = ZINC65580479
REMARK  7 active torsions:
REMARK  status: ('A' for Active; 'I' for Inactive)
REMARK    1  A    between atoms: C_1  and  C_2
REMARK    2  A    between atoms: C_2  and  C_3
REMARK    3  A    between atoms: C_3  and  C_4
REMARK    4  A    between atoms: C_4  and  C_5
REMARK    5  A    between atoms: C_5  and  C_6
REMARK    6  A    between atoms: C_5  and  N_22
REMARK    7  A    between atoms: N_8  and  C_9
REMARK                            x       y       z     vdW  Elec       q    Type
REMARK                         _______ _______ _______ _____ _____    ______ ____
ROOT
ATOM      1  C   UNL     1      -2.661  -4.108   0.111  0.00  0.00    +0.238 C 
ATOM      2  O   UNL     1      -2.656  -4.804  -0.882  0.00  0.00    -0.273 OA
ATOM      3  N   UNL     1      -2.640  -4.676   1.332  0.00  0.00    -0.284 N 
ATOM      4  H   UNL     1      -2.567  -4.122   2.125  0.00  0.00    +0.155 HD
ENDROOT
BRANCH   3   5
ATOM      5  C   UNL     1      -2.726  -6.069   1.458  0.00  0.00    +0.037 A 
ATOM      6  C   UNL     1      -2.062  -6.715   2.493  0.00  0.00    +0.027 A 
ATOM      7  C   UNL     1      -2.145  -8.089   2.619  0.00  0.00    +0.051 A 
ATOM      8  C   UNL     1      -2.892  -8.824   1.714  0.00  0.00    +0.167 A 
ATOM      9  C   UNL     1      -3.561  -8.178   0.675  0.00  0.00    +0.169 A 
ATOM     10  C   UNL     1      -3.480  -6.803   0.551  0.00  0.00    +0.073 A 
ATOM     11  O   UNL     1      -4.220  -9.124  -0.066  0.00  0.00    -0.447 OA
ATOM     12  C   UNL     1      -3.534 -10.345   0.246  0.00  0.00    +0.254 C 
ATOM     13  O   UNL     1      -3.136 -10.169   1.613  0.00  0.00    -0.448 OA
ATOM     14  C   UNL     1      -2.320 -10.551  -0.666  0.00  0.00    +0.093 C 
ATOM     15  C   UNL     1      -2.265 -12.087  -0.874  0.00  0.00    +0.008 C 
ATOM     16  C   UNL     1      -3.762 -12.480  -0.951  0.00  0.00    +0.008 C 
ATOM     17  C   UNL     1      -4.450 -11.558   0.081  0.00  0.00    +0.093 C 
ENDBRANCH   3   5
BRANCH   1  18
ATOM     18  C   UNL     1      -2.688  -2.607  -0.021  0.00  0.00    +0.161 C 
BRANCH  18  19
ATOM     19  N   UNL     1      -3.178  -2.242  -1.353  0.00  0.00    -0.288 N 
ATOM     20  C   UNL     1      -2.514  -2.654  -2.451  0.00  0.00    +0.298 C 
ATOM     21  O   UNL     1      -1.508  -3.327  -2.336  0.00  0.00    -0.253 OA
ATOM     22  N   UNL     1      -2.964  -2.318  -3.676  0.00  0.00    -0.313 N 
ATOM     23  H   UNL     1      -3.981  -1.705  -1.444  0.00  0.00    +0.151 HD
ATOM     24  H   UNL     1      -3.767  -1.781  -3.768  0.00  0.00    +0.146 HD
ATOM     25  H   UNL     1      -2.486  -2.614  -4.467  0.00  0.00    +0.146 HD
ENDBRANCH  18  19
BRANCH  18  26
ATOM     26  C   UNL     1      -1.276  -2.052   0.172  0.00  0.00    +0.032 C 
BRANCH  26  27
ATOM     27  C   UNL     1      -1.323  -0.522   0.163  0.00  0.00    +0.002 C 
BRANCH  27  29
ATOM     28  C   UNL     1       0.043   1.562   0.346  0.00  0.00    +0.004 C 
ATOM     29  C   UNL     1       0.090   0.033   0.356  0.00  0.00    -0.003 C 
ENDBRANCH  27  29
ENDBRANCH  26  27
ENDBRANCH  18  26
ENDBRANCH   1  18
TORSDOF 6
