REMARK  Name = ZINC09007642
REMARK  8 active torsions:
REMARK  status: ('A' for Active; 'I' for Inactive)
REMARK    1  A    between atoms: C_1  and  C_2
REMARK    2  A    between atoms: C_2  and  O_3
REMARK    3  A    between atoms: O_3  and  C_4
REMARK    4  A    between atoms: C_14  and  C_29
REMARK    5  A    between atoms: C_16  and  C_21
REMARK    6  A    between atoms: C_21  and  C_23
REMARK    7  A    between atoms: C_26  and  C_28
REMARK    8  A    between atoms: C_32  and  N_35
REMARK                            x       y       z     vdW  Elec       q    Type
REMARK                         _______ _______ _______ _____ _____    ______ ____
ROOT
ATOM      1  C   UNL     1      -1.257   3.195  -0.145  0.00  0.00    +0.122 A 
ATOM      2  C   UNL     1      -1.203   1.805  -0.093  0.00  0.00    +0.048 A 
ATOM      3  C   UNL     1      -0.018   1.139  -0.060  0.00  0.00    +0.032 A 
ATOM      4  C   UNL     1       1.210   1.839  -0.088  0.00  0.00    +0.081 A 
ATOM      5  C   UNL     1       1.125   3.249  -0.144  0.00  0.00    +0.044 A 
ATOM      6  C   UNL     1      -0.074   3.918  -0.172  0.00  0.00    +0.063 A 
ATOM      7  S   UNL     1       2.835   3.731  -0.162  0.00  0.00    -0.052 S 
ATOM      8  C   UNL     1       3.533   2.087  -0.096  0.00  0.00    +0.169 A 
ATOM      9  N   UNL     1       2.462   1.329  -0.066  0.00  0.00    -0.224 NA
ATOM     10  N   UNL     1       4.864   1.709  -0.080  0.00  0.00    -0.232 N 
ATOM     11  C   UNL     1       5.371   0.333  -0.025  0.00  0.00    +0.152 C 
ATOM     12  C   UNL     1       6.878   0.440  -0.029  0.00  0.00    +0.080 C 
ATOM     13  C   UNL     1       7.176   1.759  -0.082  0.00  0.00    +0.250 C 
ATOM     14  C   UNL     1       5.923   2.538  -0.118  0.00  0.00    +0.293 C 
ATOM     15  O   UNL     1       5.858   3.751  -0.173  0.00  0.00    -0.266 OA
ATOM     16  O   UNL     1       8.425   2.281  -0.103  0.00  0.00    -0.282 OA
ENDROOT
BRANCH  11  17
ATOM     17  C   UNL     1       4.903  -0.341   1.239  0.00  0.00    -0.022 A 
ATOM     18  C   UNL     1       4.992   0.321   2.450  0.00  0.00    +0.008 A 
ATOM     19  C   UNL     1       4.557  -0.296   3.608  0.00  0.00    +0.033 A 
ATOM     20  C   UNL     1       4.044  -1.578   3.558  0.00  0.00    +0.126 A 
ATOM     21  C   UNL     1       3.961  -2.242   2.349  0.00  0.00    +0.033 A 
ATOM     22  C   UNL     1       4.390  -1.624   1.189  0.00  0.00    +0.008 A 
BRANCH  20  23
ATOM     23  N   UNL     1       3.584  -2.240   4.799  0.00  0.00    +0.056 N 
ATOM     24  O   UNL     1       3.131  -3.370   4.755  0.00  0.00    -0.126 OA
ATOM     25  O   UNL     1       3.658  -1.655   5.865  0.00  0.00    -0.126 OA
ENDBRANCH  20  23
ENDBRANCH  11  17
BRANCH  12  26
ATOM     26  C   UNL     1       7.835  -0.672   0.016  0.00  0.00    +0.230 C 
ATOM     27  O   UNL     1       8.562  -0.811   0.984  0.00  0.00    -0.283 OA
BRANCH  26  28
ATOM     28  C   UNL     1       7.915  -1.615  -1.103  0.00  0.00    +0.175 A 
ATOM     29  C   UNL     1       8.694  -2.752  -1.152  0.00  0.00    +0.053 A 
ATOM     30  C   UNL     1       8.455  -3.345  -2.400  0.00  0.00    +0.045 A 
ATOM     31  C   UNL     1       7.567  -2.561  -3.053  0.00  0.00    +0.103 A 
ATOM     32  O   UNL     1       7.245  -1.523  -2.270  0.00  0.00    -0.457 OA
ATOM     33  C   UNL     1       7.027  -2.814  -4.436  0.00  0.00    +0.086 C 
ENDBRANCH  26  28
ENDBRANCH  12  26
BRANCH   1  34
ATOM     34  O   UNL     1      -2.456   3.836  -0.172  0.00  0.00    -0.492 OA
BRANCH  34  36
ATOM     35  C   UNL     1      -4.872   3.913  -0.179  0.00  0.00    +0.048 C 
ATOM     36  C   UNL     1      -3.629   3.021  -0.141  0.00  0.00    +0.225 C 
ENDBRANCH  34  36
ENDBRANCH   1  34
TORSDOF 6
