REMARK  Name = ZINC45875282
REMARK  4 active torsions:
REMARK  status: ('A' for Active; 'I' for Inactive)
REMARK    1  A    between atoms: C_6  and  N_7
REMARK    2  A    between atoms: N_7  and  N_8
REMARK    3  A    between atoms: N_11  and  C_12
REMARK    4  A    between atoms: C_12  and  C_13
REMARK                            x       y       z     vdW  Elec       q    Type
REMARK                         _______ _______ _______ _____ _____    ______ ____
ROOT
ATOM      1  N   UNL     1      -1.204  -2.123   0.581  0.00  0.00    -0.220 N 
ATOM      2  C   UNL     1      -2.342  -2.803   0.336  0.00  0.00    +0.316 C 
ATOM      3  O   UNL     1      -2.304  -4.004   0.146  0.00  0.00    -0.251 OA
ATOM      4  N   UNL     1      -3.521  -2.152   0.301  0.00  0.00    -0.294 N 
ATOM      5  H   UNL     1      -0.355  -2.592   0.606  0.00  0.00    +0.174 HD
ATOM      6  H   UNL     1      -3.551  -1.195   0.453  0.00  0.00    +0.151 HD
ENDROOT
BRANCH   1   7
ATOM      7  N   UNL     1      -1.247  -0.740   0.799  0.00  0.00    -0.263 N 
ATOM      8  H   UNL     1      -2.096  -0.272   0.774  0.00  0.00    +0.170 HD
BRANCH   7  14
ATOM      9  C   UNL     1      -0.109   1.336   1.270  0.00  0.00    +0.027 A 
ATOM     10  C   UNL     1       1.059   2.030   1.521  0.00  0.00    +0.040 A 
ATOM     11  C   UNL     1       2.270   1.360   1.556  0.00  0.00    +0.124 A 
ATOM     12  C   UNL     1       2.314  -0.006   1.340  0.00  0.00    +0.040 A 
ATOM     13  C   UNL     1       1.149  -0.705   1.088  0.00  0.00    +0.027 A 
ATOM     14  C   UNL     1      -0.067  -0.035   1.053  0.00  0.00    +0.045 A 
ATOM     15  F   UNL     1       3.410   2.042   1.802  0.00  0.00    -0.205 F 
ENDBRANCH   7  14
ENDBRANCH   1   7
BRANCH   4  16
ATOM     16  C   UNL     1      -4.758  -2.891   0.035  0.00  0.00    +0.142 C 
BRANCH  16  17
ATOM     17  C   UNL     1      -5.926  -1.938   0.051  0.00  0.00    -0.014 A 
ATOM     18  C   UNL     1      -6.605  -1.680   1.235  0.00  0.00    +0.010 A 
ATOM     19  C   UNL     1      -7.670  -0.800   1.206  0.00  0.00    +0.042 A 
ATOM     20  C   UNL     1      -8.024  -0.205  -0.002  0.00  0.00    +0.099 A 
ATOM     21  N   UNL     1      -7.352  -0.477  -1.109  0.00  0.00    -0.349 N 
ATOM     22  C   UNL     1      -6.327  -1.309  -1.110  0.00  0.00    +0.089 A 
ATOM     23  N   UNL     1      -9.094   0.682  -0.045  0.00  0.00    -0.317 N 
ATOM     24  C   UNL     1      -9.719   1.075   1.198  0.00  0.00    +0.106 C 
ATOM     25  C   UNL     1     -10.858   0.084   1.543  0.00  0.00    +0.019 C 
ATOM     26  C   UNL     1     -11.993   0.271   0.627  0.00  0.00    +0.002 C 
ATOM     27  C   UNL     1     -11.673  -0.017  -0.837  0.00  0.00    +0.002 C 
ATOM     28  C   UNL     1     -11.079   1.216  -1.471  0.00  0.00    +0.019 C 
ATOM     29  C   UNL     1      -9.541   1.187  -1.358  0.00  0.00    +0.106 C 
ATOM     30  H   UNL     1      -7.616  -0.051  -1.940  0.00  0.00    +0.167 HD
ENDBRANCH  16  17
ENDBRANCH   4  16
TORSDOF 4
