REMARK  Name = ZINC42946038
REMARK  5 active torsions:
REMARK  status: ('A' for Active; 'I' for Inactive)
REMARK    1  A    between atoms: C_3  and  C_4
REMARK    2  A    between atoms: C_4  and  C_5
REMARK    3  A    between atoms: C_4  and  N_8
REMARK    4  A    between atoms: C_9  and  C_11
REMARK    5  A    between atoms: C_11  and  C_12
REMARK                            x       y       z     vdW  Elec       q    Type
REMARK                         _______ _______ _______ _____ _____    ______ ____
ROOT
ATOM      1  N   UNL     1      -1.784  -0.339  -1.635  0.00  0.00    -0.312 N 
ATOM      2  C   UNL     1      -2.198  -0.397  -2.916  0.00  0.00    +0.216 C 
ATOM      3  O   UNL     1      -1.433  -0.756  -3.785  0.00  0.00    -0.276 OA
ATOM      4  H   UNL     1      -2.396  -0.051  -0.940  0.00  0.00    +0.149 HD
ENDROOT
BRANCH   1   5
ATOM      5  C   UNL     1      -0.408  -0.709  -1.292  0.00  0.00    +0.079 C 
BRANCH   5   8
ATOM      6  C   UNL     1      -0.019   1.526   0.010  0.00  0.00    +0.006 C 
ATOM      7  C   UNL     1       1.317   0.779  -0.006  0.00  0.00    +0.006 C 
ATOM      8  C   UNL     1       0.002  -0.004   0.002  0.00  0.00    +0.010 C 
ENDBRANCH   5   8
BRANCH   5   9
ATOM      9  C   UNL     1      -0.322  -2.224  -1.097  0.00  0.00    +0.010 C 
ATOM     10  C   UNL     1       0.769  -2.974  -1.865  0.00  0.00    +0.006 C 
ATOM     11  C   UNL     1      -0.695  -3.112  -2.286  0.00  0.00    +0.006 C 
ENDBRANCH   5   9
ENDBRANCH   1   5
BRANCH   2  12
ATOM     12  C   UNL     1      -3.613  -0.016  -3.269  0.00  0.00    +0.127 C 
BRANCH  12  13
ATOM     13  C   UNL     1      -3.822  -0.170  -4.777  0.00  0.00    +0.169 C 
ATOM     14  C   UNL     1      -5.249   0.173  -5.155  0.00  0.00    +0.241 C 
ATOM     15  O   UNL     1      -6.260  -0.383  -4.781  0.00  0.00    -0.273 OA
ATOM     16  N   UNL     1      -5.162   1.224  -5.993  0.00  0.00    -0.239 N 
ATOM     17  C   UNL     1      -3.890   1.590  -6.195  0.00  0.00    +0.307 C 
ATOM     18  O   UNL     1      -3.559   2.513  -6.912  0.00  0.00    -0.252 OA
ATOM     19  N   UNL     1      -3.018   0.819  -5.515  0.00  0.00    -0.287 N 
ATOM     20  H   UNL     1      -5.926   1.662  -6.400  0.00  0.00    +0.159 HD
ATOM     21  H   UNL     1      -2.051   0.899  -5.511  0.00  0.00    +0.151 HD
ENDBRANCH  12  13
ENDBRANCH   2  12
TORSDOF 5
