REMARK  Name = ZINC05496482
REMARK  7 active torsions:
REMARK  status: ('A' for Active; 'I' for Inactive)
REMARK    1  A    between atoms: C_3  and  C_6
REMARK    2  A    between atoms: C_6  and  N_7
REMARK    3  A    between atoms: N_11  and  C1*_15
REMARK    4  A    between atoms: C2*_17  and  O2*_27
REMARK    5  A    between atoms: C3*_19  and  O3*_26
REMARK    6  A    between atoms: C4*_21  and  C5*_24
REMARK    7  A    between atoms: C5*_24  and  O5*_25
REMARK                            x       y       z     vdW  Elec       q    Type
REMARK                         _______ _______ _______ _____ _____    ______ ____
ROOT
ATOM      1  N   UNL     1       1.771   3.732  -1.376  0.00  0.00    -0.322 N 
ATOM      2  C   UNL     1       2.128   5.037  -1.624  0.00  0.00    +0.126 A 
ATOM      3  C   UNL     1       2.180   5.519  -2.948  0.00  0.00    +0.061 A 
ATOM      4  C   UNL     1       2.530   6.809  -3.163  0.00  0.00    +0.096 A 
ATOM      5  N   UNL     1       2.833   7.604  -2.099  0.00  0.00    -0.270 N 
ATOM      6  C   UNL     1       2.779   7.113  -0.847  0.00  0.00    +0.352 A 
ATOM      7  O   UNL     1       3.054   7.839   0.094  0.00  0.00    -0.244 OA
ATOM      8  N   UNL     1       2.431   5.848  -0.619  0.00  0.00    -0.178 NA
ATOM      9  H   UNL     1       2.431   3.197  -1.902  0.00  0.00    +0.148 HD
ENDROOT
BRANCH   5  10
ATOM     10  C1* UNL     1       3.219   9.000  -2.318  0.00  0.00    +0.255 C 
ATOM     11  C2* UNL     1       4.727   9.191  -2.043  0.00  0.00    +0.195 C 
ATOM     12  C3* UNL     1       5.383   9.052  -3.436  0.00  0.00    +0.178 C 
ATOM     13  C4* UNL     1       4.193   8.795  -4.387  0.00  0.00    +0.177 C 
ATOM     14  O4* UNL     1       3.049   9.356  -3.708  0.00  0.00    -0.346 OA
BRANCH  12  15
ATOM     15  O3* UNL     1       6.058  10.260  -3.793  0.00  0.00    -0.386 OA
ATOM     16  H3* UNL     1       6.488  10.229  -4.659  0.00  0.00    +0.210 HD
ENDBRANCH  12  15
BRANCH  11  17
ATOM     17  O2* UNL     1       5.207   8.175  -1.161  0.00  0.00    -0.385 OA
ATOM     18  H2* UNL     1       6.149   8.246  -0.954  0.00  0.00    +0.210 HD
ENDBRANCH  11  17
BRANCH  13  19
ATOM     19  C5* UNL     1       4.420   9.500  -5.726  0.00  0.00    +0.190 C 
BRANCH  19  20
ATOM     20  O5* UNL     1       3.368   9.155  -6.629  0.00  0.00    -0.392 OA
ATOM     21  H5* UNL     1       3.447   9.567  -7.501  0.00  0.00    +0.210 HD
ENDBRANCH  19  20
ENDBRANCH  13  19
ENDBRANCH   5  10
BRANCH   1  22
ATOM     22  C   UNL     1       1.724   3.234   0.001  0.00  0.00    +0.177 C 
BRANCH  22  25
ATOM     23  C   UNL     1       1.328  -0.430  -0.050  0.00  0.00    +0.041 A 
ATOM     24  C   UNL     1       2.137   0.729  -0.077  0.00  0.00    +0.046 A 
ATOM     25  C   UNL     1       1.308   1.786  -0.003  0.00  0.00    +0.122 A 
ATOM     26  O   UNL     1       0.046   1.331   0.068  0.00  0.00    -0.466 OA
ATOM     27  C   UNL     1       0.052  -0.012   0.040  0.00  0.00    +0.195 A 
ENDBRANCH  22  25
ENDBRANCH   1  22
TORSDOF 7
