REMARK  Name = ZINC27904833
REMARK  6 active torsions:
REMARK  status: ('A' for Active; 'I' for Inactive)
REMARK    1  A    between atoms: C_1  and  C_2
REMARK    2  A    between atoms: C_2  and  C_4
REMARK    3  A    between atoms: C_2  and  N_10
REMARK    4  A    between atoms: N_13  and  C_16
REMARK    5  A    between atoms: C_16  and  C_17
REMARK    6  A    between atoms: C_20  and  C_22
REMARK                            x       y       z     vdW  Elec       q    Type
REMARK                         _______ _______ _______ _____ _____    ______ ____
ROOT
ATOM      1  N   UNL     1       1.041  -0.553  -0.880  0.00  0.00    -0.295 NA
ATOM      2  C   UNL     1       1.016  -2.022  -0.873  0.00  0.00    +0.066 C 
ATOM      3  C   UNL     1       2.148  -2.553  -1.755  0.00  0.00    -0.063 C 
ATOM      4  N   UNL     1       1.978  -2.051  -3.124  0.00  0.00    +0.384 N 
ATOM      5  C   UNL     1       2.030  -0.583  -3.119  0.00  0.00    -0.063 C 
ATOM      6  C   UNL     1       0.897  -0.035  -2.248  0.00  0.00    +0.066 C 
ATOM      7  H   UNL     1       1.086  -2.354  -3.486  0.00  0.00    -0.081 HD
ENDROOT
BRANCH   1   9
ATOM      8  C   UNL     1      -1.363  -0.132  -0.677  0.00  0.00    +0.034 C 
ATOM      9  C   UNL     1       0.002  -0.004   0.002  0.00  0.00    +0.140 C 
BRANCH   9  10
ATOM     10  C   UNL     1       0.293   1.449   0.277  0.00  0.00    +0.237 C 
ATOM     11  O   UNL     1       1.093   2.047  -0.410  0.00  0.00    -0.274 OA
ATOM     12  N   UNL     1      -0.337   2.083   1.286  0.00  0.00    -0.239 N 
ATOM     13  C   UNL     1      -0.077   3.382   1.532  0.00  0.00    +0.303 C 
ATOM     14  O   UNL     1       0.725   3.982   0.843  0.00  0.00    -0.253 OA
ATOM     15  N   UNL     1      -0.707   4.016   2.541  0.00  0.00    -0.313 N 
ATOM     16  H   UNL     1      -0.977   1.604   1.835  0.00  0.00    +0.159 HD
ATOM     17  H   UNL     1      -1.347   3.538   3.090  0.00  0.00    +0.146 HD
ATOM     18  H   UNL     1      -0.519   4.952   2.717  0.00  0.00    +0.146 HD
ENDBRANCH   9  10
ENDBRANCH   1   9
BRANCH   4  19
ATOM     19  C   UNL     1       3.055  -2.575  -3.975  0.00  0.00    -0.036 C 
BRANCH  19  20
ATOM     20  C   UNL     1       2.813  -2.161  -5.404  0.00  0.00    -0.026 A 
ATOM     21  C   UNL     1       3.238  -1.047  -6.053  0.00  0.00    +0.010 A 
ATOM     22  C   UNL     1       2.896  -0.870  -7.376  0.00  0.00    +0.016 A 
ATOM     23  C   UNL     1       2.136  -1.827  -7.994  0.00  0.00    +0.022 A 
ATOM     24  S   UNL     1       1.901  -3.013  -6.680  0.00  0.00    -0.095 S 
BRANCH  23  25
ATOM     25  C   UNL     1       1.644  -1.869  -9.387  0.00  0.00    +0.024 A 
ATOM     26  C   UNL     1       0.992  -0.763  -9.934  0.00  0.00    +0.012 A 
ATOM     27  C   UNL     1       0.534  -0.809 -11.235  0.00  0.00    +0.001 A 
ATOM     28  C   UNL     1       0.721  -1.948 -11.998  0.00  0.00    +0.003 A 
ATOM     29  C   UNL     1       1.366  -3.049 -11.464  0.00  0.00    +0.039 A 
ATOM     30  C   UNL     1       1.835  -3.015 -10.164  0.00  0.00    +0.132 A 
ATOM     31  F   UNL     1       2.470  -4.088  -9.645  0.00  0.00    -0.205 F 
ENDBRANCH  23  25
ENDBRANCH  19  20
ENDBRANCH   4  19
TORSDOF 5
