REMARK  Name = ZINC39607039
REMARK  9 active torsions:
REMARK  status: ('A' for Active; 'I' for Inactive)
REMARK    1  A    between atoms: C_1  and  C_2
REMARK    2  A    between atoms: C_2  and  O_3
REMARK    3  A    between atoms: O_3  and  C_4
REMARK    4  A    between atoms: C_9  and  C_10
REMARK    5  A    between atoms: C_14  and  C_23
REMARK    6  A    between atoms: N_25  and  C_26
REMARK    7  A    between atoms: C_26  and  C_27
REMARK    8  A    between atoms: C_30  and  C_34
REMARK    9  A    between atoms: C_32  and  C_33
REMARK                            x       y       z     vdW  Elec       q    Type
REMARK                         _______ _______ _______ _____ _____    ______ ____
ROOT
ATOM      1  C   UNL     1       2.216  -1.214   3.525  0.00  0.00    +0.250 C 
ATOM      2  O   UNL     1       2.274  -0.003   3.433  0.00  0.00    -0.270 OA
ATOM      3  N   UNL     1       2.711  -1.831   4.617  0.00  0.00    -0.296 N 
ATOM      4  C   UNL     1       2.828  -3.288   4.861  0.00  0.00    +0.121 C 
ATOM      5  C   UNL     1       4.189  -3.455   5.574  0.00  0.00    +0.100 C 
ATOM      6  C   UNL     1       4.466  -2.086   6.218  0.00  0.00    -0.004 C 
ATOM      7  C   UNL     1       3.266  -1.205   5.841  0.00  0.00    +0.115 C 
ATOM      8  C   UNL     1       4.565  -2.226   7.734  0.00  0.00    -0.010 C 
ATOM      9  C   UNL     1       4.899  -0.862   8.346  0.00  0.00    -0.082 C 
ATOM     10  N   UNL     1       6.169  -0.374   7.795  0.00  0.00    +0.379 N 
ATOM     11  C   UNL     1       6.036  -0.154   6.350  0.00  0.00    -0.082 C 
ATOM     12  C   UNL     1       5.751  -1.488   5.653  0.00  0.00    -0.010 C 
ATOM     13  H   UNL     1       6.417   0.495   8.245  0.00  0.00    -0.086 HD
ATOM     14  H   UNL     1       6.892  -1.056   7.966  0.00  0.00    -0.086 HD
ENDROOT
BRANCH   1  20
ATOM     15  C   UNL     1       1.726  -1.594   1.109  0.00  0.00    +0.133 A 
ATOM     16  C   UNL     1       1.152  -2.352   0.099  0.00  0.00    +0.046 A 
ATOM     17  C   UNL     1       0.458  -3.504   0.408  0.00  0.00    +0.004 A 
ATOM     18  C   UNL     1       0.329  -3.913   1.726  0.00  0.00    +0.001 A 
ATOM     19  C   UNL     1       0.894  -3.174   2.741  0.00  0.00    +0.017 A 
ATOM     20  C   UNL     1       1.604  -2.008   2.443  0.00  0.00    +0.078 A 
BRANCH  15  21
ATOM     21  O   UNL     1       2.408  -0.461   0.808  0.00  0.00    -0.491 OA
BRANCH  21  23
ATOM     22  C   UNL     1       3.292   1.194  -0.716  0.00  0.00    +0.048 C 
ATOM     23  C   UNL     1       2.491  -0.102  -0.573  0.00  0.00    +0.226 C 
ENDBRANCH  21  23
ENDBRANCH  15  21
ENDBRANCH   1  20
BRANCH   5  24
ATOM     24  C   UNL     1       5.265  -3.796   4.575  0.00  0.00    +0.218 C 
ATOM     25  O   UNL     1       5.184  -3.393   3.434  0.00  0.00    -0.275 OA
ATOM     26  N   UNL     1       6.318  -4.548   4.950  0.00  0.00    -0.311 N 
ATOM     27  H   UNL     1       6.384  -4.871   5.863  0.00  0.00    +0.149 HD
BRANCH  26  28
ATOM     28  C   UNL     1       7.365  -4.880   3.980  0.00  0.00    +0.139 C 
BRANCH  28  29
ATOM     29  C   UNL     1       8.420  -5.724   4.647  0.00  0.00    -0.027 A 
ATOM     30  C   UNL     1       9.597  -5.143   5.082  0.00  0.00    +0.006 A 
ATOM     31  C   UNL     1      10.564  -5.917   5.694  0.00  0.00    +0.004 A 
ATOM     32  C   UNL     1      10.355  -7.272   5.872  0.00  0.00    -0.050 A 
ATOM     33  C   UNL     1       9.178  -7.853   5.438  0.00  0.00    +0.007 A 
ATOM     34  C   UNL     1       8.209  -7.077   4.829  0.00  0.00    -0.046 A 
ATOM     35  C   UNL     1       6.923  -7.709   4.361  0.00  0.00    +0.044 C 
ATOM     36  C   UNL     1      11.411  -8.117   6.538  0.00  0.00    +0.044 C 
ENDBRANCH  28  29
ENDBRANCH  26  28
ENDBRANCH   5  24
TORSDOF 6
