REMARK  Name = ZINC12411050
REMARK  12 active torsions:
REMARK  status: ('A' for Active; 'I' for Inactive)
REMARK    1  A    between atoms: C_1  and  C_2
REMARK    2  A    between atoms: C_2  and  O_3
REMARK    3  A    between atoms: O_3  and  C_4
REMARK    4  A    between atoms: C_4  and  C_6
REMARK    5  A    between atoms: C_9  and  N_12
REMARK    6  A    between atoms: C_13  and  C_15
REMARK    7  A    between atoms: C_15  and  S_16
REMARK    8  A    between atoms: S_16  and  C_17
REMARK    9  A    between atoms: C_20  and  C_24
REMARK   10  A    between atoms: C_21  and  C_23
REMARK   11  A    between atoms: C_24  and  C_25
REMARK   12  A    between atoms: C_28  and  O_31
REMARK                            x       y       z     vdW  Elec       q    Type
REMARK                         _______ _______ _______ _____ _____    ______ ____
ROOT
ATOM      1  S   UNL     1      -5.967   7.813   0.411  0.00  0.00    -0.079 S 
ENDROOT
BRANCH   1   2
ATOM      2  C   UNL     1      -7.624   8.398   0.541  0.00  0.00    +0.167 A 
ATOM      3  N   UNL     1      -8.002   9.700   0.665  0.00  0.00    -0.336 N 
ATOM      4  H   UNL     1      -7.395  10.495   0.699  0.00  0.00    +0.168 HD
ATOM      5  C   UNL     1      -9.377   9.715   0.735  0.00  0.00    +0.043 A 
ATOM      6  C   UNL     1      -9.787   8.439   0.652  0.00  0.00    +0.060 A 
ATOM      7  N   UNL     1      -8.705   7.653   0.529  0.00  0.00    -0.227 NA
ATOM      8  C   UNL     1     -11.219   7.969   0.686  0.00  0.00    +0.067 C 
BRANCH   5   9
ATOM      9  C   UNL     1     -10.254  10.932   0.877  0.00  0.00    +0.090 C 
BRANCH   9  10
ATOM     10  C   UNL     1     -10.576  11.152   2.333  0.00  0.00    -0.041 A 
ATOM     11  C   UNL     1     -11.700  10.568   2.886  0.00  0.00    +0.007 A 
ATOM     12  C   UNL     1     -11.995  10.763   4.222  0.00  0.00    +0.045 A 
ATOM     13  C   UNL     1     -11.167  11.554   5.005  0.00  0.00    +0.117 A 
ATOM     14  C   UNL     1     -10.043  12.143   4.446  0.00  0.00    +0.045 A 
ATOM     15  C   UNL     1      -9.749  11.941   3.111  0.00  0.00    +0.007 A 
BRANCH  13  16
ATOM     16  O   UNL     1     -11.458  11.752   6.318  0.00  0.00    -0.507 OA
ATOM     17  H   UNL     1     -12.020  12.520   6.485  0.00  0.00    +0.292 HD
ENDBRANCH  13  16
ENDBRANCH   9  10
ENDBRANCH   5   9
ENDBRANCH   1   2
BRANCH   1  18
ATOM     18  C   UNL     1      -6.271   6.034   0.282  0.00  0.00    +0.173 C 
BRANCH  18  20
ATOM     19  N   UNL     1      -4.936   3.964   0.049  0.00  0.00    -0.285 N 
ATOM     20  C   UNL     1      -4.957   5.307   0.158  0.00  0.00    +0.227 C 
ATOM     21  O   UNL     1      -3.917   5.931   0.157  0.00  0.00    -0.275 OA
ATOM     22  H   UNL     1      -5.769   3.471  -0.028  0.00  0.00    +0.155 HD
BRANCH  19  26
ATOM     23  C   UNL     1      -1.302   1.929   0.036  0.00  0.00    +0.059 A 
ATOM     24  C   UNL     1      -2.374   1.453  -0.725  0.00  0.00    +0.017 A 
ATOM     25  C   UNL     1      -3.575   2.125  -0.714  0.00  0.00    +0.024 A 
ATOM     26  C   UNL     1      -3.720   3.283   0.044  0.00  0.00    +0.033 A 
ATOM     27  C   UNL     1      -2.654   3.763   0.799  0.00  0.00    +0.024 A 
ATOM     28  C   UNL     1      -1.451   3.093   0.797  0.00  0.00    +0.017 A 
BRANCH  23  29
ATOM     29  C   UNL     1      -0.015   1.209   0.031  0.00  0.00    +0.339 C 
ATOM     30  O   UNL     1       0.917   1.627   0.689  0.00  0.00    -0.245 OA
BRANCH  29  31
ATOM     31  O   UNL     1       0.125   0.085  -0.698  0.00  0.00    -0.461 OA
BRANCH  31  33
ATOM     32  C   UNL     1       1.386  -1.823  -1.534  0.00  0.00    +0.048 C 
ATOM     33  C   UNL     1       1.418  -0.575  -0.650  0.00  0.00    +0.229 C 
ENDBRANCH  31  33
ENDBRANCH  29  31
ENDBRANCH  23  29
ENDBRANCH  19  26
ENDBRANCH  18  20
ENDBRANCH   1  18
TORSDOF 10
