REMARK  Name = ZINC59251111
REMARK  7 active torsions:
REMARK  status: ('A' for Active; 'I' for Inactive)
REMARK    1  A    between atoms: C_4  and  C_7
REMARK    2  A    between atoms: C_10  and  C_15
REMARK    3  A    between atoms: N_17  and  C_18
REMARK    4  A    between atoms: C_18  and  C_19
REMARK    5  A    between atoms: C_19  and  N_20
REMARK    6  A    between atoms: N_20  and  C_21
REMARK    7  A    between atoms: C_26  and  N_27
REMARK                            x       y       z     vdW  Elec       q    Type
REMARK                         _______ _______ _______ _____ _____    ______ ____
ROOT
ATOM      1  C   UNL     1       7.341  -2.757   0.228  0.00  0.00    +0.249 C 
ATOM      2  O   UNL     1       8.389  -2.144   0.143  0.00  0.00    -0.270 OA
ATOM      3  N   UNL     1       7.349  -4.104   0.263  0.00  0.00    -0.310 N 
ATOM      4  H   UNL     1       6.512  -4.595   0.259  0.00  0.00    +0.149 HD
ENDROOT
BRANCH   1   8
ATOM      5  C   UNL     1       3.655  -0.695   0.408  0.00  0.00    +0.049 A 
ATOM      6  C   UNL     1       4.834   0.028   0.439  0.00  0.00    +0.027 A 
ATOM      7  C   UNL     1       6.054  -0.635   0.381  0.00  0.00    +0.020 A 
ATOM      8  C   UNL     1       6.067  -2.028   0.292  0.00  0.00    +0.101 A 
ATOM      9  C   UNL     1       4.836  -2.731   0.263  0.00  0.00    +0.261 A 
ATOM     10  O   UNL     1       4.831  -3.947   0.186  0.00  0.00    -0.267 OA
ATOM     11  N   UNL     1       3.672  -2.057   0.327  0.00  0.00    -0.321 N 
ATOM     12  H   UNL     1       2.835  -2.545   0.311  0.00  0.00    +0.169 HD
BRANCH   5  16
ATOM     13  C   UNL     1      -0.062   1.349   0.586  0.00  0.00    +0.000 A 
ATOM     14  C   UNL     1       1.121   2.067   0.612  0.00  0.00    +0.001 A 
ATOM     15  C   UNL     1       2.332   1.410   0.554  0.00  0.00    +0.010 A 
ATOM     16  C   UNL     1       2.363   0.016   0.470  0.00  0.00    -0.002 A 
ATOM     17  C   UNL     1       1.165  -0.703   0.446  0.00  0.00    +0.010 A 
ATOM     18  C   UNL     1      -0.039  -0.032   0.503  0.00  0.00    +0.001 A 
ENDBRANCH   5  16
ENDBRANCH   1   8
BRANCH   3  19
ATOM     19  C   UNL     1       8.622  -4.828   0.308  0.00  0.00    +0.123 C 
BRANCH  19  20
ATOM     20  C   UNL     1       8.352  -6.333   0.342  0.00  0.00    +0.120 C 
BRANCH  20  21
ATOM     21  N   UNL     1       9.624  -7.057   0.387  0.00  0.00    -0.341 N 
ATOM     22  H   UNL     1      10.461  -6.567   0.391  0.00  0.00    +0.146 HD
BRANCH  21  23
ATOM     23  C   UNL     1       9.633  -8.454   0.424  0.00  0.00    +0.058 A 
ATOM     24  C   UNL     1       8.441  -9.160   0.317  0.00  0.00    +0.025 A 
ATOM     25  C   UNL     1       8.453 -10.540   0.354  0.00  0.00    +0.002 A 
ATOM     26  C   UNL     1       9.650 -11.220   0.496  0.00  0.00    +0.002 A 
ATOM     27  C   UNL     1      10.837 -10.520   0.603  0.00  0.00    +0.034 A 
ATOM     28  C   UNL     1      10.833  -9.139   0.561  0.00  0.00    +0.147 A 
BRANCH  28  29
ATOM     29  N   UNL     1      12.105  -8.391   0.669  0.00  0.00    +0.058 N 
ATOM     30  O   UNL     1      12.275  -7.389   0.014  0.00  0.00    -0.126 OA
ATOM     31  O   UNL     1      12.975  -8.781   1.413  0.00  0.00    -0.126 OA
ENDBRANCH  28  29
ENDBRANCH  21  23
ENDBRANCH  20  21
ENDBRANCH  19  20
ENDBRANCH   3  19
TORSDOF 7
