REMARK  Name = ZINC39327260
REMARK  6 active torsions:
REMARK  status: ('A' for Active; 'I' for Inactive)
REMARK    1  A    between atoms: C_1  and  C_2
REMARK    2  A    between atoms: C_2  and  C_3
REMARK    3  A    between atoms: C_3  and  C_4
REMARK    4  A    between atoms: C_6  and  C_18
REMARK    5  A    between atoms: C_8  and  C_16
REMARK    6  A    between atoms: C_9  and  N_15
REMARK                            x       y       z     vdW  Elec       q    Type
REMARK                         _______ _______ _______ _____ _____    ______ ____
ROOT
ATOM      1  C   UNL     1       0.762  -2.018   1.233  0.00  0.00    +0.069 C 
ATOM      2  C   UNL     1       1.746  -2.751   0.770  0.00  0.00    +0.030 C 
ATOM      3  C   UNL     1       3.127  -2.434   0.266  0.00  0.00    +0.104 C 
ATOM      4  C   UNL     1       4.032  -3.497   0.862  0.00  0.00    +0.098 C 
ATOM      5  C   UNL     1       3.534  -4.566   1.517  0.00  0.00    +0.195 C 
ATOM      6  O   UNL     1       2.236  -4.830   1.755  0.00  0.00    -0.448 OA
ATOM      7  C   UNL     1       1.268  -4.196   0.915  0.00  0.00    +0.343 C 
ATOM      8  N   UNL     1      -0.023  -4.024   1.590  0.00  0.00    -0.138 NA
ATOM      9  N   UNL     1      -0.232  -2.810   1.710  0.00  0.00    -0.155 NA
ENDROOT
BRANCH   3  10
ATOM     10  C   UNL     1       3.160  -2.502  -1.240  0.00  0.00    +0.004 A 
ATOM     11  C   UNL     1       3.476  -1.531  -2.131  0.00  0.00    +0.013 A 
ATOM     12  C   UNL     1       3.438  -1.823  -3.482  0.00  0.00    +0.028 A 
ATOM     13  C   UNL     1       3.086  -3.072  -3.875  0.00  0.00    +0.078 A 
ATOM     14  S   UNL     1       2.801  -3.885  -2.311  0.00  0.00    -0.081 S 
ATOM     15 CL   UNL     1       2.954  -3.717  -5.481  0.00  0.00    -0.076 Cl
ENDBRANCH   3  10
BRANCH   5  16
ATOM     16  N   UNL     1       4.444  -5.479   1.987  0.00  0.00    -0.329 N 
ATOM     17  H   UNL     1       5.392  -5.337   1.842  0.00  0.00    +0.145 HD
ATOM     18  H   UNL     1       4.139  -6.266   2.465  0.00  0.00    +0.145 HD
ENDBRANCH   5  16
BRANCH   4  19
ATOM     19  C   UNL     1       5.451  -3.361   0.725  0.00  0.00    +0.101 C 
ATOM     20  N   UNL     1       6.576  -3.254   0.617  0.00  0.00    -0.191 NA
ENDBRANCH   4  19
BRANCH   1  21
ATOM     21  C   UNL     1       0.742  -0.511   1.242  0.00  0.00    +0.057 C 
BRANCH  21  23
ATOM     22  C   UNL     1      -0.019   1.526   0.010  0.00  0.00    +0.004 C 
ATOM     23  C   UNL     1       0.002  -0.004   0.002  0.00  0.00    +0.003 C 
ENDBRANCH  21  23
ENDBRANCH   1  21
TORSDOF 5
