REMARK  Name = ZINC19022412
REMARK  7 active torsions:
REMARK  status: ('A' for Active; 'I' for Inactive)
REMARK    1  A    between atoms: C_1  and  C_2
REMARK    2  A    between atoms: N_4  and  C_5
REMARK    3  A    between atoms: C_8  and  C_11
REMARK    4  A    between atoms: C_11  and  C_13
REMARK    5  A    between atoms: C_11  and  O_34
REMARK    6  A    between atoms: C_13  and  N_63
REMARK    7  A    between atoms: C_20  and  O_33
REMARK                            x       y       z     vdW  Elec       q    Type
REMARK                         _______ _______ _______ _____ _____    ______ ____
ROOT
ATOM      1  C   UNL     1      -4.761   2.712   2.821  0.00  0.00    -0.075 C 
ATOM      2  C   UNL     1      -4.717   4.083   2.142  0.00  0.00    +0.029 C 
ATOM      3  C   UNL     1      -4.646   3.893   0.626  0.00  0.00    +0.110 C 
ATOM      4  C   UNL     1      -5.848   3.068   0.159  0.00  0.00    +0.029 C 
ATOM      5  C   UNL     1      -5.858   1.727   0.899  0.00  0.00    -0.075 C 
ATOM      6  C   UNL     1      -4.667   5.260  -0.065  0.00  0.00    +0.084 C 
ATOM      7  C   UNL     1      -3.505   6.092   0.483  0.00  0.00    +0.152 C 
ATOM      8  C   UNL     1      -2.237   5.274   0.468  0.00  0.00    +0.023 A 
ATOM      9  C   UNL     1      -1.016   5.949   0.555  0.00  0.00    +0.010 A 
ATOM     10  C   UNL     1       0.167   5.280   0.556  0.00  0.00    +0.009 A 
ATOM     11  C   UNL     1       0.172   3.877   0.476  0.00  0.00    -0.014 A 
ATOM     12  C   UNL     1       1.375   3.149   0.483  0.00  0.00    +0.008 A 
ATOM     13  C   UNL     1       1.337   1.790   0.410  0.00  0.00    +0.001 A 
ATOM     14  C   UNL     1       0.124   1.109   0.327  0.00  0.00    +0.001 A 
ATOM     15  C   UNL     1      -1.058   1.784   0.310  0.00  0.00    +0.012 A 
ATOM     16  C   UNL     1      -1.059   3.186   0.389  0.00  0.00    +0.024 A 
ATOM     17  C   UNL     1      -2.271   3.915   0.378  0.00  0.00    +0.135 A 
ATOM     18  O   UNL     1      -3.436   3.225   0.276  0.00  0.00    -0.485 OA
ATOM     19  N   UNL     1      -5.957   1.981   2.352  0.00  0.00    +0.382 N 
ATOM     20  H   UNL     1      -6.789   2.553   2.534  0.00  0.00    -0.082 HD
ENDROOT
BRANCH   7  21
ATOM     21  O   UNL     1      -3.330   7.255  -0.329  0.00  0.00    -0.387 OA
ATOM     22  H   UNL     1      -2.612   7.834  -0.037  0.00  0.00    +0.210 HD
ENDBRANCH   7  21
BRANCH  19  23
ATOM     23  C   UNL     1      -6.084   0.702   3.080  0.00  0.00    -0.042 C 
BRANCH  23  24
ATOM     24  C   UNL     1      -5.049  -0.307   2.579  0.00  0.00    +0.128 C 
BRANCH  24  28
ATOM     25  C   UNL     1      -5.761  -4.105   4.406  0.00  0.00    +0.033 A 
ATOM     26  C   UNL     1      -6.202  -3.861   3.111  0.00  0.00    +0.023 A 
ATOM     27  C   UNL     1      -5.970  -2.633   2.524  0.00  0.00    +0.008 A 
ATOM     28  C   UNL     1      -5.300  -1.646   3.223  0.00  0.00    -0.021 A 
ATOM     29  C   UNL     1      -4.855  -1.887   4.510  0.00  0.00    +0.008 A 
ATOM     30  C   UNL     1      -5.088  -3.112   5.105  0.00  0.00    +0.023 A 
BRANCH  25  34
ATOM     31  C   UNL     1      -6.105  -7.818   4.920  0.00  0.00    +0.109 C 
ATOM     32  C   UNL     1      -5.962  -6.471   4.259  0.00  0.00    +0.214 C 
ATOM     33  O   UNL     1      -5.818  -6.397   3.057  0.00  0.00    -0.276 OA
ATOM     34  N   UNL     1      -5.994  -5.348   5.004  0.00  0.00    -0.286 N 
ATOM     35  H   UNL     1      -6.179  -5.402   5.954  0.00  0.00    +0.155 HD
ENDBRANCH  25  34
ENDBRANCH  24  28
BRANCH  24  36
ATOM     36  O   UNL     1      -3.737   0.147   2.921  0.00  0.00    -0.389 OA
ATOM     37  H   UNL     1      -3.594   0.256   3.871  0.00  0.00    +0.210 HD
ENDBRANCH  24  36
ENDBRANCH  23  24
ENDBRANCH  19  23
TORSDOF 6
