REMARK  Name = ZINC24161483
REMARK  10 active torsions:
REMARK  status: ('A' for Active; 'I' for Inactive)
REMARK    1  A    between atoms: C_1  and  C_2
REMARK    2  A    between atoms: C_7  and  N_8
REMARK    3  A    between atoms: N_8  and  S_9
REMARK    4  A    between atoms: S_9  and  C_12
REMARK    5  A    between atoms: C_15  and  C_18
REMARK    6  A    between atoms: C_18  and  O_20
REMARK    7  A    between atoms: O_20  and  C_21
REMARK    8  A    between atoms: C_21  and  C_23
REMARK    9  A    between atoms: C_21  and  C_24
REMARK   10  A    between atoms: N_29  and  C_30
REMARK                            x       y       z     vdW  Elec       q    Type
REMARK                         _______ _______ _______ _____ _____    ______ ____
ROOT
ATOM      1  C   UNL     1       2.500  -0.640   3.443  0.00  0.00    +0.109 A 
ATOM      2  C   UNL     1       3.114  -1.710   2.816  0.00  0.00    +0.029 A 
ATOM      3  C   UNL     1       4.473  -1.687   2.579  0.00  0.00    +0.017 A 
ATOM      4  C   UNL     1       5.229  -0.582   2.975  0.00  0.00    +0.059 A 
ATOM      5  C   UNL     1       4.603   0.494   3.608  0.00  0.00    +0.017 A 
ATOM      6  C   UNL     1       3.242   0.460   3.833  0.00  0.00    +0.029 A 
ENDROOT
BRANCH   1   7
ATOM      7  S   UNL     1       0.764  -0.678   3.741  0.00  0.00    +0.072 S 
ATOM      8  O   UNL     1       0.519   0.207   4.826  0.00  0.00    -0.150 OA
ATOM      9  O   UNL     1       0.387  -2.047   3.775  0.00  0.00    -0.150 OA
BRANCH   7  10
ATOM     10  N   UNL     1       0.025  -0.016   2.415  0.00  0.00    -0.216 N 
ATOM     11  H   UNL     1      -0.522   0.779   2.511  0.00  0.00    +0.174 HD
BRANCH  10  18
ATOM     12  C   UNL     1       0.153   1.691   0.143  0.00  0.00    +0.046 C 
ATOM     13  C   UNL     1       0.258   0.193   0.022  0.00  0.00    -0.028 A 
ATOM     14  C   UNL     1       0.426  -0.391  -1.218  0.00  0.00    +0.005 A 
ATOM     15  C   UNL     1       0.522  -1.765  -1.331  0.00  0.00    +0.000 A 
ATOM     16  C   UNL     1       0.450  -2.561  -0.202  0.00  0.00    +0.002 A 
ATOM     17  C   UNL     1       0.282  -1.984   1.042  0.00  0.00    +0.025 A 
ATOM     18  C   UNL     1       0.190  -0.603   1.159  0.00  0.00    +0.051 A 
ENDBRANCH  10  18
ENDBRANCH   7  10
ENDBRANCH   1   7
BRANCH   4  19
ATOM     19  C   UNL     1       6.685  -0.551   2.726  0.00  0.00    +0.340 C 
ATOM     20  O   UNL     1       7.227  -1.488   2.175  0.00  0.00    -0.245 OA
BRANCH  19  21
ATOM     21  O   UNL     1       7.411   0.517   3.109  0.00  0.00    -0.449 OA
BRANCH  21  22
ATOM     22  C   UNL     1       8.813   0.479   2.836  0.00  0.00    +0.259 C 
ATOM     23  C   UNL     1       9.547  -0.152   4.021  0.00  0.00    +0.062 C 
BRANCH  22  24
ATOM     24  C   UNL     1       9.321   1.882   2.622  0.00  0.00    +0.261 C 
ATOM     25  O   UNL     1       8.579   2.827   2.784  0.00  0.00    -0.271 OA
ATOM     26  N   UNL     1      10.600   2.086   2.249  0.00  0.00    -0.237 N 
ATOM     27  C   UNL     1      11.054   3.341   2.057  0.00  0.00    +0.306 C 
ATOM     28  O   UNL     1      10.310   4.288   2.220  0.00  0.00    -0.252 OA
ATOM     29  N   UNL     1      12.333   3.545   1.685  0.00  0.00    -0.302 N 
ATOM     30  C   UNL     1      12.827   4.908   1.476  0.00  0.00    +0.129 C 
ATOM     31  H   UNL     1      11.194   1.330   2.119  0.00  0.00    +0.159 HD
ATOM     32  H   UNL     1      12.927   2.789   1.555  0.00  0.00    +0.150 HD
ENDBRANCH  22  24
ENDBRANCH  21  22
ENDBRANCH  19  21
ENDBRANCH   4  19
TORSDOF 7
