REMARK  Name = ZINC15033709
REMARK  7 active torsions:
REMARK  status: ('A' for Active; 'I' for Inactive)
REMARK    1  A    between atoms: C_4  and  C_7
REMARK    2  A    between atoms: C_16  and  C_17
REMARK    3  A    between atoms: C_16  and  N_53
REMARK    4  A    between atoms: N_19  and  C_20
REMARK    5  A    between atoms: C_20  and  C_21
REMARK    6  A    between atoms: C_24  and  S_27
REMARK    7  A    between atoms: S_27  and  N_30
REMARK                            x       y       z     vdW  Elec       q    Type
REMARK                         _______ _______ _______ _____ _____    ______ ____
ROOT
ATOM      1  C   UNL     1       2.462   0.920  -0.017  0.00  0.00    +0.020 C 
ENDROOT
BRANCH   1  10
ATOM      2  C   UNL     1       4.854   1.222   0.200  0.00  0.00    -0.005 C 
ATOM      3  C   UNL     1       5.960   2.272   0.161  0.00  0.00    -0.047 A 
ATOM      4  C   UNL     1       7.235   2.077   0.688  0.00  0.00    +0.010 A 
ATOM      5  C   UNL     1       8.157   3.065   0.611  0.00  0.00    +0.045 A 
ATOM      6  S   UNL     1       7.249   4.353  -0.231  0.00  0.00    -0.101 S 
ATOM      7  C   UNL     1       5.719   3.482  -0.416  0.00  0.00    -0.010 A 
ATOM      8  C   UNL     1       4.442   3.929  -1.050  0.00  0.00    +0.024 C 
ATOM      9  C   UNL     1       3.562   2.685  -1.258  0.00  0.00    -0.072 C 
ATOM     10  N   UNL     1       3.556   1.910   0.006  0.00  0.00    +0.393 N 
ATOM     11  H   UNL     1       3.405   2.556   0.790  0.00  0.00    -0.080 HD
BRANCH   2  15
ATOM     12  C   UNL     1       4.835  -0.699   4.016  0.00  0.00    +0.000 A 
ATOM     13  C   UNL     1       5.417  -1.325   2.930  0.00  0.00    +0.000 A 
ATOM     14  C   UNL     1       5.423  -0.704   1.695  0.00  0.00    +0.002 A 
ATOM     15  C   UNL     1       4.847   0.544   1.546  0.00  0.00    -0.057 A 
ATOM     16  C   UNL     1       4.269   1.173   2.634  0.00  0.00    +0.002 A 
ATOM     17  C   UNL     1       4.259   0.549   3.867  0.00  0.00    +0.000 A 
ENDBRANCH   2  15
ENDBRANCH   1  10
BRANCH   1  18
ATOM     18  C   UNL     1       1.147   1.655   0.000  0.00  0.00    +0.197 C 
ATOM     19  O   UNL     1       1.130   2.868   0.007  0.00  0.00    -0.278 OA
ATOM     20  N   UNL     1      -0.011   0.966   0.007  0.00  0.00    -0.313 N 
ATOM     21  H   UNL     1       0.002  -0.004   0.002  0.00  0.00    +0.149 HD
BRANCH  20  22
ATOM     22  C   UNL     1      -1.290   1.681   0.017  0.00  0.00    +0.139 C 
BRANCH  22  23
ATOM     23  C   UNL     1      -2.422   0.686   0.017  0.00  0.00    -0.030 A 
ATOM     24  C   UNL     1      -2.950   0.241  -1.180  0.00  0.00    +0.007 A 
ATOM     25  C   UNL     1      -3.986  -0.675  -1.180  0.00  0.00    +0.029 A 
ATOM     26  C   UNL     1      -4.499  -1.138   0.017  0.00  0.00    +0.105 A 
ATOM     27  C   UNL     1      -3.974  -0.689   1.214  0.00  0.00    +0.029 A 
ATOM     28  C   UNL     1      -2.935   0.224   1.214  0.00  0.00    +0.007 A 
BRANCH  26  29
ATOM     29  S   UNL     1      -5.822  -2.302   0.017  0.00  0.00    +0.056 S 
ATOM     30  O   UNL     1      -5.769  -2.977  -1.232  0.00  0.00    -0.153 OA
ATOM     31  O   UNL     1      -5.757  -2.991   1.258  0.00  0.00    -0.153 OA
BRANCH  29  32
ATOM     32  N   UNL     1      -7.234  -1.437   0.029  0.00  0.00    -0.204 NA
ATOM     33  H   UNL     1      -7.209  -0.468   0.035  0.00  0.00    +0.144 HD
ATOM     34  H   UNL     1      -8.086  -1.901   0.031  0.00  0.00    +0.144 HD
ENDBRANCH  29  32
ENDBRANCH  26  29
ENDBRANCH  22  23
ENDBRANCH  20  22
ENDBRANCH   1  18
TORSDOF 7
