REMARK  Name = ZINC07688360
REMARK  6 active torsions:
REMARK  status: ('A' for Active; 'I' for Inactive)
REMARK    1  A    between atoms: C_1  and  N_2
REMARK    2  A    between atoms: N_2  and  C_3
REMARK    3  A    between atoms: C_4  and  N_19
REMARK    4  A    between atoms: N_5  and  C_12
REMARK    5  A    between atoms: C_12  and  C_13
REMARK    6  A    between atoms: C_20  and  C_22
REMARK                            x       y       z     vdW  Elec       q    Type
REMARK                         _______ _______ _______ _____ _____    ______ ____
ROOT
ATOM      1  C   UNL     1       0.038  -0.018   1.536  0.00  0.00    +0.140 A 
ATOM      2  C   UNL     1      -0.096   1.006   2.451  0.00  0.00    +0.128 A 
ATOM      3  N   UNL     1      -0.471   0.709   3.740  0.00  0.00    -0.276 N 
ATOM      4  C   UNL     1      -0.705  -0.565   4.105  0.00  0.00    +0.331 A 
ATOM      5  O   UNL     1      -1.035  -0.806   5.250  0.00  0.00    -0.246 OA
ATOM      6  N   UNL     1      -0.579  -1.575   3.227  0.00  0.00    -0.273 N 
ATOM      7  H   UNL     1      -0.754  -2.485   3.515  0.00  0.00    +0.173 HD
ATOM      8  C   UNL     1      -0.220  -1.338   1.950  0.00  0.00    +0.277 A 
ATOM      9  O   UNL     1      -0.113  -2.261   1.161  0.00  0.00    -0.266 OA
ENDROOT
BRANCH   1  11
ATOM     10  C   UNL     1      -0.479  -0.082  -0.899  0.00  0.00    +0.139 C 
ATOM     11  N   UNL     1       0.422   0.255   0.206  0.00  0.00    -0.263 N 
ATOM     12  C   UNL     1       1.617   0.824  -0.048  0.00  0.00    +0.251 C 
ATOM     13  O   UNL     1       1.922   1.114  -1.189  0.00  0.00    -0.270 OA
BRANCH  12  14
ATOM     14  C   UNL     1       2.556   1.096   1.060  0.00  0.00    +0.037 A 
ATOM     15  C   UNL     1       2.481   0.354   2.240  0.00  0.00    +0.014 A 
ATOM     16  C   UNL     1       3.360   0.612   3.271  0.00  0.00    +0.021 A 
ATOM     17  C   UNL     1       4.315   1.606   3.137  0.00  0.00    +0.041 A 
ATOM     18  C   UNL     1       4.394   2.346   1.969  0.00  0.00    +0.021 A 
ATOM     19  C   UNL     1       3.525   2.093   0.929  0.00  0.00    +0.014 A 
ATOM     20 CL   UNL     1       5.418   1.926   4.439  0.00  0.00    -0.084 Cl
ENDBRANCH  12  14
ENDBRANCH   1  11
BRANCH   2  21
ATOM     21  N   UNL     1       0.143   2.308   2.079  0.00  0.00    -0.343 N 
ATOM     22  H   UNL     1       0.289   2.526   1.145  0.00  0.00    +0.144 HD
ATOM     23  H   UNL     1       0.166   3.008   2.750  0.00  0.00    +0.144 HD
ENDBRANCH   2  21
BRANCH   3  24
ATOM     24  C   UNL     1      -0.617   1.786   4.723  0.00  0.00    +0.163 C 
BRANCH  24  25
ATOM     25  C   UNL     1      -2.033   2.302   4.696  0.00  0.00    -0.028 A 
ATOM     26  C   UNL     1      -2.375   3.337   3.846  0.00  0.00    +0.005 A 
ATOM     27  C   UNL     1      -3.674   3.811   3.821  0.00  0.00    +0.000 A 
ATOM     28  C   UNL     1      -4.630   3.249   4.646  0.00  0.00    +0.000 A 
ATOM     29  C   UNL     1      -4.288   2.213   5.496  0.00  0.00    +0.000 A 
ATOM     30  C   UNL     1      -2.990   1.737   5.517  0.00  0.00    +0.005 A 
ENDBRANCH  24  25
ENDBRANCH   3  24
TORSDOF 5
