REMARK  Name = ZINC17360883
REMARK  10 active torsions:
REMARK  status: ('A' for Active; 'I' for Inactive)
REMARK    1  A    between atoms: C_1  and  C_2
REMARK    2  A    between atoms: C_2  and  C_3
REMARK    3  A    between atoms: C_2  and  C_4
REMARK    4  A    between atoms: C_2  and  C_5
REMARK    5  A    between atoms: C_8  and  O_25
REMARK    6  A    between atoms: C_9  and  N_11
REMARK    7  A    between atoms: C_12  and  C_14
REMARK    8  A    between atoms: C_17  and  N_23
REMARK    9  A    between atoms: C_18  and  N_20
REMARK   10  A    between atoms: N_23  and  C_24
REMARK                            x       y       z     vdW  Elec       q    Type
REMARK                         _______ _______ _______ _____ _____    ______ ____
ROOT
ATOM      1  N   UNL     1      -1.464   3.562   0.034  0.00  0.00    -0.279 N 
ATOM      2  C   UNL     1      -1.368   2.350  -0.548  0.00  0.00    +0.248 C 
ATOM      3  O   UNL     1      -2.341   1.853  -1.082  0.00  0.00    -0.270 OA
ATOM      4  H   UNL     1      -0.671   3.994   0.388  0.00  0.00    +0.155 HD
ENDROOT
BRANCH   1   9
ATOM      5  C   UNL     1      -5.102   4.074   0.212  0.00  0.00    -0.040 A 
ATOM      6  C   UNL     1      -5.172   5.451   0.315  0.00  0.00    +0.008 A 
ATOM      7  C   UNL     1      -4.014   6.206   0.324  0.00  0.00    +0.047 A 
ATOM      8  C   UNL     1      -2.779   5.583   0.237  0.00  0.00    +0.138 A 
ATOM      9  C   UNL     1      -2.709   4.196   0.128  0.00  0.00    +0.076 A 
ATOM     10  C   UNL     1      -3.875   3.445   0.119  0.00  0.00    +0.031 A 
BRANCH   5  12
ATOM     11  C   UNL     1      -6.358   2.286   1.386  0.00  0.00    +0.015 C 
ATOM     12  C   UNL     1      -6.368   3.256   0.203  0.00  0.00    -0.013 C 
ATOM     13  C   UNL     1      -7.577   4.187   0.317  0.00  0.00    +0.015 C 
ATOM     14  C   UNL     1      -6.455   2.465  -1.104  0.00  0.00    +0.015 C 
ENDBRANCH   5  12
BRANCH   8  15
ATOM     15  O   UNL     1      -1.639   6.324   0.253  0.00  0.00    -0.505 OA
ATOM     16  H   UNL     1      -1.341   6.606  -0.623  0.00  0.00    +0.292 HD
ENDBRANCH   8  15
ENDBRANCH   1   9
BRANCH   2  17
ATOM     17  C   UNL     1      -0.082   1.627  -0.538  0.00  0.00    +0.039 A 
ATOM     18  C   UNL     1       1.039   2.200   0.070  0.00  0.00    +0.015 A 
ATOM     19  C   UNL     1       2.238   1.525   0.073  0.00  0.00    +0.026 A 
ATOM     20  C   UNL     1       2.336   0.273  -0.529  0.00  0.00    +0.058 A 
ATOM     21  C   UNL     1       1.222  -0.299  -1.136  0.00  0.00    +0.148 A 
ATOM     22  C   UNL     1       0.019   0.370  -1.142  0.00  0.00    +0.047 A 
BRANCH  21  23
ATOM     23  N   UNL     1       1.330  -1.630  -1.775  0.00  0.00    +0.058 N 
ATOM     24  O   UNL     1       0.336  -2.174  -2.221  0.00  0.00    -0.126 OA
ATOM     25  O   UNL     1       2.413  -2.182  -1.854  0.00  0.00    -0.126 OA
ENDBRANCH  21  23
BRANCH  20  26
ATOM     26  N   UNL     1       3.550  -0.406  -0.525  0.00  0.00    -0.345 N 
ATOM     27  C   UNL     1       4.693   0.142   0.210  0.00  0.00    +0.125 C 
ATOM     28  H   UNL     1       3.639  -1.242  -1.008  0.00  0.00    +0.146 HD
ENDBRANCH  20  26
ENDBRANCH   2  17
TORSDOF 6
