REMARK  Name = ZINC01649872
REMARK  8 active torsions:
REMARK  status: ('A' for Active; 'I' for Inactive)
REMARK    1  A    between atoms: C_1  and  C_2
REMARK    2  A    between atoms: C_2  and  C_4
REMARK    3  A    between atoms: C_4  and  C_6
REMARK    4  A    between atoms: C_4  and  O_22
REMARK    5  A    between atoms: C_6  and  C_8
REMARK    6  A    between atoms: C_6  and  O_21
REMARK    7  A    between atoms: C_9  and  O_19
REMARK    8  A    between atoms: O_19  and  C_20
REMARK                            x       y       z     vdW  Elec       q    Type
REMARK                         _______ _______ _______ _____ _____    ______ ____
ROOT
ATOM      1  C   UNL     1      -3.403  -1.177  -1.228  0.00  0.00    +0.068 A 
ATOM      2  C   UNL     1      -4.416  -0.634  -0.455  0.00  0.00    +0.129 A 
ATOM      3  C   UNL     1      -5.665  -1.248  -0.393  0.00  0.00    +0.047 A 
ATOM      4  C   UNL     1      -5.909  -2.394  -1.094  0.00  0.00    +0.015 A 
ATOM      5  C   UNL     1      -4.897  -2.956  -1.880  0.00  0.00    +0.018 A 
ATOM      6  C   UNL     1      -3.634  -2.337  -1.951  0.00  0.00    +0.148 A 
ATOM      7  O   UNL     1      -2.662  -2.880  -2.716  0.00  0.00    -0.422 OA
ATOM      8  C   UNL     1      -2.870  -4.002  -3.421  0.00  0.00    +0.337 A 
ATOM      9  O   UNL     1      -1.964  -4.456  -4.096  0.00  0.00    -0.245 OA
ATOM     10  C   UNL     1      -4.112  -4.671  -3.401  0.00  0.00    +0.092 A 
ATOM     11  C   UNL     1      -5.129  -4.184  -2.643  0.00  0.00    +0.018 A 
ENDROOT
BRANCH   2  12
ATOM     12  O   UNL     1      -4.190   0.505   0.248  0.00  0.00    -0.495 OA
ATOM     13  C   UNL     1      -5.276   1.013   1.026  0.00  0.00    +0.277 C 
ENDBRANCH   2  12
BRANCH   1  14
ATOM     14  C   UNL     1      -2.055  -0.505  -1.288  0.00  0.00    +0.184 C 
BRANCH  14  15
ATOM     15  O   UNL     1      -2.232   0.903  -1.453  0.00  0.00    -0.384 OA
ATOM     16  H   UNL     1      -2.729   1.323  -0.738  0.00  0.00    +0.210 HD
ENDBRANCH  14  15
BRANCH  14  17
ATOM     17  C   UNL     1      -1.293  -0.775   0.010  0.00  0.00    +0.173 C 
BRANCH  17  19
ATOM     18  C   UNL     1      -0.018   1.503   0.010  0.00  0.00    +0.041 C 
ATOM     19  C   UNL     1       0.002  -0.004   0.002  0.00  0.00    -0.049 C 
ATOM     20  C   UNL     1       1.145  -0.644  -0.012  0.00  0.00    +0.010 C 
ENDBRANCH  17  19
BRANCH  17  21
ATOM     21  O   UNL     1      -2.087  -0.361   1.124  0.00  0.00    -0.385 OA
ATOM     22  H   UNL     1      -2.314   0.579   1.117  0.00  0.00    +0.210 HD
ENDBRANCH  17  21
ENDBRANCH  14  17
ENDBRANCH   1  14
TORSDOF 6
