REMARK  Name = ZINC10060114
REMARK  4 active torsions:
REMARK  status: ('A' for Active; 'I' for Inactive)
REMARK    1  A    between atoms: C_5  and  C_7
REMARK    2  A    between atoms: N_9  and  N_10
REMARK    3  A    between atoms: C_11  and  C_12
REMARK    4  A    between atoms: C_16  and  N_18
REMARK                            x       y       z     vdW  Elec       q    Type
REMARK                         _______ _______ _______ _____ _____    ______ ____
ROOT
ATOM      1  N   UNL     1       1.193   1.683  -0.000  0.00  0.00    -0.187 NA
ATOM      2  C   UNL     1       2.325   1.049  -0.015  0.00  0.00    +0.138 C 
ENDROOT
BRANCH   2   3
ATOM      3  C   UNL     1       3.592   1.804  -0.023  0.00  0.00    -0.003 A 
ATOM      4  C   UNL     1       3.577   3.201  -0.021  0.00  0.00    +0.011 A 
ATOM      5  C   UNL     1       4.765   3.900  -0.024  0.00  0.00    +0.018 A 
ATOM      6  C   UNL     1       5.972   3.221  -0.039  0.00  0.00    +0.048 A 
ATOM      7  C   UNL     1       5.994   1.837  -0.046  0.00  0.00    +0.141 A 
ATOM      8  C   UNL     1       4.813   1.125  -0.038  0.00  0.00    +0.043 A 
ATOM      9 BR   UNL     1       7.596   4.189  -0.050  0.00  0.00    -0.048 Br
BRANCH   7  10
ATOM     10  N   UNL     1       7.289   1.119  -0.061  0.00  0.00    +0.058 N 
ATOM     11  O   UNL     1       7.310  -0.098  -0.067  0.00  0.00    -0.126 OA
ATOM     12  O   UNL     1       8.333   1.747  -0.069  0.00  0.00    -0.126 OA
ENDBRANCH   7  10
ENDBRANCH   2   3
BRANCH   1  15
ATOM     13  C   UNL     1      -1.187   1.624   0.017  0.00  0.00    +0.264 C 
ATOM     14  O   UNL     1      -1.204   2.840   0.023  0.00  0.00    -0.268 OA
ATOM     15  N   UNL     1      -0.011   0.966   0.007  0.00  0.00    -0.203 N 
ATOM     16  H   UNL     1       0.002  -0.004   0.002  0.00  0.00    +0.178 HD
BRANCH  13  21
ATOM     17  C   UNL     1      -3.630  -1.228   0.012  0.00  0.00    +0.001 A 
ATOM     18  C   UNL     1      -4.836  -0.550   0.021  0.00  0.00    +0.001 A 
ATOM     19  C   UNL     1      -4.860   0.833   0.029  0.00  0.00    +0.016 A 
ATOM     20  C   UNL     1      -3.678   1.546   0.028  0.00  0.00    +0.030 A 
ATOM     21  C   UNL     1      -2.457   0.868   0.018  0.00  0.00    +0.052 A 
ATOM     22  C   UNL     1      -2.441  -0.528   0.005  0.00  0.00    +0.014 A 
ATOM     23 BR   UNL     1      -3.711   3.437   0.038  0.00  0.00    -0.050 Br
ENDBRANCH  13  21
ENDBRANCH   1  15
TORSDOF 4
