REMARK  Name = ZINC67066083
REMARK  3 active torsions:
REMARK  status: ('A' for Active; 'I' for Inactive)
REMARK    1  A    between atoms: C_2  and  C_3
REMARK    2  A    between atoms: C_3  and  N_4
REMARK    3  A    between atoms: C_11  and  C_14
REMARK                            x       y       z     vdW  Elec       q    Type
REMARK                         _______ _______ _______ _____ _____    ______ ____
ROOT
ATOM      1  N   UNL     1       1.472  -1.491   1.233  0.00  0.00    -0.295 N 
ATOM      2  C   UNL     1       2.578  -2.233   1.440  0.00  0.00    +0.303 C 
ATOM      3  O   UNL     1       3.406  -2.350   0.558  0.00  0.00    -0.253 OA
ATOM      4  N   UNL     1       2.766  -2.846   2.626  0.00  0.00    -0.281 N 
ATOM      5  C   UNL     1       1.725  -2.819   3.666  0.00  0.00    +0.137 C 
ATOM      6  C   UNL     1       1.484  -4.255   4.146  0.00  0.00    +0.179 C 
ATOM      7  O   UNL     1       2.733  -4.844   4.513  0.00  0.00    -0.369 OA
ATOM      8  C   UNL     1       3.664  -4.962   3.435  0.00  0.00    +0.166 C 
ATOM      9  C   UNL     1       4.015  -3.567   2.917  0.00  0.00    +0.145 C 
ATOM     10  H   UNL     1       0.778  -1.455   1.910  0.00  0.00    +0.151 HD
ENDROOT
BRANCH   8  11
ATOM     11  C   UNL     1       4.914  -5.650   3.922  0.00  0.00    -0.015 A 
ATOM     12  C   UNL     1       5.364  -5.434   5.211  0.00  0.00    +0.009 A 
ATOM     13  C   UNL     1       6.509  -6.064   5.660  0.00  0.00    +0.041 A 
ATOM     14  C   UNL     1       7.207  -6.912   4.818  0.00  0.00    +0.158 A 
ATOM     15  C   UNL     1       6.756  -7.129   3.525  0.00  0.00    +0.159 A 
ATOM     16  C   UNL     1       5.606  -6.500   3.080  0.00  0.00    +0.047 A 
ATOM     17  F   UNL     1       7.436  -7.957   2.701  0.00  0.00    -0.202 F 
ATOM     18  F   UNL     1       8.327  -7.528   5.255  0.00  0.00    -0.202 F 
ENDBRANCH   8  11
BRANCH   1  19
ATOM     19  C   UNL     1       1.319  -0.737  -0.013  0.00  0.00    +0.148 C 
BRANCH  19  21
ATOM     20  C   UNL     1      -0.006   1.315   0.011  0.00  0.00    +0.021 C 
ATOM     21  C   UNL     1       0.007   0.004   0.005  0.00  0.00    +0.006 C 
ATOM     22 BR   UNL     1      -1.621  -0.959   0.020  0.00  0.00    -0.054 Br
ENDBRANCH  19  21
ENDBRANCH   1  19
TORSDOF 3
