REMARK  Name = ZINC67270434
REMARK  6 active torsions:
REMARK  status: ('A' for Active; 'I' for Inactive)
REMARK    1  A    between atoms: C_1  and  C_2
REMARK    2  A    between atoms: C_4  and  C_14
REMARK    3  A    between atoms: C_8  and  C_13
REMARK    4  A    between atoms: C_9  and  C_12
REMARK    5  A    between atoms: C_14  and  N_15
REMARK    6  A    between atoms: C_16  and  C_18
REMARK                            x       y       z     vdW  Elec       q    Type
REMARK                         _______ _______ _______ _____ _____    ______ ____
ROOT
ATOM      1  N   UNL     1      -1.329  -3.254  -2.862  0.00  0.00    -0.311 N 
ATOM      2  C   UNL     1      -1.569  -3.935  -4.000  0.00  0.00    +0.216 C 
ATOM      3  O   UNL     1      -0.662  -4.163  -4.772  0.00  0.00    -0.276 OA
ATOM      4  H   UNL     1      -2.055  -3.072  -2.244  0.00  0.00    +0.149 HD
ENDROOT
BRANCH   2   5
ATOM      5  C   UNL     1      -2.964  -4.412  -4.314  0.00  0.00    +0.075 C 
ATOM      6  C   UNL     1      -3.439  -5.359  -3.209  0.00  0.00    +0.015 C 
ATOM      7  C   UNL     1      -4.860  -5.833  -3.523  0.00  0.00    +0.036 C 
ATOM      8  C   UNL     1      -4.876  -6.548  -4.869  0.00  0.00    +0.112 C 
ATOM      9  C   UNL     1      -4.380  -5.624  -5.977  0.00  0.00    +0.036 C 
ATOM     10  C   UNL     1      -2.961  -5.151  -5.654  0.00  0.00    +0.015 C 
ATOM     11  C   UNL     1      -4.034  -7.801  -4.812  0.00  0.00    +0.244 C 
ATOM     12  O   UNL     1      -2.845  -7.877  -4.586  0.00  0.00    -0.273 OA
ATOM     13  N   UNL     1      -4.884  -8.818  -5.064  0.00  0.00    -0.238 N 
ATOM     14  C   UNL     1      -6.131  -8.378  -5.271  0.00  0.00    +0.307 C 
ATOM     15  O   UNL     1      -7.073  -9.107  -5.517  0.00  0.00    -0.252 OA
ATOM     16  N   UNL     1      -6.226  -7.038  -5.175  0.00  0.00    -0.285 N 
ATOM     17  H   UNL     1      -4.623  -9.752  -5.093  0.00  0.00    +0.159 HD
ATOM     18  H   UNL     1      -7.027  -6.503  -5.286  0.00  0.00    +0.151 HD
ENDBRANCH   2   5
BRANCH   1  19
ATOM     19  C   UNL     1       0.026  -2.791  -2.557  0.00  0.00    +0.141 C 
BRANCH  19  23
ATOM     20  C   UNL     1      -0.018   1.503   0.010  0.00  0.00    +0.044 C 
ATOM     21  C   UNL     1       0.002  -0.004   0.002  0.00  0.00    -0.049 A 
ATOM     22  C   UNL     1       0.006  -0.686  -1.207  0.00  0.00    +0.010 A 
ATOM     23  C   UNL     1       0.024  -2.063  -1.237  0.00  0.00    -0.006 A 
ATOM     24  C   UNL     1       0.039  -2.780  -0.045  0.00  0.00    +0.052 A 
ATOM     25  C   UNL     1       0.036  -2.084   1.178  0.00  0.00    +0.003 A 
ATOM     26  C   UNL     1       0.023  -0.688   1.185  0.00  0.00    +0.013 A 
ATOM     27  C   UNL     1       0.055  -3.107   2.226  0.00  0.00    -0.022 A 
ATOM     28  C   UNL     1       0.067  -4.300   1.610  0.00  0.00    +0.017 A 
ATOM     29  N   UNL     1       0.058  -4.124   0.253  0.00  0.00    -0.358 N 
ATOM     30  H   UNL     1       0.065  -4.840  -0.402  0.00  0.00    +0.166 HD
ATOM     31  C   UNL     1       0.088  -5.635   2.309  0.00  0.00    +0.063 C 
ATOM     32  C   UNL     1       0.059  -2.867   3.713  0.00  0.00    +0.046 C 
ENDBRANCH  19  23
ENDBRANCH   1  19
TORSDOF 3
