REMARK  Name = ZINC64939073
REMARK  8 active torsions:
REMARK  status: ('A' for Active; 'I' for Inactive)
REMARK    1  A    between atoms: C_1  and  C_2
REMARK    2  A    between atoms: C_2  and  C_3
REMARK    3  A    between atoms: C_2  and  C_4
REMARK    4  A    between atoms: C_4  and  C_5
REMARK    5  A    between atoms: C_5  and  N_6
REMARK    6  A    between atoms: N_9  and  N_10
REMARK    7  A    between atoms: N_10  and  S_11
REMARK    8  A    between atoms: S_11  and  C_14
REMARK                            x       y       z     vdW  Elec       q    Type
REMARK                         _______ _______ _______ _____ _____    ______ ____
ROOT
ATOM      1  N   UNL     1       2.017  -1.528   5.862  0.00  0.00    -0.107 NA
ATOM      2  H   UNL     1       2.056  -2.318   5.300  0.00  0.00    +0.172 HD
ENDROOT
BRANCH   1   6
ATOM      3  N   UNL     1       0.667  -0.609   3.684  0.00  0.00    -0.298 N 
ATOM      4  C   UNL     1       0.159  -0.382   4.912  0.00  0.00    +0.315 C 
ATOM      5  O   UNL     1      -0.887   0.225   5.034  0.00  0.00    -0.251 OA
ATOM      6  N   UNL     1       0.811  -0.829   6.004  0.00  0.00    -0.216 N 
ATOM      7  H   UNL     1       1.502  -1.093   3.586  0.00  0.00    +0.150 HD
ATOM      8  H   UNL     1       0.446  -0.665   6.887  0.00  0.00    +0.172 HD
BRANCH   3   9
ATOM      9  C   UNL     1      -0.042  -0.124   2.497  0.00  0.00    +0.106 C 
BRANCH   9  10
ATOM     10  C   UNL     1       0.742  -0.511   1.242  0.00  0.00    +0.022 C 
BRANCH  10  12
ATOM     11  C   UNL     1      -0.019   1.526   0.010  0.00  0.00    +0.007 C 
ATOM     12  C   UNL     1       0.002  -0.004   0.002  0.00  0.00    -0.016 C 
ATOM     13  C   UNL     1       0.718  -0.497  -1.257  0.00  0.00    +0.007 C 
ENDBRANCH  10  12
ENDBRANCH   9  10
ENDBRANCH   3   9
ENDBRANCH   1   6
BRANCH   1  14
ATOM     14  S   UNL     1       3.374  -1.008   6.655  0.00  0.00    +0.074 S 
ATOM     15  O   UNL     1       4.376  -1.990   6.432  0.00  0.00    -0.152 OA
ATOM     16  O   UNL     1       3.553   0.357   6.302  0.00  0.00    -0.152 OA
BRANCH  14  17
ATOM     17  C   UNL     1       3.014  -1.038   8.380  0.00  0.00    +0.107 A 
ATOM     18  C   UNL     1       2.471   0.075   8.995  0.00  0.00    +0.032 A 
ATOM     19  C   UNL     1       2.183   0.055  10.344  0.00  0.00    +0.048 A 
ATOM     20  C   UNL     1       2.439  -1.087  11.099  0.00  0.00    +0.124 A 
ATOM     21  C   UNL     1       2.991  -2.196  10.471  0.00  0.00    -0.001 A 
ATOM     22  C   UNL     1       3.268  -2.178   9.122  0.00  0.00    +0.036 A 
ATOM     23  C   UNL     1       3.176  -3.262  11.534  0.00  0.00    +0.080 C 
ATOM     24  C   UNL     1       3.028  -2.443  12.838  0.00  0.00    +0.234 C 
ATOM     25  O   UNL     1       2.225  -1.325  12.422  0.00  0.00    -0.491 OA
ENDBRANCH  14  17
ENDBRANCH   1  14
TORSDOF 6
