REMARK  Name = ZINC01441645
REMARK  4 active torsions:
REMARK  status: ('A' for Active; 'I' for Inactive)
REMARK    1  A    between atoms: C_4  and  S_7
REMARK    2  A    between atoms: S_7  and  N_10
REMARK    3  A    between atoms: N_10  and  N_11
REMARK    4  A    between atoms: C_12  and  C_23
REMARK                            x       y       z     vdW  Elec       q    Type
REMARK                         _______ _______ _______ _____ _____    ______ ____
ROOT
ATOM      1  N   UNL     1       4.723  -0.133  -2.287  0.00  0.00    -0.189 N 
ATOM      2  C   UNL     1       5.999   0.540  -2.532  0.00  0.00    +0.212 C 
ATOM      3  N   UNL     1       5.994   1.174  -3.856  0.00  0.00    -0.320 N 
ATOM      4  C   UNL     1       4.866   1.889  -4.245  0.00  0.00    +0.041 A 
ATOM      5  C   UNL     1       4.944   2.967  -5.110  0.00  0.00    +0.024 A 
ATOM      6  C   UNL     1       3.793   3.646  -5.461  0.00  0.00    +0.002 A 
ATOM      7  C   UNL     1       2.563   3.256  -4.955  0.00  0.00    +0.001 A 
ATOM      8  C   UNL     1       2.468   2.183  -4.093  0.00  0.00    +0.015 A 
ATOM      9  C   UNL     1       3.620   1.489  -3.732  0.00  0.00    +0.059 A 
ATOM     10  C   UNL     1       3.575   0.328  -2.825  0.00  0.00    +0.265 C 
ATOM     11  O   UNL     1       2.515  -0.206  -2.562  0.00  0.00    -0.268 OA
ATOM     12  H   UNL     1       6.759   1.096  -4.446  0.00  0.00    +0.148 HD
ENDROOT
BRANCH   2  13
ATOM     13  C   UNL     1       6.218   1.594  -1.478  0.00  0.00    +0.010 A 
ATOM     14  C   UNL     1       5.598   1.490  -0.242  0.00  0.00    +0.010 A 
ATOM     15  C   UNL     1       5.828   2.483   0.697  0.00  0.00    +0.020 A 
ATOM     16  C   UNL     1       6.662   3.537   0.373  0.00  0.00    +0.111 A 
ATOM     17  N   UNL     1       7.234   3.603  -0.813  0.00  0.00    -0.263 NA
ATOM     18  C   UNL     1       7.043   2.674  -1.729  0.00  0.00    +0.117 A 
ENDBRANCH   2  13
BRANCH   1  19
ATOM     19  N   UNL     1       4.694  -1.280  -1.484  0.00  0.00    -0.103 NA
ATOM     20  H   UNL     1       4.603  -1.196  -0.522  0.00  0.00    +0.172 HD
BRANCH  19  21
ATOM     21  S   UNL     1       4.816  -2.780  -2.176  0.00  0.00    +0.074 S 
ATOM     22  O   UNL     1       3.776  -2.867  -3.141  0.00  0.00    -0.152 OA
ATOM     23  O   UNL     1       4.946  -3.710  -1.110  0.00  0.00    -0.152 OA
BRANCH  21  27
ATOM     24  C   UNL     1       8.719  -2.882  -4.467  0.00  0.00    +0.000 A 
ATOM     25  C   UNL     1       7.561  -2.462  -5.093  0.00  0.00    +0.002 A 
ATOM     26  C   UNL     1       6.369  -2.430  -4.394  0.00  0.00    +0.028 A 
ATOM     27  C   UNL     1       6.335  -2.820  -3.068  0.00  0.00    +0.107 A 
ATOM     28  C   UNL     1       7.493  -3.241  -2.441  0.00  0.00    +0.028 A 
ATOM     29  C   UNL     1       8.685  -3.272  -3.141  0.00  0.00    +0.002 A 
ENDBRANCH  21  27
ENDBRANCH  19  21
ENDBRANCH   1  19
TORSDOF 4
