REMARK  Name = ZINC04545182
REMARK  11 active torsions:
REMARK  status: ('A' for Active; 'I' for Inactive)
REMARK    1  A    between atoms: C_1  and  C_2
REMARK    2  A    between atoms: C_7  and  O_8
REMARK    3  A    between atoms: O_8  and  C_9
REMARK    4  A    between atoms: C_9  and  C_10
REMARK    5  A    between atoms: C_10  and  C_11
REMARK    6  A    between atoms: C_11  and  O_12
REMARK    7  A    between atoms: O_12  and  C_13
REMARK    8  A    between atoms: C_16  and  C_21
REMARK    9  A    between atoms: C_18  and  O_19
REMARK   10  A    between atoms: O_19  and  C_20
REMARK   11  A    between atoms: N_22  and  N_23
REMARK                            x       y       z     vdW  Elec       q    Type
REMARK                         _______ _______ _______ _____ _____    ______ ____
ROOT
ATOM      1  C   UNL     1       0.002  -0.004   0.002  0.00  0.00    +0.162 A 
ATOM      2  C   UNL     1       1.214  -0.679  -0.019  0.00  0.00    +0.050 A 
ATOM      3  C   UNL     1       1.238  -2.058  -0.021  0.00  0.00    +0.013 A 
ATOM      4  C   UNL     1       0.041  -2.778  -0.013  0.00  0.00    -0.002 A 
ATOM      5  C   UNL     1      -1.179  -2.098   0.003  0.00  0.00    +0.059 A 
ATOM      6  C   UNL     1      -1.196  -0.715   0.010  0.00  0.00    +0.162 A 
ENDROOT
BRANCH   6   7
ATOM      7  O   UNL     1      -2.382  -0.050   0.025  0.00  0.00    -0.491 OA
ATOM      8  C   UNL     1      -3.571  -0.842   0.032  0.00  0.00    +0.277 C 
ENDBRANCH   6   7
BRANCH   4   9
ATOM      9  C   UNL     1       0.065  -4.252  -0.021  0.00  0.00    +0.138 C 
ATOM     10  N   UNL     1       1.199  -4.883  -0.035  0.00  0.00    -0.186 NA
BRANCH  10  11
ATOM     11  N   UNL     1       1.221  -6.284  -0.043  0.00  0.00    -0.191 N 
ATOM     12  C   UNL     1       2.399  -6.938  -0.058  0.00  0.00    +0.317 C 
ATOM     13  O   UNL     1       2.419  -8.154  -0.064  0.00  0.00    -0.251 OA
ATOM     14  N   UNL     1       3.555  -6.246  -0.065  0.00  0.00    -0.312 N 
ATOM     15  H   UNL     1       0.389  -6.782  -0.038  0.00  0.00    +0.179 HD
ATOM     16  H   UNL     1       3.540  -5.276  -0.060  0.00  0.00    +0.147 HD
ATOM     17  H   UNL     1       4.403  -6.717  -0.076  0.00  0.00    +0.147 HD
ENDBRANCH  10  11
ENDBRANCH   4   9
BRANCH   1  18
ATOM     18  O   UNL     1      -0.016   1.355   0.009  0.00  0.00    -0.488 OA
BRANCH  18  19
ATOM     19  C   UNL     1       1.248   2.021   0.001  0.00  0.00    +0.232 C 
BRANCH  19  20
ATOM     20  C   UNL     1       1.027   3.535   0.011  0.00  0.00    +0.082 C 
BRANCH  20  21
ATOM     21  C   UNL     1       2.381   4.248   0.002  0.00  0.00    +0.232 C 
BRANCH  21  22
ATOM     22  O   UNL     1       2.174   5.662   0.012  0.00  0.00    -0.492 OA
BRANCH  22  29
ATOM     23  C   UNL     1       1.788   8.460   0.031  0.00  0.00    +0.047 C 
ATOM     24  C   UNL     1       3.156   7.829   0.014  0.00  0.00    -0.009 A 
ATOM     25  C   UNL     1       4.285   8.625   0.007  0.00  0.00    +0.007 A 
ATOM     26  C   UNL     1       5.541   8.047  -0.008  0.00  0.00    +0.000 A 
ATOM     27  C   UNL     1       5.670   6.670  -0.016  0.00  0.00    +0.004 A 
ATOM     28  C   UNL     1       4.544   5.869  -0.004  0.00  0.00    +0.046 A 
ATOM     29  C   UNL     1       3.283   6.448   0.005  0.00  0.00    +0.123 A 
ENDBRANCH  22  29
ENDBRANCH  21  22
ENDBRANCH  20  21
ENDBRANCH  19  20
ENDBRANCH  18  19
ENDBRANCH   1  18
TORSDOF 9
