REMARK  Name = ZINC37759137
REMARK  8 active torsions:
REMARK  status: ('A' for Active; 'I' for Inactive)
REMARK    1  A    between atoms: C_1  and  C_2
REMARK    2  A    between atoms: C_2  and  C_4
REMARK    3  A    between atoms: C_2  and  N_7
REMARK    4  A    between atoms: C_4  and  C_5
REMARK    5  A    between atoms: C_4  and  C_6
REMARK    6  A    between atoms: N_7  and  C_8
REMARK    7  A    between atoms: C_10  and  C_16
REMARK    8  A    between atoms: C_12  and  N_15
REMARK                            x       y       z     vdW  Elec       q    Type
REMARK                         _______ _______ _______ _____ _____    ______ ____
ROOT
ATOM      1  N   UNL     1       0.669  -0.506  -1.245  0.00  0.00    -0.314 N 
ATOM      2  C   UNL     1       0.446   0.039  -2.587  0.00  0.00    +0.131 C 
ATOM      3  C   UNL     1       1.590  -1.525  -1.055  0.00  0.00    +0.139 A 
ATOM      4  C   UNL     1       2.916  -1.212  -0.711  0.00  0.00    +0.093 A 
ATOM      5  C   UNL     1       3.829  -2.256  -0.524  0.00  0.00    +0.046 A 
ATOM      6  C   UNL     1       3.381  -3.561  -0.688  0.00  0.00    +0.044 A 
ATOM      7  C   UNL     1       2.054  -3.787  -1.030  0.00  0.00    +0.135 A 
ATOM      8  N   UNL     1       1.212  -2.785  -1.195  0.00  0.00    -0.237 NA
ENDROOT
BRANCH   6   9
ATOM      9  N   UNL     1       4.260  -4.638  -0.512  0.00  0.00    -0.357 N 
ATOM     10  H   UNL     1       5.186  -4.474  -0.274  0.00  0.00    +0.142 HD
ATOM     11  H   UNL     1       3.942  -5.547  -0.628  0.00  0.00    +0.142 HD
ENDBRANCH   6   9
BRANCH   1  13
ATOM     12  C   UNL     1       0.115   1.542  -0.028  0.00  0.00    +0.028 C 
ATOM     13  C   UNL     1      -0.080   0.026  -0.104  0.00  0.00    +0.074 C 
BRANCH  13  14
ATOM     14  C   UNL     1      -1.567  -0.289  -0.279  0.00  0.00    +0.003 C 
ATOM     15  C   UNL     1      -1.754  -1.800  -0.425  0.00  0.00    +0.009 C 
ATOM     16  C   UNL     1      -2.340   0.205   0.946  0.00  0.00    +0.009 C 
ENDBRANCH  13  14
ENDBRANCH   1  13
BRANCH   4  17
ATOM     17  C   UNL     1       3.325   0.151  -0.555  0.00  0.00    +0.103 C 
ATOM     18  N   UNL     1       3.650   1.232  -0.431  0.00  0.00    -0.191 NA
ENDBRANCH   4  17
TORSDOF 4
