REMARK  Name = ZINC09694593
REMARK  2 active torsions:
REMARK  status: ('A' for Active; 'I' for Inactive)
REMARK    1  A    between atoms: C_5  and  C_7
REMARK    2  A    between atoms: C_9  and  C_18
REMARK                            x       y       z     vdW  Elec       q    Type
REMARK                         _______ _______ _______ _____ _____    ______ ____
ROOT
ATOM      1  C   UNL     1      -0.083   3.825   0.239  0.00  0.00    -0.000 A 
ATOM      2  C   UNL     1      -0.227   5.200   0.352  0.00  0.00    +0.041 A 
ATOM      3  C   UNL     1      -1.511   5.761   0.350  0.00  0.00    +0.109 A 
ATOM      4  N   UNL     1      -2.598   5.009   0.242  0.00  0.00    -0.224 NA
ATOM      5  C   UNL     1      -2.521   3.685   0.130  0.00  0.00    +0.166 A 
ATOM      6  C   UNL     1      -1.258   3.045   0.130  0.00  0.00    +0.066 A 
ATOM      7  C   UNL     1      -1.214   1.640   0.004  0.00  0.00    +0.129 A 
ATOM      8  N   UNL     1      -2.364   0.983  -0.099  0.00  0.00    -0.220 NA
ATOM      9  C   UNL     1      -3.523   1.620  -0.090  0.00  0.00    +0.225 A 
ATOM     10  N   UNL     1      -3.621   2.924   0.020  0.00  0.00    -0.216 NA
ATOM     11  N   UNL     1      -0.011   0.967  -0.006  0.00  0.00    -0.343 N 
ATOM     12  H   UNL     1       0.110   0.198  -0.585  0.00  0.00    +0.144 HD
ATOM     13  H   UNL     1       0.716   1.264   0.564  0.00  0.00    +0.144 HD
ENDROOT
BRANCH   1  18
ATOM     14  C   UNL     1       3.271   2.585   1.394  0.00  0.00    +0.001 A 
ATOM     15  C   UNL     1       3.763   2.014   0.233  0.00  0.00    +0.001 A 
ATOM     16  C   UNL     1       3.008   2.029  -0.926  0.00  0.00    +0.020 A 
ATOM     17  C   UNL     1       1.755   2.611  -0.929  0.00  0.00    +0.049 A 
ATOM     18  C   UNL     1       1.257   3.193   0.237  0.00  0.00    +0.001 A 
ATOM     19  C   UNL     1       2.024   3.174   1.402  0.00  0.00    +0.010 A 
ATOM     20 CL   UNL     1       0.806   2.623  -2.383  0.00  0.00    -0.083 Cl
ENDBRANCH   1  18
BRANCH   3  21
ATOM     21  C   UNL     1      -1.658   7.224   0.470  0.00  0.00    +0.153 A 
ATOM     22  C   UNL     1      -2.833   7.912   0.477  0.00  0.00    +0.051 A 
ATOM     23  C   UNL     1      -2.505   9.273   0.614  0.00  0.00    +0.042 A 
ATOM     24  C   UNL     1      -1.159   9.352   0.674  0.00  0.00    +0.196 A 
ATOM     25  O   UNL     1      -0.652   8.113   0.587  0.00  0.00    -0.461 OA
ENDBRANCH   3  21
TORSDOF 2
