REMARK  Name = ZINC40734277
REMARK  6 active torsions:
REMARK  status: ('A' for Active; 'I' for Inactive)
REMARK    1  A    between atoms: C_9  and  N_11
REMARK    2  A    between atoms: C_13  and  N_27
REMARK    3  A    between atoms: C_14  and  N_18
REMARK    4  A    between atoms: N_21  and  C_24
REMARK    5  A    between atoms: C_24  and  C_25
REMARK    6  A    between atoms: C_25  and  O_26
REMARK                            x       y       z     vdW  Elec       q    Type
REMARK                         _______ _______ _______ _____ _____    ______ ____
ROOT
ATOM      1  N   UNL     1       1.198  -2.095  -0.071  0.00  0.00    -0.296 N 
ATOM      2  C   UNL     1       0.003  -2.792   0.066  0.00  0.00    +0.149 A 
ATOM      3  C   UNL     1       0.004  -4.183   0.183  0.00  0.00    +0.106 A 
ATOM      4  C   UNL     1      -1.224  -4.833   0.319  0.00  0.00    +0.147 A 
ATOM      5  N   UNL     1      -2.340  -4.108   0.332  0.00  0.00    -0.219 NA
ATOM      6  C   UNL     1      -2.296  -2.796   0.219  0.00  0.00    +0.225 A 
ATOM      7  N   UNL     1      -1.159  -2.143   0.095  0.00  0.00    -0.219 NA
ATOM      8  H   UNL     1       2.044  -2.562   0.007  0.00  0.00    +0.154 HD
ENDROOT
BRANCH   1  17
ATOM      9  C   UNL     1       0.076   1.219  -1.225  0.00  0.00    +0.003 A 
ATOM     10  C   UNL     1       1.105   2.026  -0.843  0.00  0.00    +0.010 A 
ATOM     11  C   UNL     1       2.216   1.480  -0.181  0.00  0.00    +0.002 A 
ATOM     12  C   UNL     1       3.294   2.288   0.227  0.00  0.00    +0.011 A 
ATOM     13  C   UNL     1       4.342   1.689   0.866  0.00  0.00    +0.020 A 
ATOM     14  C   UNL     1       4.322   0.316   1.097  0.00  0.00    +0.111 A 
ATOM     15  N   UNL     1       3.316  -0.433   0.716  0.00  0.00    -0.253 NA
ATOM     16  C   UNL     1       2.261   0.090   0.086  0.00  0.00    +0.092 A 
ATOM     17  C   UNL     1       1.180  -0.723  -0.322  0.00  0.00    +0.059 A 
ATOM     18  C   UNL     1       0.107  -0.149  -0.969  0.00  0.00    +0.025 A 
ENDBRANCH   1  17
BRANCH   4  19
ATOM     19  N   UNL     1      -1.281  -6.217   0.438  0.00  0.00    -0.311 N 
ATOM     20  C   UNL     1      -1.138  -6.868   1.749  0.00  0.00    +0.122 C 
ATOM     21  C   UNL     1      -2.307  -7.840   1.940  0.00  0.00    +0.103 C 
ATOM     22  N   UNL     1      -2.368  -8.758   0.794  0.00  0.00    -0.297 NA
ATOM     23  C   UNL     1      -2.640  -8.033  -0.455  0.00  0.00    +0.103 C 
ATOM     24  C   UNL     1      -1.491  -7.068  -0.743  0.00  0.00    +0.122 C 
BRANCH  22  25
ATOM     25  C   UNL     1      -3.365  -9.813   1.017  0.00  0.00    +0.112 C 
BRANCH  25  26
ATOM     26  C   UNL     1      -3.229 -10.882  -0.069  0.00  0.00    +0.171 C 
BRANCH  26  27
ATOM     27  O   UNL     1      -1.961 -11.528   0.054  0.00  0.00    -0.394 OA
ATOM     28  H   UNL     1      -1.806 -12.219  -0.604  0.00  0.00    +0.209 HD
ENDBRANCH  26  27
ENDBRANCH  25  26
ENDBRANCH  22  25
ENDBRANCH   4  19
BRANCH   3  29
ATOM     29  N   UNL     1       1.206  -4.908   0.163  0.00  0.00    -0.353 N 
ATOM     30  H   UNL     1       2.055  -4.439   0.150  0.00  0.00    +0.143 HD
ATOM     31  H   UNL     1       1.187  -5.878   0.163  0.00  0.00    +0.143 HD
ENDBRANCH   3  29
TORSDOF 6
