REMARK  Name = ZINC52008490
REMARK  7 active torsions:
REMARK  status: ('A' for Active; 'I' for Inactive)
REMARK    1  A    between atoms: C_3  and  C_9
REMARK    2  A    between atoms: C_6  and  C_7
REMARK    3  A    between atoms: C_7  and  N_8
REMARK    4  A    between atoms: C_9  and  S_10
REMARK    5  A    between atoms: S_10  and  N_13
REMARK    6  A    between atoms: N_13  and  C_14
REMARK    7  A    between atoms: C_20  and  O_22
REMARK                            x       y       z     vdW  Elec       q    Type
REMARK                         _______ _______ _______ _____ _____    ______ ____
ROOT
ATOM      1  S   UNL     1       4.208   2.483   1.684  0.00  0.00    +0.034 S 
ATOM      2  O   UNL     1       3.314   3.381   2.327  0.00  0.00    -0.158 OA
ATOM      3  O   UNL     1       4.577   1.259   2.305  0.00  0.00    -0.158 OA
ENDROOT
BRANCH   1   4
ATOM      4  N   UNL     1       5.625   3.329   1.542  0.00  0.00    -0.189 NA
ATOM      5  H   UNL     1       6.458   2.935   1.847  0.00  0.00    +0.148 HD
BRANCH   4   6
ATOM      6  C   UNL     1       5.622   4.671   0.955  0.00  0.00    +0.105 C 
ATOM      7  C   UNL     1       5.536   5.715   2.071  0.00  0.00    +0.023 C 
ATOM      8  C   UNL     1       5.532   7.117   1.458  0.00  0.00    +0.002 C 
ATOM      9  C   UNL     1       6.820   7.328   0.659  0.00  0.00    +0.003 C 
ATOM     10  C   UNL     1       6.905   6.284  -0.456  0.00  0.00    +0.033 C 
ATOM     11  C   UNL     1       6.909   4.882   0.157  0.00  0.00    +0.133 C 
BRANCH  11  12
ATOM     12  O   UNL     1       6.989   3.907  -0.885  0.00  0.00    -0.390 OA
ATOM     13  H   UNL     1       7.782   3.981  -1.433  0.00  0.00    +0.210 HD
ENDBRANCH  11  12
ENDBRANCH   4   6
ENDBRANCH   1   4
BRANCH   1  14
ATOM     14  C   UNL     1       3.672   2.182  -0.022  0.00  0.00    +0.220 C 
BRANCH  14  17
ATOM     15  C   UNL     1      -0.017   1.378   0.010  0.00  0.00    +0.002 A 
ATOM     16  C   UNL     1       1.171   2.086   0.002  0.00  0.00    +0.005 A 
ATOM     17  C   UNL     1       2.377   1.411  -0.013  0.00  0.00    -0.025 A 
ATOM     18  C   UNL     1       2.396   0.029  -0.020  0.00  0.00    +0.005 A 
ATOM     19  C   UNL     1       1.208  -0.679  -0.012  0.00  0.00    +0.002 A 
ATOM     20  C   UNL     1       0.002  -0.004   0.002  0.00  0.00    -0.065 A 
BRANCH  20  21
ATOM     21  C   UNL     1      -1.293  -0.775   0.011  0.00  0.00    -0.051 C 
BRANCH  21  22
ATOM     22  N   UNL     1      -1.727  -1.018  -1.371  0.00  0.00    +0.381 N 
ATOM     23  H   UNL     1      -1.864  -0.136  -1.841  0.00  0.00    -0.090 HD
ATOM     24  H   UNL     1      -1.021  -1.552  -1.857  0.00  0.00    -0.090 HD
ATOM     25  H   UNL     1      -2.594  -1.535  -1.366  0.00  0.00    -0.090 HD
ENDBRANCH  21  22
ENDBRANCH  20  21
ENDBRANCH  14  17
ENDBRANCH   1  14
TORSDOF 7
