REMARK  Name = ZINC61323942
REMARK  6 active torsions:
REMARK  status: ('A' for Active; 'I' for Inactive)
REMARK    1  A    between atoms: C_1  and  C_2
REMARK    2  A    between atoms: C_5  and  C_8
REMARK    3  A    between atoms: C_8  and  N_9
REMARK    4  A    between atoms: N_9  and  S_10
REMARK    5  A    between atoms: S_10  and  C_13
REMARK    6  A    between atoms: C_18  and  N_19
REMARK                            x       y       z     vdW  Elec       q    Type
REMARK                         _______ _______ _______ _____ _____    ______ ____
ROOT
ATOM      1  S   UNL     1      -1.613  -6.281  -0.737  0.00  0.00    +0.062 S 
ATOM      2  O   UNL     1      -2.999  -6.546  -0.901  0.00  0.00    -0.153 OA
ATOM      3  O   UNL     1      -0.682  -6.405  -1.804  0.00  0.00    -0.153 OA
ENDROOT
BRANCH   1   4
ATOM      4  C   UNL     1      -1.046  -7.342   0.551  0.00  0.00    +0.146 A 
ATOM      5  C   UNL     1       0.086  -8.117   0.373  0.00  0.00    +0.048 A 
ATOM      6  C   UNL     1       0.496  -8.939   1.415  0.00  0.00    +0.038 A 
ATOM      7  C   UNL     1      -0.233  -8.959   2.589  0.00  0.00    +0.128 A 
ATOM      8  N   UNL     1      -1.309  -8.208   2.729  0.00  0.00    -0.238 NA
ATOM      9  C   UNL     1      -1.728  -7.407   1.761  0.00  0.00    +0.143 A 
ATOM     10 BR   UNL     1       2.035 -10.021   1.229  0.00  0.00    -0.049 Br
BRANCH   9  11
ATOM     11  N   UNL     1      -2.864  -6.629   1.955  0.00  0.00    -0.342 N 
ATOM     12  H   UNL     1      -3.126  -5.978   1.285  0.00  0.00    +0.144 HD
ATOM     13  H   UNL     1      -3.394  -6.736   2.760  0.00  0.00    +0.144 HD
ENDBRANCH   9  11
ENDBRANCH   1   4
BRANCH   1  14
ATOM     14  N   UNL     1      -1.490  -4.727  -0.180  0.00  0.00    -0.184 NA
ATOM     15  H   UNL     1      -2.290  -4.192  -0.053  0.00  0.00    +0.148 HD
BRANCH  14  16
ATOM     16  C   UNL     1      -0.174  -4.158   0.121  0.00  0.00    +0.162 C 
BRANCH  16  21
ATOM     17  C   UNL     1      -0.616   1.491   0.625  0.00  0.00    +0.067 C 
ATOM     18  C   UNL     1      -0.500  -0.007   0.505  0.00  0.00    +0.056 A 
ATOM     19  C   UNL     1      -0.330  -0.591  -0.738  0.00  0.00    +0.134 A 
ATOM     20  N   UNL     1      -0.228  -1.904  -0.842  0.00  0.00    -0.255 NA
ATOM     21  C   UNL     1      -0.290  -2.660   0.240  0.00  0.00    +0.075 A 
ATOM     22  C   UNL     1      -0.461  -2.076   1.483  0.00  0.00    +0.135 A 
ATOM     23  N   UNL     1      -0.557  -0.762   1.588  0.00  0.00    -0.257 NA
ENDBRANCH  16  21
ENDBRANCH  14  16
ENDBRANCH   1  14
TORSDOF 5
