REMARK  Name = ZINC36506461
REMARK  11 active torsions:
REMARK  status: ('A' for Active; 'I' for Inactive)
REMARK    1  A    between atoms: C_3  and  C_6
REMARK    2  A    between atoms: C_6  and  N_7
REMARK    3  A    between atoms: N_7  and  C_8
REMARK    4  A    between atoms: C_8  and  C_10
REMARK    5  A    between atoms: C_8  and  C_19
REMARK    6  A    between atoms: C_11  and  O_18
REMARK    7  A    between atoms: C_13  and  O_17
REMARK    8  A    between atoms: C_15  and  O_16
REMARK    9  A    between atoms: N_21  and  C_22
REMARK   10  A    between atoms: C_28  and  C_30
REMARK   11  A    between atoms: C_33  and  N_36
REMARK                            x       y       z     vdW  Elec       q    Type
REMARK                         _______ _______ _______ _____ _____    ______ ____
ROOT
ATOM      1  C   UNL     1       4.536  -0.689   2.473  0.00  0.00    +0.200 C 
ENDROOT
BRANCH   1   2
ATOM      2  C   UNL     1       3.374  -1.514   2.966  0.00  0.00    +0.065 A 
ATOM      3  C   UNL     1       2.373  -1.896   2.086  0.00  0.00    +0.129 A 
ATOM      4  C   UNL     1       1.304  -2.655   2.539  0.00  0.00    +0.091 A 
ATOM      5  C   UNL     1       1.237  -3.032   3.872  0.00  0.00    +0.124 A 
ATOM      6  C   UNL     1       2.239  -2.650   4.751  0.00  0.00    +0.091 A 
ATOM      7  C   UNL     1       3.310  -1.895   4.297  0.00  0.00    +0.129 A 
BRANCH   7   8
ATOM      8  O   UNL     1       4.294  -1.525   5.158  0.00  0.00    -0.506 OA
ATOM      9  H   UNL     1       4.135  -0.679   5.598  0.00  0.00    +0.292 HD
ENDBRANCH   7   8
BRANCH   5  10
ATOM     10  O   UNL     1       0.190  -3.774   4.316  0.00  0.00    -0.507 OA
ATOM     11  H   UNL     1       0.332  -4.729   4.258  0.00  0.00    +0.292 HD
ENDBRANCH   5  10
BRANCH   3  12
ATOM     12  O   UNL     1       2.438  -1.527   0.780  0.00  0.00    -0.506 OA
ATOM     13  H   UNL     1       2.828  -2.196   0.201  0.00  0.00    +0.292 HD
ENDBRANCH   3  12
ENDBRANCH   1   2
BRANCH   1  14
ATOM     14  C   UNL     1       5.066  -1.282   1.193  0.00  0.00    +0.239 C 
ATOM     15  O   UNL     1       5.071  -0.623   0.176  0.00  0.00    -0.273 OA
ATOM     16  N   UNL     1       5.535  -2.546   1.180  0.00  0.00    -0.311 N 
ATOM     17  H   UNL     1       5.531  -3.073   1.994  0.00  0.00    +0.149 HD
BRANCH  16  18
ATOM     18  C   UNL     1       6.051  -3.123  -0.064  0.00  0.00    +0.073 C 
ATOM     19  C   UNL     1       4.891  -3.700  -0.878  0.00  0.00    +0.022 C 
ATOM     20  C   UNL     1       5.429  -4.303  -2.177  0.00  0.00    +0.002 C 
ATOM     21  C   UNL     1       6.426  -5.416  -1.848  0.00  0.00    +0.000 C 
ATOM     22  C   UNL     1       7.586  -4.838  -1.035  0.00  0.00    +0.002 C 
ATOM     23  C   UNL     1       7.047  -4.236   0.265  0.00  0.00    +0.022 C 
ENDBRANCH  16  18
ENDBRANCH   1  14
BRANCH   1  24
ATOM     24  N   UNL     1       4.090   0.684   2.227  0.00  0.00    -0.274 N 
ATOM     25  C   UNL     1       4.996   1.661   2.025  0.00  0.00    +0.248 C 
ATOM     26  O   UNL     1       4.648   2.724   1.547  0.00  0.00    -0.270 OA
BRANCH  25  27
ATOM     27  C   UNL     1       6.413   1.441   2.384  0.00  0.00    +0.037 A 
ATOM     28  C   UNL     1       6.927   0.144   2.443  0.00  0.00    +0.015 A 
ATOM     29  C   UNL     1       8.251  -0.054   2.778  0.00  0.00    +0.033 A 
ATOM     30  C   UNL     1       9.067   1.028   3.056  0.00  0.00    +0.126 A 
ATOM     31  C   UNL     1       8.564   2.315   2.999  0.00  0.00    +0.033 A 
ATOM     32  C   UNL     1       7.244   2.528   2.659  0.00  0.00    +0.015 A 
BRANCH  30  33
ATOM     33  N   UNL     1      10.486   0.807   3.415  0.00  0.00    +0.056 N 
ATOM     34  O   UNL     1      10.929  -0.317   3.466  0.00  0.00    -0.126 OA
ATOM     35  O   UNL     1      11.202   1.750   3.658  0.00  0.00    -0.126 OA
ENDBRANCH  30  33
ENDBRANCH  25  27
BRANCH  24  36
ATOM     36  C   UNL     1       2.658   0.996   2.200  0.00  0.00    +0.183 C 
BRANCH  36  39
ATOM     37  C   UNL     1       1.415   1.578   5.620  0.00  0.00    +0.041 A 
ATOM     38  C   UNL     1       1.949   2.050   4.399  0.00  0.00    +0.046 A 
ATOM     39  C   UNL     1       2.114   0.977   3.604  0.00  0.00    +0.122 A 
ATOM     40  O   UNL     1       1.710  -0.114   4.276  0.00  0.00    -0.466 OA
ATOM     41  C   UNL     1       1.285   0.245   5.498  0.00  0.00    +0.195 A 
ENDBRANCH  36  39
ENDBRANCH  24  36
ENDBRANCH   1  24
TORSDOF 11
