REMARK  Name = ZINC45441022
REMARK  10 active torsions:
REMARK  status: ('A' for Active; 'I' for Inactive)
REMARK    1  A    between atoms: C_1  and  C_2
REMARK    2  A    between atoms: C_5  and  C_25
REMARK    3  A    between atoms: N_8  and  C_10
REMARK    4  A    between atoms: C_10  and  C_11
REMARK    5  A    between atoms: C_11  and  C_12
REMARK    6  A    between atoms: C_12  and  C_13
REMARK    7  A    between atoms: C_13  and  N_14
REMARK    8  A    between atoms: N_17  and  C_18
REMARK    9  A    between atoms: C_18  and  C_19
REMARK   10  A    between atoms: C_18  and  C_22
REMARK                            x       y       z     vdW  Elec       q    Type
REMARK                         _______ _______ _______ _____ _____    ______ ____
ROOT
ATOM      1  N   UNL     1       6.547  -0.471   4.645  0.00  0.00    -0.299 N 
ATOM      2  C   UNL     1       7.340   0.270   5.445  0.00  0.00    +0.301 C 
ATOM      3  O   UNL     1       7.910   1.247   5.000  0.00  0.00    -0.253 OA
ATOM      4  N   UNL     1       7.501  -0.073   6.739  0.00  0.00    -0.281 N 
ATOM      5  H   UNL     1       6.092  -1.250   5.001  0.00  0.00    +0.150 HD
ATOM      6  H   UNL     1       7.046  -0.853   7.094  0.00  0.00    +0.151 HD
ENDROOT
BRANCH   1   7
ATOM      7  C   UNL     1       6.372  -0.098   3.239  0.00  0.00    +0.105 C 
BRANCH   7   8
ATOM      8  C   UNL     1       5.431  -1.095   2.561  0.00  0.00    +0.017 C 
BRANCH   8   9
ATOM      9  C   UNL     1       5.248  -0.706   1.093  0.00  0.00    -0.017 C 
BRANCH   9  10
ATOM     10  C   UNL     1       4.307  -1.703   0.414  0.00  0.00    -0.079 C 
BRANCH  10  16
ATOM     11  C   UNL     1       4.806   0.472  -3.167  0.00  0.00    +0.005 C 
ATOM     12  C   UNL     1       5.256  -0.990  -3.146  0.00  0.00    -0.031 C 
ATOM     13  C   UNL     1       4.204  -1.858  -3.843  0.00  0.00    +0.003 C 
ATOM     14  C   UNL     1       2.890  -1.778  -3.061  0.00  0.00    -0.031 C 
ATOM     15  C   UNL     1       3.137  -2.215  -1.615  0.00  0.00    -0.076 C 
ATOM     16  N   UNL     1       4.131  -1.330  -0.996  0.00  0.00    +0.380 N 
ATOM     17  C   UNL     1       5.416  -1.455  -1.697  0.00  0.00    -0.076 C 
ATOM     18  C   UNL     1       1.855  -2.703  -3.705  0.00  0.00    +0.005 C 
ATOM     19  H   UNL     1       3.811  -0.375  -1.051  0.00  0.00    -0.082 HD
ENDBRANCH  10  16
ENDBRANCH   9  10
ENDBRANCH   8   9
ENDBRANCH   7   8
ENDBRANCH   1   7
BRANCH   4  20
ATOM     20  C   UNL     1       8.363   0.732   7.608  0.00  0.00    +0.246 C 
BRANCH  20  21
ATOM     21  C   UNL     1       7.575   1.890   8.163  0.00  0.00    +0.240 C 
ATOM     22  O   UNL     1       6.370   1.807   8.274  0.00  0.00    -0.273 OA
ATOM     23  N   UNL     1       8.209   3.020   8.536  0.00  0.00    -0.327 N 
ATOM     24  H   UNL     1       9.162   3.115   8.381  0.00  0.00    +0.145 HD
ATOM     25  H   UNL     1       7.712   3.737   8.960  0.00  0.00    +0.145 HD
ENDBRANCH  20  21
BRANCH  20  26
ATOM     26  C   UNL     1       8.869  -0.121   8.742  0.00  0.00    +0.240 C 
ATOM     27  O   UNL     1       8.248  -1.105   9.085  0.00  0.00    -0.273 OA
ATOM     28  N   UNL     1      10.011   0.210   9.376  0.00  0.00    -0.327 N 
ATOM     29  H   UNL     1      10.545   0.954   9.058  0.00  0.00    +0.145 HD
ATOM     30  H   UNL     1      10.300  -0.297  10.151  0.00  0.00    +0.145 HD
ENDBRANCH  20  26
ENDBRANCH   4  20
TORSDOF 8
