REMARK  Name = ZINC36545338
REMARK  16 active torsions:
REMARK  status: ('A' for Active; 'I' for Inactive)
REMARK    1  A    between atoms: C_1  and  C_2
REMARK    2  A    between atoms: C_2  and  C_3
REMARK    3  A    between atoms: C_2  and  C_4
REMARK    4  A    between atoms: C_2  and  C_5
REMARK    5  A    between atoms: C_5  and  C_6
REMARK    6  A    between atoms: C_6  and  C_7
REMARK    7  A    between atoms: C_6  and  C_8
REMARK    8  A    between atoms: C_6  and  N_9
REMARK    9  A    between atoms: C_10  and  C_12
REMARK   10  A    between atoms: C_12  and  C_14
REMARK   11  A    between atoms: C_12  and  N_21
REMARK   12  A    between atoms: C_18  and  O_20
REMARK   13  A    between atoms: N_21  and  C_22
REMARK   14  A    between atoms: C_29  and  C_31
REMARK   15  A    between atoms: C_35  and  O_38
REMARK   16  A    between atoms: C_36  and  O_37
REMARK                            x       y       z     vdW  Elec       q    Type
REMARK                         _______ _______ _______ _____ _____    ______ ____
ROOT
ATOM      1  C   UNL     1       3.814   0.595  -4.600  0.00  0.00    +0.198 C 
ENDROOT
BRANCH   1   2
ATOM      2  C   UNL     1       2.878   1.690  -5.045  0.00  0.00    -0.014 A 
ATOM      3  C   UNL     1       1.692   1.369  -5.679  0.00  0.00    +0.006 A 
ATOM      4  C   UNL     1       0.831   2.371  -6.088  0.00  0.00    +0.004 A 
ATOM      5  C   UNL     1       1.155   3.695  -5.865  0.00  0.00    +0.045 A 
ATOM      6  C   UNL     1       2.345   4.019  -5.230  0.00  0.00    +0.117 A 
ATOM      7  C   UNL     1       3.204   3.012  -4.814  0.00  0.00    +0.051 A 
BRANCH   6   8
ATOM      8  O   UNL     1       2.666   5.321  -5.009  0.00  0.00    -0.507 OA
ATOM      9  H   UNL     1       2.349   5.667  -4.163  0.00  0.00    +0.292 HD
ENDBRANCH   6   8
ENDBRANCH   1   2
BRANCH   1  11
ATOM     10  N   UNL     1       2.947   0.552  -2.284  0.00  0.00    -0.308 N 
ATOM     11  C   UNL     1       4.006   0.675  -3.108  0.00  0.00    +0.239 C 
ATOM     12  O   UNL     1       5.115   0.849  -2.648  0.00  0.00    -0.273 OA
ATOM     13  H   UNL     1       2.060   0.412  -2.652  0.00  0.00    +0.149 HD
BRANCH  10  14
ATOM     14  C   UNL     1       3.134   0.629  -0.833  0.00  0.00    +0.030 C 
ATOM     15  C   UNL     1       3.900   1.908  -0.485  0.00  0.00    +0.031 C 
ATOM     16  C   UNL     1       3.929  -0.587  -0.356  0.00  0.00    +0.031 C 
BRANCH  14  17
ATOM     17  C   UNL     1       1.769   0.649  -0.143  0.00  0.00    +0.031 C 
BRANCH  17  19
ATOM     18  C   UNL     1       0.191   0.806  -2.074  0.00  0.00    +0.010 C 
ATOM     19  C   UNL     1       0.822   1.574  -0.911  0.00  0.00    -0.036 C 
ATOM     20  C   UNL     1       1.607   2.769  -1.456  0.00  0.00    +0.010 C 
ATOM     21  C   UNL     1      -0.278   2.072   0.028  0.00  0.00    +0.010 C 
ENDBRANCH  17  19
ENDBRANCH  14  17
ENDBRANCH  10  14
ENDBRANCH   1  11
BRANCH   1  22
ATOM     22  N   UNL     1       5.107   0.757  -5.269  0.00  0.00    -0.250 N 
ATOM     23  C   UNL     1       5.665  -0.285  -5.918  0.00  0.00    +0.255 C 
ATOM     24  O   UNL     1       5.054  -1.330  -6.029  0.00  0.00    -0.269 OA
BRANCH  22  25
ATOM     25  C   UNL     1       5.763   1.992  -5.234  0.00  0.00    +0.056 A 
ATOM     26  C   UNL     1       6.603   2.304  -4.174  0.00  0.00    +0.025 A 
ATOM     27  C   UNL     1       7.250   3.524  -4.143  0.00  0.00    +0.002 A 
ATOM     28  C   UNL     1       7.061   4.435  -5.166  0.00  0.00    +0.002 A 
ATOM     29  C   UNL     1       6.226   4.128  -6.224  0.00  0.00    +0.022 A 
ATOM     30  C   UNL     1       5.580   2.907  -6.264  0.00  0.00    +0.062 A 
ATOM     31 CL   UNL     1       4.536   2.519  -7.596  0.00  0.00    -0.082 Cl
ENDBRANCH  22  25
BRANCH  23  32
ATOM     32  C   UNL     1       7.018  -0.157  -6.492  0.00  0.00    +0.082 A 
ATOM     33  C   UNL     1       8.084   0.264  -5.691  0.00  0.00    +0.017 A 
ATOM     34  C   UNL     1       9.346   0.383  -6.231  0.00  0.00    +0.005 A 
ATOM     35  C   UNL     1       9.567   0.087  -7.566  0.00  0.00    +0.049 A 
ATOM     36  C   UNL     1       8.521  -0.332  -8.372  0.00  0.00    +0.159 A 
ATOM     37  C   UNL     1       7.242  -0.462  -7.839  0.00  0.00    +0.171 A 
BRANCH  37  38
ATOM     38  O   UNL     1       6.216  -0.877  -8.625  0.00  0.00    -0.503 OA
ATOM     39  H   UNL     1       5.746  -0.159  -9.071  0.00  0.00    +0.292 HD
ENDBRANCH  37  38
BRANCH  36  40
ATOM     40  O   UNL     1       8.746  -0.620  -9.682  0.00  0.00    -0.503 OA
ATOM     41  H   UNL     1       8.982  -1.543  -9.846  0.00  0.00    +0.292 HD
ENDBRANCH  36  40
ENDBRANCH  23  32
ENDBRANCH   1  22
TORSDOF 11
