REMARK  Name = ZINC01382080
REMARK  9 active torsions:
REMARK  status: ('A' for Active; 'I' for Inactive)
REMARK    1  A    between atoms: C_1  and  C_2
REMARK    2  A    between atoms: C_5  and  C_41
REMARK    3  A    between atoms: C_9  and  C_14
REMARK    4  A    between atoms: C_14  and  C_16
REMARK    5  A    between atoms: C_14  and  N_27
REMARK    6  A    between atoms: N_20  and  C_21
REMARK    7  A    between atoms: C_21  and  C_22
REMARK    8  A    between atoms: N_30  and  C_33
REMARK    9  A    between atoms: C_38  and  C_39
REMARK                            x       y       z     vdW  Elec       q    Type
REMARK                         _______ _______ _______ _____ _____    ______ ____
ROOT
ATOM      1  C   UNL     1       0.048  -0.071   4.974  0.00  0.00    +0.162 C 
ENDROOT
BRANCH   1  10
ATOM      2  C   UNL     1      -0.018   1.503   0.010  0.00  0.00    +0.044 C 
ATOM      3  C   UNL     1       0.002  -0.004   0.002  0.00  0.00    -0.041 A 
ATOM      4  C   UNL     1       0.006  -0.684  -1.183  0.00  0.00    +0.004 A 
ATOM      5  C   UNL     1       0.025  -2.071  -1.202  0.00  0.00    +0.005 A 
ATOM      6  C   UNL     1       0.041  -2.791  -0.026  0.00  0.00    -0.026 A 
ATOM      7  C   UNL     1       0.037  -2.120   1.193  0.00  0.00    +0.052 A 
ATOM      8  C   UNL     1       0.023  -0.713   1.208  0.00  0.00    +0.002 A 
ATOM      9  C   UNL     1       0.025  -0.017   2.495  0.00  0.00    +0.021 A 
ATOM     10  C   UNL     1       0.045  -0.756   3.632  0.00  0.00    +0.042 A 
ATOM     11  C   UNL     1       0.065  -2.166   3.562  0.00  0.00    +0.254 A 
ATOM     12  O   UNL     1       0.083  -2.812   4.595  0.00  0.00    -0.268 OA
ATOM     13  N   UNL     1       0.053  -2.814   2.384  0.00  0.00    -0.322 N 
ATOM     14  H   UNL     1       0.066  -3.784   2.372  0.00  0.00    +0.169 HD
ATOM     15  C   UNL     1       0.061  -4.297  -0.061  0.00  0.00    +0.046 C 
ENDBRANCH   1  10
BRANCH   1  16
ATOM     16  N   UNL     1      -1.073  -0.572   5.781  0.00  0.00    -0.286 NA
ATOM     17  C   UNL     1      -2.349  -0.400   5.074  0.00  0.00    +0.104 C 
ATOM     18  C   UNL     1      -3.464  -1.093   5.864  0.00  0.00    +0.120 C 
ATOM     19  N   UNL     1      -3.444  -0.586   7.245  0.00  0.00    -0.327 N 
ATOM     20  C   UNL     1      -2.166  -0.599   7.972  0.00  0.00    +0.120 C 
ATOM     21  C   UNL     1      -1.102   0.076   7.099  0.00  0.00    +0.104 C 
BRANCH  19  22
ATOM     22  C   UNL     1      -4.608  -0.104   7.848  0.00  0.00    +0.034 A 
ATOM     23  C   UNL     1      -5.430  -0.967   8.563  0.00  0.00    +0.043 A 
ATOM     24  C   UNL     1      -6.580  -0.487   9.159  0.00  0.00    +0.043 A 
ATOM     25  C   UNL     1      -6.914   0.852   9.043  0.00  0.00    +0.020 A 
ATOM     26  C   UNL     1      -6.098   1.712   8.332  0.00  0.00    +0.006 A 
ATOM     27  C   UNL     1      -4.944   1.239   7.739  0.00  0.00    -0.029 A 
ATOM     28  C   UNL     1      -4.051   2.179   6.971  0.00  0.00    +0.045 C 
ATOM     29 CL   UNL     1      -7.609  -1.563  10.052  0.00  0.00    -0.083 Cl
ENDBRANCH  19  22
ENDBRANCH   1  16
BRANCH   1  30
ATOM     30  C   UNL     1       1.346  -0.359   5.683  0.00  0.00    +0.173 A 
ATOM     31  N   UNL     1       1.691  -1.486   6.256  0.00  0.00    -0.111 NA
ATOM     32  N   UNL     1       2.872  -1.337   6.750  0.00  0.00    -0.023 NA
ATOM     33  N   UNL     1       3.289  -0.143   6.505  0.00  0.00    -0.043 NA
ATOM     34  N   UNL     1       2.379   0.489   5.845  0.00  0.00    -0.220 N 
BRANCH  34  35
ATOM     35  C   UNL     1       2.454   1.871   5.364  0.00  0.00    +0.221 C 
BRANCH  35  36
ATOM     36  C   UNL     1       1.914   2.800   6.420  0.00  0.00    +0.126 A 
ATOM     37  C   UNL     1       2.632   3.384   7.396  0.00  0.00    +0.046 A 
ATOM     38  C   UNL     1       1.733   4.167   8.155  0.00  0.00    +0.041 A 
ATOM     39  C   UNL     1       0.518   4.014   7.598  0.00  0.00    +0.195 A 
ATOM     40  O   UNL     1       0.635   3.190   6.544  0.00  0.00    -0.466 OA
ENDBRANCH  35  36
ENDBRANCH  34  35
ENDBRANCH   1  30
TORSDOF 6
