REMARK  Name = ZINC00088242
REMARK  6 active torsions:
REMARK  status: ('A' for Active; 'I' for Inactive)
REMARK    1  A    between atoms: C_1  and  C_2
REMARK    2  A    between atoms: C_2  and  O_4
REMARK    3  A    between atoms: O_4  and  C_5
REMARK    4  A    between atoms: C_14  and  C_19
REMARK    5  A    between atoms: C_16  and  C_17
REMARK    6  A    between atoms: C_16  and  C_18
REMARK                            x       y       z     vdW  Elec       q    Type
REMARK                         _______ _______ _______ _____ _____    ______ ____
ROOT
ATOM      1  C   UNL     1       0.020  -2.096  -1.097  0.00  0.00    +0.216 C 
ATOM      2  C   UNL     1       1.448  -2.574  -1.077  0.00  0.00    +0.014 A 
ATOM      3  C   UNL     1       2.150  -2.537   0.116  0.00  0.00    +0.009 A 
ATOM      4  C   UNL     1       3.462  -2.965   0.167  0.00  0.00    +0.000 A 
ATOM      5  C   UNL     1       4.085  -3.434  -0.976  0.00  0.00    +0.002 A 
ATOM      6  C   UNL     1       3.392  -3.474  -2.170  0.00  0.00    +0.023 A 
ATOM      7  C   UNL     1       2.071  -3.045  -2.222  0.00  0.00    +0.034 A 
ATOM      8  N   UNL     1       1.384  -3.103  -3.440  0.00  0.00    -0.336 N 
ATOM      9  C   UNL     1       0.106  -2.388  -3.570  0.00  0.00    +0.110 C 
ATOM     10  C   UNL     1      -0.714  -2.669  -2.309  0.00  0.00    +0.029 C 
ATOM     11  C   UNL     1      -0.888  -4.179  -2.136  0.00  0.00    +0.017 C 
ATOM     12  C   UNL     1      -2.086  -2.004  -2.439  0.00  0.00    +0.017 C 
ATOM     13  H   UNL     1       1.745  -3.606  -4.186  0.00  0.00    +0.147 HD
ENDROOT
BRANCH   9  14
ATOM     14  C   UNL     1       0.360  -0.908  -3.696  0.00  0.00    -0.027 A 
ATOM     15  C   UNL     1       1.345  -0.308  -2.935  0.00  0.00    +0.005 A 
ATOM     16  C   UNL     1       1.578   1.050  -3.051  0.00  0.00    +0.000 A 
ATOM     17  C   UNL     1       0.825   1.807  -3.929  0.00  0.00    +0.000 A 
ATOM     18  C   UNL     1      -0.160   1.207  -4.691  0.00  0.00    +0.000 A 
ATOM     19  C   UNL     1      -0.389  -0.152  -4.578  0.00  0.00    +0.005 A 
ENDBRANCH   9  14
BRANCH   1  20
ATOM     20  O   UNL     1       0.000  -0.669  -1.164  0.00  0.00    -0.456 OA
BRANCH  20  22
ATOM     21  C   UNL     1      -0.018   1.503   0.010  0.00  0.00    +0.136 C 
ATOM     22  C   UNL     1       0.002  -0.004   0.002  0.00  0.00    +0.305 C 
ATOM     23  O   UNL     1       0.020  -0.614   1.045  0.00  0.00    -0.251 OA
ENDBRANCH  20  22
ENDBRANCH   1  20
TORSDOF 3
