REMARK  Name = ZINC53994457
REMARK  3 active torsions:
REMARK  status: ('A' for Active; 'I' for Inactive)
REMARK    1  A    between atoms: C_3  and  S_13
REMARK    2  A    between atoms: C_6  and  C_7
REMARK    3  A    between atoms: S_13  and  C_16
REMARK                            x       y       z     vdW  Elec       q    Type
REMARK                         _______ _______ _______ _____ _____    ______ ____
ROOT
ATOM      1  C   UNL     1      -0.017   1.389   0.010  0.00  0.00    +0.013 A 
ATOM      2  C   UNL     1       1.170   2.093   0.002  0.00  0.00    +0.028 A 
ATOM      3  C   UNL     1       2.377   1.418  -0.013  0.00  0.00    +0.094 A 
ATOM      4  C   UNL     1       2.402   0.035  -0.021  0.00  0.00    +0.028 A 
ATOM      5  C   UNL     1       1.221  -0.679  -0.014  0.00  0.00    +0.013 A 
ATOM      6  C   UNL     1       0.002  -0.004   0.002  0.00  0.00    +0.020 A 
ENDROOT
BRANCH   6   7
ATOM      7  C   UNL     1      -1.271  -0.766   0.011  0.00  0.00    +0.170 A 
ATOM      8  N   UNL     1      -1.275  -2.088   0.009  0.00  0.00    -0.204 NA
ATOM      9  C   UNL     1      -2.447  -2.698   0.017  0.00  0.00    +0.176 A 
ATOM     10  S   UNL     1      -3.531  -1.414   0.028  0.00  0.00    +0.049 S 
ATOM     11  N   UNL     1      -2.434  -0.147   0.026  0.00  0.00    -0.187 NA
ATOM     12  N   UNL     1      -2.715  -4.054   0.017  0.00  0.00    -0.336 N 
ATOM     13  H   UNL     1      -1.984  -4.693   0.009  0.00  0.00    +0.144 HD
ATOM     14  H   UNL     1      -3.633  -4.367   0.024  0.00  0.00    +0.144 HD
ENDBRANCH   6   7
BRANCH   3  15
ATOM     15  S   UNL     1       3.889   2.323  -0.023  0.00  0.00    +0.025 S 
ATOM     16  O   UNL     1       4.872   1.465  -0.588  0.00  0.00    -0.164 OA
ATOM     17  O   UNL     1       3.593   3.603  -0.565  0.00  0.00    -0.164 OA
BRANCH  15  18
ATOM     18  C   UNL     1       4.353   2.582   1.657  0.00  0.00    +0.094 A 
ATOM     19  C   UNL     1       3.915   3.708   2.329  0.00  0.00    +0.029 A 
ATOM     20  C   UNL     1       4.278   3.912   3.647  0.00  0.00    +0.022 A 
ATOM     21  C   UNL     1       5.080   2.988   4.293  0.00  0.00    +0.041 A 
ATOM     22  C   UNL     1       5.518   1.861   3.621  0.00  0.00    +0.022 A 
ATOM     23  C   UNL     1       5.149   1.656   2.305  0.00  0.00    +0.029 A 
ATOM     24 CL   UNL     1       5.537   3.244   5.949  0.00  0.00    -0.084 Cl
ENDBRANCH  15  18
ENDBRANCH   3  15
TORSDOF 3
