REMARK  Name = ZINC17381096
REMARK  6 active torsions:
REMARK  status: ('A' for Active; 'I' for Inactive)
REMARK    1  A    between atoms: C_1  and  C_2
REMARK    2  A    between atoms: C_2  and  C_27
REMARK    3  A    between atoms: C_6  and  C_25
REMARK    4  A    between atoms: C_9  and  N_14
REMARK    5  A    between atoms: C_17  and  N_21
REMARK    6  A    between atoms: C_25  and  O_26
REMARK                            x       y       z     vdW  Elec       q    Type
REMARK                         _______ _______ _______ _____ _____    ______ ____
ROOT
ATOM      1  C   UNL     1       0.585   3.830  -2.412  0.00  0.00    +0.074 C 
ATOM      2  C   UNL     1       0.592   2.337  -2.079  0.00  0.00    +0.166 C 
ATOM      3  O   UNL     1       1.807   2.005  -1.404  0.00  0.00    -0.341 OA
ATOM      4  C   UNL     1       1.497   1.889  -0.002  0.00  0.00    +0.186 C 
ATOM      5  C   UNL     1       2.171   0.609   0.533  0.00  0.00    +0.178 C 
ATOM      6  O   UNL     1       1.129  -0.330   0.844  0.00  0.00    -0.346 OA
ATOM      7  C   UNL     1       0.002  -0.004   0.002  0.00  0.00    +0.255 C 
ATOM      8  C   UNL     1      -0.019   1.542   0.011  0.00  0.00    +0.203 C 
ATOM      9  O   UNL     1      -0.521   2.031  -1.236  0.00  0.00    -0.339 OA
ATOM     10  C   UNL     1       0.489   1.526  -3.373  0.00  0.00    +0.074 C 
ENDROOT
BRANCH   7  11
ATOM     11  N   UNL     1      -1.238  -0.540   0.569  0.00  0.00    -0.274 N 
ATOM     12  C   UNL     1      -2.274  -1.104  -0.132  0.00  0.00    +0.168 A 
ATOM     13  C   UNL     1      -3.236  -1.470   0.825  0.00  0.00    +0.148 A 
ATOM     14  C   UNL     1      -4.419  -2.080   0.376  0.00  0.00    +0.147 A 
ATOM     15  N   UNL     1      -4.572  -2.282  -0.929  0.00  0.00    -0.219 NA
ATOM     16  C   UNL     1      -3.639  -1.921  -1.791  0.00  0.00    +0.225 A 
ATOM     17  N   UNL     1      -2.516  -1.346  -1.416  0.00  0.00    -0.216 NA
ATOM     18  N   UNL     1      -2.747  -1.117   2.038  0.00  0.00    -0.216 NA
ATOM     19  C   UNL     1      -1.572  -0.575   1.891  0.00  0.00    +0.182 A 
ATOM     20 BR   UNL     1      -0.490   0.071   3.301  0.00  0.00    -0.008 Br
BRANCH  14  21
ATOM     21  N   UNL     1      -5.403  -2.462   1.272  0.00  0.00    -0.341 N 
ATOM     22  H   UNL     1      -5.027  -3.126   1.917  0.00  0.00    +0.144 HD
ATOM     23  H   UNL     1      -6.216  -2.882   0.950  0.00  0.00    +0.144 HD
ENDBRANCH  14  21
ENDBRANCH   7  11
BRANCH   5  24
ATOM     24  C   UNL     1       2.974   0.931   1.796  0.00  0.00    +0.190 C 
BRANCH  24  25
ATOM     25  O   UNL     1       3.678  -0.237   2.223  0.00  0.00    -0.392 OA
ATOM     26  H   UNL     1       4.210  -0.106   3.020  0.00  0.00    +0.210 HD
ENDBRANCH  24  25
ENDBRANCH   5  24
TORSDOF 4
