REMARK  Name = ZINC01898640
REMARK  6 active torsions:
REMARK  status: ('A' for Active; 'I' for Inactive)
REMARK    1  A    between atoms: C_9  and  S_24
REMARK    2  A    between atoms: C_10  and  N_23
REMARK    3  A    between atoms: N_11  and  N_14
REMARK    4  A    between atoms: C_15  and  C_16
REMARK    5  A    between atoms: C_20  and  O_22
REMARK    6  A    between atoms: S_24  and  C_27
REMARK                            x       y       z     vdW  Elec       q    Type
REMARK                         _______ _______ _______ _____ _____    ______ ____
ROOT
ATOM      1  C   UNL     1      -0.016   1.356   0.009  0.00  0.00    +0.002 A 
ATOM      2  C   UNL     1       1.170   2.088   0.002  0.00  0.00    +0.002 A 
ATOM      3  C   UNL     1       2.378   1.463  -0.013  0.00  0.00    +0.030 A 
ATOM      4  C   UNL     1       2.439   0.058  -0.021  0.00  0.00    +0.090 A 
ATOM      5  C   UNL     1       1.233  -0.688  -0.013  0.00  0.00    +0.066 A 
ATOM      6  C   UNL     1       0.002  -0.004   0.002  0.00  0.00    +0.028 A 
ATOM      7  N   UNL     1       1.262  -2.025  -0.021  0.00  0.00    -0.349 N 
ATOM      8  C   UNL     1       2.427  -2.653  -0.036  0.00  0.00    +0.113 A 
ATOM      9  C   UNL     1       2.815  -4.015  -0.048  0.00  0.00    +0.160 A 
ATOM     10  C   UNL     1       4.168  -4.067  -0.062  0.00  0.00    +0.148 A 
ATOM     11  N   UNL     1       4.702  -2.800  -0.059  0.00  0.00    -0.197 N 
ATOM     12  C   UNL     1       3.674  -1.878  -0.043  0.00  0.00    +0.182 A 
ATOM     13  N   UNL     1       3.625  -0.565  -0.036  0.00  0.00    -0.224 NA
ATOM     14  H   UNL     1       0.434  -2.531  -0.016  0.00  0.00    +0.166 HD
ENDROOT
BRANCH  10  15
ATOM     15  N   UNL     1       4.910  -5.234  -0.076  0.00  0.00    -0.341 N 
ATOM     16  H   UNL     1       4.462  -6.095  -0.077  0.00  0.00    +0.144 HD
ATOM     17  H   UNL     1       5.879  -5.193  -0.085  0.00  0.00    +0.144 HD
ENDBRANCH  10  15
BRANCH   9  18
ATOM     18  S   UNL     1       1.726  -5.401  -0.046  0.00  0.00    +0.037 S 
ATOM     19  O   UNL     1       2.460  -6.492   0.491  0.00  0.00    -0.164 OA
ATOM     20  O   UNL     1       0.502  -4.954   0.520  0.00  0.00    -0.164 OA
BRANCH  18  21
ATOM     21  C   UNL     1       1.388  -5.800  -1.728  0.00  0.00    +0.131 A 
ATOM     22  C   UNL     1       2.048  -6.648  -2.554  0.00  0.00    +0.035 A 
ATOM     23  C   UNL     1       1.597  -6.807  -3.851  0.00  0.00    +0.009 A 
ATOM     24  C   UNL     1       0.508  -6.111  -4.259  0.00  0.00    +0.047 A 
ATOM     25  S   UNL     1       0.081  -5.198  -2.785  0.00  0.00    -0.078 S 
ENDBRANCH  18  21
ENDBRANCH   9  18
BRANCH  11  26
ATOM     26  N   UNL     1       6.069  -2.494  -0.071  0.00  0.00    -0.171 NA
ATOM     27  C   UNL     1       6.691  -2.345  -1.199  0.00  0.00    +0.141 C 
BRANCH  27  28
ATOM     28  C   UNL     1       8.130  -2.023  -1.211  0.00  0.00    -0.002 A 
ATOM     29  C   UNL     1       8.828  -1.883  -0.009  0.00  0.00    +0.010 A 
ATOM     30  C   UNL     1      10.174  -1.582  -0.024  0.00  0.00    +0.004 A 
ATOM     31  C   UNL     1      10.836  -1.417  -1.227  0.00  0.00    +0.045 A 
ATOM     32  C   UNL     1      10.152  -1.553  -2.427  0.00  0.00    +0.117 A 
ATOM     33  C   UNL     1       8.802  -1.862  -2.424  0.00  0.00    +0.055 A 
BRANCH  32  34
ATOM     34  O   UNL     1      10.809  -1.389  -3.606  0.00  0.00    -0.507 OA
ATOM     35  H   UNL     1      11.192  -2.204  -3.959  0.00  0.00    +0.292 HD
ENDBRANCH  32  34
ENDBRANCH  27  28
ENDBRANCH  11  26
TORSDOF 6
