REMARK  Name = ZINC61954732
REMARK  5 active torsions:
REMARK  status: ('A' for Active; 'I' for Inactive)
REMARK    1  A    between atoms: C_1  and  N_2
REMARK    2  A    between atoms: N_2  and  C_3
REMARK    3  A    between atoms: C_6  and  C_9
REMARK    4  A    between atoms: C_11  and  C_13
REMARK    5  A    between atoms: C_18  and  O_19
REMARK                            x       y       z     vdW  Elec       q    Type
REMARK                         _______ _______ _______ _____ _____    ______ ____
ROOT
ATOM      1  C   UNL     1      -1.180   1.141  -0.144  0.00  0.00    +0.138 C 
ATOM      2  N   UNL     1      -0.574  -0.192  -0.091  0.00  0.00    -0.270 N 
ATOM      3  C   UNL     1      -0.128  -0.775  -1.221  0.00  0.00    +0.254 C 
ATOM      4  O   UNL     1       0.290  -1.917  -1.192  0.00  0.00    -0.270 OA
ENDROOT
BRANCH   3   5
ATOM      5  C   UNL     1      -0.147  -0.029  -2.492  0.00  0.00    +0.079 A 
ATOM      6  C   UNL     1      -0.096   1.368  -2.488  0.00  0.00    +0.018 A 
ATOM      7  C   UNL     1      -0.113   2.059  -3.679  0.00  0.00    +0.021 A 
ATOM      8  C   UNL     1      -0.181   1.376  -4.884  0.00  0.00    +0.044 A 
ATOM      9  C   UNL     1      -0.232  -0.005  -4.902  0.00  0.00    +0.066 A 
ATOM     10  C   UNL     1      -0.209  -0.717  -3.712  0.00  0.00    +0.130 A 
ATOM     11 CL   UNL     1      -0.202   2.260  -6.378  0.00  0.00    -0.083 Cl
BRANCH  10  12
ATOM     12  O   UNL     1      -0.253  -2.072  -3.728  0.00  0.00    -0.506 OA
ATOM     13  H   UNL     1      -1.148  -2.437  -3.704  0.00  0.00    +0.292 HD
ENDBRANCH  10  12
ENDBRANCH   3   5
BRANCH   2  14
ATOM     14  C   UNL     1      -0.460  -0.857   1.129  0.00  0.00    +0.036 A 
ATOM     15  C   UNL     1       0.265  -2.042   1.208  0.00  0.00    +0.025 A 
ATOM     16  C   UNL     1       0.381  -2.702   2.412  0.00  0.00    +0.020 A 
ATOM     17  C   UNL     1      -0.232  -2.180   3.554  0.00  0.00    +0.052 A 
ATOM     18  C   UNL     1      -0.960  -0.989   3.471  0.00  0.00    +0.020 A 
ATOM     19  C   UNL     1      -1.066  -0.332   2.266  0.00  0.00    +0.025 A 
BRANCH  17  20
ATOM     20  C   UNL     1      -0.115  -2.864   4.807  0.00  0.00    +0.099 C 
ATOM     21  N   UNL     1      -0.022  -3.406   5.801  0.00  0.00    -0.191 NA
ENDBRANCH  17  20
ENDBRANCH   2  14
TORSDOF 4
