REMARK  Name = ZINC39687895
REMARK  8 active torsions:
REMARK  status: ('A' for Active; 'I' for Inactive)
REMARK    1  A    between atoms: C_1  and  C_2
REMARK    2  A    between atoms: C_2  and  C_3
REMARK    3  A    between atoms: C_3  and  C_4
REMARK    4  A    between atoms: C_4  and  C_6
REMARK    5  A    between atoms: C_4  and  C_7
REMARK    6  A    between atoms: C_11  and  C_20
REMARK    7  A    between atoms: N_22  and  C_23
REMARK    8  A    between atoms: C_29  and  C_31
REMARK                            x       y       z     vdW  Elec       q    Type
REMARK                         _______ _______ _______ _____ _____    ______ ____
ROOT
ATOM      1  C   UNL     1       1.346  -2.515  -2.591  0.00  0.00    +0.218 C 
ATOM      2  O   UNL     1       1.702  -1.703  -3.418  0.00  0.00    -0.275 OA
ATOM      3  N   UNL     1       1.469  -3.834  -2.845  0.00  0.00    -0.300 N 
ATOM      4  C   UNL     1       1.087  -4.966  -1.969  0.00  0.00    +0.121 C 
ATOM      5  C   UNL     1       0.485  -6.017  -2.929  0.00  0.00    +0.100 C 
ATOM      6  C   UNL     1       1.100  -5.692  -4.301  0.00  0.00    -0.004 C 
ATOM      7  C   UNL     1       2.010  -4.478  -4.066  0.00  0.00    +0.115 C 
ATOM      8  C   UNL     1       0.004  -5.336  -5.301  0.00  0.00    -0.010 C 
ATOM      9  C   UNL     1       0.635  -5.073  -6.671  0.00  0.00    -0.082 C 
ATOM     10  N   UNL     1       1.360  -6.269  -7.115  0.00  0.00    +0.379 N 
ATOM     11  C   UNL     1       2.471  -6.550  -6.198  0.00  0.00    -0.082 C 
ATOM     12  C   UNL     1       1.918  -6.876  -4.808  0.00  0.00    -0.010 C 
ATOM     13  H   UNL     1       0.730  -7.057  -7.130  0.00  0.00    -0.086 HD
ATOM     14  H   UNL     1       1.724  -6.115  -8.044  0.00  0.00    -0.086 HD
ENDROOT
BRANCH   5  15
ATOM     15  C   UNL     1      -1.015  -5.884  -2.979  0.00  0.00    +0.218 C 
ATOM     16  O   UNL     1      -1.539  -4.821  -2.719  0.00  0.00    -0.275 OA
ATOM     17  N   UNL     1      -1.775  -6.946  -3.313  0.00  0.00    -0.312 N 
ATOM     18  H   UNL     1      -1.356  -7.795  -3.521  0.00  0.00    +0.149 HD
BRANCH  17  19
ATOM     19  C   UNL     1      -3.233  -6.816  -3.362  0.00  0.00    +0.076 C 
ATOM     20  C   UNL     1      -3.652  -6.270  -4.729  0.00  0.00    +0.041 C 
ATOM     21  C   UNL     1      -5.174  -6.104  -4.764  0.00  0.00    +0.109 C 
ATOM     22  N   UNL     1      -5.798  -7.386  -4.410  0.00  0.00    -0.302 N 
ATOM     23  C   UNL     1      -5.400  -8.043  -3.158  0.00  0.00    +0.109 C 
ATOM     24  C   UNL     1      -3.875  -8.188  -3.141  0.00  0.00    +0.041 C 
ATOM     25  C   UNL     1      -6.719  -7.948  -5.217  0.00  0.00    +0.212 C 
ATOM     26  O   UNL     1      -6.965  -7.450  -6.295  0.00  0.00    -0.276 OA
ATOM     27  C   UNL     1      -7.444  -9.195  -4.781  0.00  0.00    +0.109 C 
ENDBRANCH  17  19
ENDBRANCH   5  15
BRANCH   1  28
ATOM     28  C   UNL     1       0.767  -2.051  -1.280  0.00  0.00    +0.072 C 
ATOM     29  C   UNL     1       1.630  -2.570  -0.128  0.00  0.00    +0.017 C 
BRANCH  28  30
ATOM     30  C   UNL     1       0.740  -0.522  -1.247  0.00  0.00    +0.012 C 
BRANCH  30  32
ATOM     31  C   UNL     1       0.011   1.478   0.061  0.00  0.00    +0.004 C 
ATOM     32  C   UNL     1       0.038  -0.051   0.028  0.00  0.00    -0.003 C 
ENDBRANCH  30  32
ENDBRANCH  28  30
ENDBRANCH   1  28
TORSDOF 5
