REMARK  Name = ZINC44170646
REMARK  5 active torsions:
REMARK  status: ('A' for Active; 'I' for Inactive)
REMARK    1  A    between atoms: C_4  and  C_7
REMARK    2  A    between atoms: C_16  and  O_31
REMARK    3  A    between atoms: C_18  and  O_30
REMARK    4  A    between atoms: C_20  and  O_23
REMARK    5  A    between atoms: O_23  and  C_24
REMARK                            x       y       z     vdW  Elec       q    Type
REMARK                         _______ _______ _______ _____ _____    ______ ____
ROOT
ATOM      1  C   UNL     1       3.711  -0.707  -0.038  0.00  0.00    +0.282 C 
ATOM      2  O   UNL     1       4.444  -0.345  -1.210  0.00  0.00    -0.345 OA
ATOM      3  C   UNL     1       5.701  -1.017  -1.337  0.00  0.00    +0.197 C 
ATOM      4  C   UNL     1       5.458  -2.529  -1.336  0.00  0.00    +0.179 C 
ATOM      5  C   UNL     1       4.664  -2.904  -0.081  0.00  0.00    +0.184 C 
ATOM      6  O   UNL     1       3.469  -2.116  -0.041  0.00  0.00    -0.339 OA
ATOM      7  C   UNL     1       5.514  -2.616   1.160  0.00  0.00    +0.180 C 
ATOM      8  C   UNL     1       6.839  -3.376   1.051  0.00  0.00    +0.214 C 
ATOM      9  C   UNL     1       7.549  -2.962  -0.240  0.00  0.00    +0.339 C 
ATOM     10  O   UNL     1       6.707  -3.218  -1.341  0.00  0.00    -0.331 OA
ENDROOT
BRANCH   1  14
ATOM     11  C   UNL     1      -0.017   1.378   0.010  0.00  0.00    +0.000 A 
ATOM     12  C   UNL     1       1.171   2.086   0.002  0.00  0.00    +0.000 A 
ATOM     13  C   UNL     1       2.377   1.411  -0.013  0.00  0.00    +0.008 A 
ATOM     14  C   UNL     1       2.396   0.029  -0.020  0.00  0.00    +0.008 A 
ATOM     15  C   UNL     1       1.208  -0.679  -0.012  0.00  0.00    +0.008 A 
ATOM     16  C   UNL     1       0.002  -0.004   0.002  0.00  0.00    +0.000 A 
ENDBRANCH   1  14
BRANCH   8  17
ATOM     17  O   UNL     1       6.582  -4.782   1.027  0.00  0.00    -0.383 OA
ATOM     18  H   UNL     1       7.379  -5.326   0.959  0.00  0.00    +0.210 HD
ENDBRANCH   8  17
BRANCH   7  19
ATOM     19  O   UNL     1       5.774  -1.213   1.246  0.00  0.00    -0.386 OA
ATOM     20  H   UNL     1       6.309  -0.958   2.010  0.00  0.00    +0.210 HD
ENDBRANCH   7  19
BRANCH   9  21
ATOM     21  O   UNL     1       7.844  -1.564  -0.195  0.00  0.00    -0.461 OA
BRANCH  21  22
ATOM     22  C   UNL     1       8.570  -1.053  -1.224  0.00  0.00    +0.124 A 
ATOM     23  C   UNL     1       8.985  -1.879  -2.259  0.00  0.00    +0.046 A 
ATOM     24  C   UNL     1       9.723  -1.357  -3.304  0.00  0.00    +0.004 A 
ATOM     25  C   UNL     1      10.048  -0.013  -3.319  0.00  0.00    +0.000 A 
ATOM     26  C   UNL     1       9.636   0.812  -2.288  0.00  0.00    +0.004 A 
ATOM     27  C   UNL     1       8.893   0.296  -1.244  0.00  0.00    +0.046 A 
ENDBRANCH  21  22
ENDBRANCH   9  21
TORSDOF 5
