REMARK  Name = ZINC07200441
REMARK  9 active torsions:
REMARK  status: ('A' for Active; 'I' for Inactive)
REMARK    1  A    between atoms: C_1  and  C_2
REMARK    2  A    between atoms: C_7  and  S_15
REMARK    3  A    between atoms: S_15  and  C_16
REMARK    4  A    between atoms: C_16  and  C_18
REMARK    5  A    between atoms: C_16  and  C_19
REMARK    6  A    between atoms: N_24  and  C_25
REMARK    7  A    between atoms: C_25  and  C_26
REMARK    8  A    between atoms: C_25  and  C_27
REMARK    9  A    between atoms: C_25  and  C_28
REMARK                            x       y       z     vdW  Elec       q    Type
REMARK                         _______ _______ _______ _____ _____    ______ ____
ROOT
ATOM      1  S   UNL     1      -3.818   1.918   0.614  0.00  0.00    -0.073 S 
ENDROOT
BRANCH   1   8
ATOM      2  C   UNL     1     -10.617   0.695   2.007  0.00  0.00    +0.044 C 
ATOM      3  C   UNL     1      -9.153   0.798   1.668  0.00  0.00    -0.038 A 
ATOM      4  C   UNL     1      -8.473  -0.287   1.232  0.00  0.00    +0.052 A 
ATOM      5  C   UNL     1      -7.098  -0.190   0.913  0.00  0.00    +0.162 A 
ATOM      6  N   UNL     1      -6.221  -1.075   0.477  0.00  0.00    -0.129 NA
ATOM      7  N   UNL     1      -5.073  -0.516   0.329  0.00  0.00    -0.122 NA
ATOM      8  C   UNL     1      -5.141   0.755   0.658  0.00  0.00    +0.197 A 
ATOM      9  N   UNL     1      -6.425   1.004   1.045  0.00  0.00    -0.270 N 
ATOM     10  C   UNL     1      -7.080   2.143   1.482  0.00  0.00    +0.058 A 
ATOM     11  C   UNL     1      -8.447   2.075   1.806  0.00  0.00    +0.002 A 
ATOM     12  C   UNL     1      -9.113   3.220   2.252  0.00  0.00    +0.010 A 
ATOM     13  C   UNL     1      -8.424   4.407   2.372  0.00  0.00    +0.001 A 
ATOM     14  C   UNL     1      -7.076   4.471   2.052  0.00  0.00    +0.002 A 
ATOM     15  C   UNL     1      -6.405   3.349   1.610  0.00  0.00    +0.027 A 
ENDBRANCH   1   8
BRANCH   1  16
ATOM     16  C   UNL     1      -2.482   0.853   0.018  0.00  0.00    +0.137 C 
ATOM     17  C   UNL     1      -2.799   0.384  -1.403  0.00  0.00    +0.029 C 
BRANCH  16  18
ATOM     18  C   UNL     1      -1.187   1.624   0.017  0.00  0.00    +0.233 C 
ATOM     19  O   UNL     1      -1.204   2.836   0.023  0.00  0.00    -0.274 OA
ATOM     20  N   UNL     1      -0.011   0.966   0.007  0.00  0.00    -0.239 N 
ATOM     21  C   UNL     1       1.147   1.655   0.000  0.00  0.00    +0.306 C 
ATOM     22  O   UNL     1       1.130   2.871   0.007  0.00  0.00    -0.252 OA
ATOM     23  N   UNL     1       2.323   0.998  -0.015  0.00  0.00    -0.294 N 
ATOM     24  H   UNL     1       0.002  -0.004   0.002  0.00  0.00    +0.159 HD
ATOM     25  H   UNL     1       2.336   0.028  -0.020  0.00  0.00    +0.151 HD
BRANCH  23  26
ATOM     26  C   UNL     1       3.582   1.747  -0.023  0.00  0.00    +0.028 C 
ATOM     27  C   UNL     1       3.663   2.621   1.230  0.00  0.00    +0.031 C 
ATOM     28  C   UNL     1       4.758   0.769  -0.039  0.00  0.00    +0.031 C 
ATOM     29  C   UNL     1       3.639   2.635  -1.268  0.00  0.00    +0.031 C 
ENDBRANCH  23  26
ENDBRANCH  16  18
ENDBRANCH   1  16
TORSDOF 4
