REMARK  Name = ZINC14729819
REMARK  10 active torsions:
REMARK  status: ('A' for Active; 'I' for Inactive)
REMARK    1  A    between atoms: C_1  and  C_2
REMARK    2  A    between atoms: C_4  and  C_36
REMARK    3  A    between atoms: N_10  and  C_11
REMARK    4  A    between atoms: C_11  and  N_13
REMARK    5  A    between atoms: N_13  and  C_14
REMARK    6  A    between atoms: N_21  and  C_22
REMARK    7  A    between atoms: C_22  and  C_23
REMARK    8  A    between atoms: C_23  and  C_24
REMARK    9  A    between atoms: C_31  and  O_34
REMARK   10  A    between atoms: O_34  and  C_35
REMARK                            x       y       z     vdW  Elec       q    Type
REMARK                         _______ _______ _______ _____ _____    ______ ____
ROOT
ATOM      1  C   UNL     1      11.621   0.851  -6.191  0.00  0.00    +0.066 C 
ATOM      2  C   UNL     1      10.123   0.790  -6.345  0.00  0.00    +0.044 A 
ATOM      3  C   UNL     1       9.543   0.863  -7.601  0.00  0.00    +0.046 A 
ATOM      4  C   UNL     1       8.161   0.804  -7.698  0.00  0.00    +0.044 A 
ATOM      5  N   UNL     1       7.442   0.679  -6.594  0.00  0.00    -0.217 NA
ATOM      6  C   UNL     1       8.028   0.612  -5.409  0.00  0.00    +0.231 A 
ATOM      7  N   UNL     1       9.345   0.671  -5.281  0.00  0.00    -0.217 NA
ATOM      8  N   UNL     1       7.243   0.482  -4.271  0.00  0.00    -0.297 N 
ATOM      9  C   UNL     1       7.822   0.526  -3.031  0.00  0.00    +0.195 C 
ATOM     10  N   UNL     1       9.108   0.804  -2.912  0.00  0.00    -0.159 NA
ATOM     11  N   UNL     1       7.070   0.282  -1.918  0.00  0.00    -0.357 N 
ATOM     12  C   UNL     1       7.486   0.879  -9.043  0.00  0.00    +0.066 C 
ATOM     13  H   UNL     1       6.156   0.344  -4.366  0.00  0.00    +0.171 HD
ATOM     14  H   UNL     1       7.549   0.240  -0.929  0.00  0.00    +0.162 HD
ENDROOT
BRANCH  10  15
ATOM     15  C   UNL     1       9.706   0.711  -1.715  0.00  0.00    +0.161 C 
ATOM     16  S   UNL     1       9.831  -0.809  -0.936  0.00  0.00    -0.016 S 
BRANCH  15  17
ATOM     17  N   UNL     1      10.209   1.813  -1.125  0.00  0.00    -0.295 N 
ATOM     18  H   UNL     1      10.043   2.803  -1.577  0.00  0.00    +0.154 HD
BRANCH  17  19
ATOM     19  C   UNL     1      10.941   1.700   0.062  0.00  0.00    +0.033 A 
ATOM     20  C   UNL     1      10.778   2.639   1.072  0.00  0.00    +0.026 A 
ATOM     21  C   UNL     1      11.497   2.522   2.245  0.00  0.00    +0.040 A 
ATOM     22  C   UNL     1      12.389   1.475   2.410  0.00  0.00    +0.124 A 
ATOM     23  C   UNL     1      12.557   0.540   1.402  0.00  0.00    +0.040 A 
ATOM     24  C   UNL     1      11.835   0.651   0.230  0.00  0.00    +0.026 A 
ATOM     25  F   UNL     1      13.096   1.365   3.557  0.00  0.00    -0.205 F 
ENDBRANCH  17  19
ENDBRANCH  15  17
ENDBRANCH  10  15
BRANCH  11  26
ATOM     26  C   UNL     1       5.625   0.075  -2.041  0.00  0.00    +0.120 C 
BRANCH  26  27
ATOM     27  C   UNL     1       5.008  -0.055  -0.647  0.00  0.00    +0.058 C 
BRANCH  27  28
ATOM     28  C   UNL     1       3.543  -0.386  -0.775  0.00  0.00    -0.021 A 
ATOM     29  C   UNL     1       2.518   0.476  -0.682  0.00  0.00    +0.087 A 
ATOM     30  N   UNL     1       1.334  -0.186  -0.852  0.00  0.00    -0.360 N 
ATOM     31  H   UNL     1       0.383   0.366  -0.807  0.00  0.00    +0.165 HD
ATOM     32  C   UNL     1       1.573  -1.527  -1.064  0.00  0.00    +0.047 A 
ATOM     33  C   UNL     1       2.967  -1.710  -1.025  0.00  0.00    +0.006 A 
ATOM     34  C   UNL     1       3.510  -2.983  -1.211  0.00  0.00    +0.056 A 
ATOM     35  C   UNL     1       2.670  -4.057  -1.432  0.00  0.00    +0.121 A 
ATOM     36  C   UNL     1       1.291  -3.873  -1.470  0.00  0.00    +0.047 A 
ATOM     37  C   UNL     1       0.745  -2.622  -1.288  0.00  0.00    +0.030 A 
BRANCH  35  38
ATOM     38  O   UNL     1       3.193  -5.299  -1.613  0.00  0.00    -0.495 OA
ATOM     39  C   UNL     1       2.268  -6.365  -1.838  0.00  0.00    +0.277 C 
ENDBRANCH  35  38
ENDBRANCH  27  28
ENDBRANCH  26  27
ENDBRANCH  11  26
TORSDOF 7
