REMARK  Name = ZINC42378515
REMARK  3 active torsions:
REMARK  status: ('A' for Active; 'I' for Inactive)
REMARK    1  A    between atoms: C_6  and  C_7
REMARK    2  A    between atoms: N_9  and  C_10
REMARK    3  A    between atoms: C_10  and  C_11
REMARK                            x       y       z     vdW  Elec       q    Type
REMARK                         _______ _______ _______ _____ _____    ______ ____
ROOT
ATOM      1  C   UNL     1      -2.167  -3.124   0.007  0.00  0.00    +0.111 C 
ENDROOT
BRANCH   1   2
ATOM      2  C   UNL     1      -1.699  -4.580  -0.005  0.00  0.00    -0.012 C 
ATOM      3  C   UNL     1      -0.844  -4.852   1.234  0.00  0.00    +0.012 C 
ATOM      4  C   UNL     1      -0.375  -6.308   1.221  0.00  0.00    -0.009 C 
ATOM      5  C   UNL     1      -1.592  -7.235   1.229  0.00  0.00    +0.007 C 
ATOM      6  C   UNL     1      -2.448  -6.964  -0.010  0.00  0.00    -0.009 C 
ATOM      7  C   UNL     1      -2.916  -5.507   0.002  0.00  0.00    +0.012 C 
ATOM      8  C   UNL     1      -1.618  -7.222  -1.270  0.00  0.00    +0.026 C 
ATOM      9  C   UNL     1      -0.401  -6.295  -1.277  0.00  0.00    +0.046 C 
ATOM     10  C   UNL     1       0.455  -6.566  -0.038  0.00  0.00    +0.026 C 
ATOM     11  C   UNL     1      -0.869  -4.838  -1.264  0.00  0.00    +0.031 C 
ATOM     12 CL   UNL     1       0.578  -6.599  -2.761  0.00  0.00    -0.118 Cl
ENDBRANCH   1   2
BRANCH   1  15
ATOM     13  C   UNL     1      -1.173  -0.899   0.009  0.00  0.00    +0.264 C 
ATOM     14  O   UNL     1      -2.294  -0.430   0.023  0.00  0.00    -0.268 OA
ATOM     15  N   UNL     1      -1.002  -2.236   0.000  0.00  0.00    -0.310 N 
ATOM     16  H   UNL     1      -0.107  -2.610  -0.011  0.00  0.00    +0.149 HD
BRANCH  13  22
ATOM     17  C   UNL     1      -0.017   1.411   0.010  0.00  0.00    +0.054 A 
ATOM     18  C   UNL     1       1.282   1.790  -0.001  0.00  0.00    +0.105 A 
ATOM     19  N   UNL     1       2.028   0.664  -0.014  0.00  0.00    -0.284 N 
ATOM     20  H   UNL     1       2.997   0.641  -0.023  0.00  0.00    +0.188 HD
ATOM     21  N   UNL     1       1.268  -0.371  -0.012  0.00  0.00    -0.169 NA
ATOM     22  C   UNL     1       0.002  -0.004   0.002  0.00  0.00    +0.147 A 
ENDBRANCH  13  22
ENDBRANCH   1  15
TORSDOF 3
