REMARK  Name = ZINC10372711
REMARK  6 active torsions:
REMARK  status: ('A' for Active; 'I' for Inactive)
REMARK    1  A    between atoms: C_1  and  N_2
REMARK    2  A    between atoms: C_11  and  C_13
REMARK    3  A    between atoms: N_15  and  N_16
REMARK    4  A    between atoms: C_17  and  C_19
REMARK    5  A    between atoms: C_20  and  C_21
REMARK    6  A    between atoms: C_24  and  C_26
REMARK                            x       y       z     vdW  Elec       q    Type
REMARK                         _______ _______ _______ _____ _____    ______ ____
ROOT
ATOM      1  N   UNL     1       5.014  -2.248  -0.035  0.00  0.00    -0.231 N 
ATOM      2  C   UNL     1       6.098  -1.448  -0.036  0.00  0.00    +0.253 C 
ATOM      3  O   UNL     1       5.963  -0.238  -0.029  0.00  0.00    -0.269 OA
ATOM      4  H   UNL     1       5.122  -3.212  -0.041  0.00  0.00    +0.173 HD
ENDROOT
BRANCH   1   7
ATOM      5  C   UNL     1       2.645  -2.487  -0.025  0.00  0.00    +0.281 C 
ATOM      6  O   UNL     1       2.781  -3.695  -0.032  0.00  0.00    -0.267 OA
ATOM      7  N   UNL     1       3.730  -1.687  -0.026  0.00  0.00    -0.229 N 
ATOM      8  H   UNL     1       3.622  -0.723  -0.020  0.00  0.00    +0.173 HD
BRANCH   5  19
ATOM      9  C   UNL     1      -0.018   1.461   0.010  0.00  0.00    +0.176 C 
ATOM     10  N   UNL     1       0.002  -0.004   0.002  0.00  0.00    -0.231 N 
ATOM     11  C   UNL     1      -1.177  -0.658   0.004  0.00  0.00    +0.275 A 
ATOM     12  O   UNL     1      -2.230  -0.046   0.012  0.00  0.00    -0.266 OA
ATOM     13  C   UNL     1      -1.163  -2.128  -0.004  0.00  0.00    +0.050 A 
ATOM     14  C   UNL     1      -2.323  -2.895  -0.002  0.00  0.00    +0.014 A 
ATOM     15  C   UNL     1      -2.224  -4.270  -0.009  0.00  0.00    +0.001 A 
ATOM     16  C   UNL     1      -0.982  -4.892  -0.018  0.00  0.00    +0.001 A 
ATOM     17  C   UNL     1       0.179  -4.149  -0.020  0.00  0.00    +0.011 A 
ATOM     18  C   UNL     1       0.102  -2.761  -0.013  0.00  0.00    +0.020 A 
ATOM     19  C   UNL     1       1.292  -1.896  -0.015  0.00  0.00    +0.155 A 
ATOM     20  N   UNL     1       1.137  -0.594  -0.012  0.00  0.00    -0.163 NA
ENDBRANCH   5  19
ENDBRANCH   1   7
BRANCH   2  21
ATOM     21  C   UNL     1       7.394  -2.014  -0.045  0.00  0.00    +0.070 C 
ATOM     22  C   UNL     1       8.487  -1.208  -0.047  0.00  0.00    +0.020 C 
BRANCH  22  23
ATOM     23  C   UNL     1       9.783  -1.774  -0.056  0.00  0.00    +0.013 A 
ATOM     24  C   UNL     1      11.017  -1.133  -0.053  0.00  0.00    +0.016 A 
ATOM     25  C   UNL     1      12.150  -1.895  -0.064  0.00  0.00    +0.017 A 
ATOM     26  C   UNL     1      12.026  -3.276  -0.078  0.00  0.00    +0.020 A 
ATOM     27  S   UNL     1      10.255  -3.496  -0.067  0.00  0.00    -0.089 S 
BRANCH  26  28
ATOM     28  C   UNL     1      13.088  -4.302  -0.091  0.00  0.00    -0.011 A 
ATOM     29  C   UNL     1      14.432  -3.920  -0.086  0.00  0.00    +0.012 A 
ATOM     30  C   UNL     1      15.419  -4.883  -0.098  0.00  0.00    +0.039 A 
ATOM     31  C   UNL     1      15.080  -6.227  -0.116  0.00  0.00    +0.123 A 
ATOM     32  C   UNL     1      13.748  -6.611  -0.122  0.00  0.00    +0.039 A 
ATOM     33  C   UNL     1      12.753  -5.657  -0.104  0.00  0.00    +0.012 A 
ATOM     34  F   UNL     1      16.051  -7.165  -0.129  0.00  0.00    -0.205 F 
ENDBRANCH  26  28
ENDBRANCH  22  23
ENDBRANCH   2  21
TORSDOF 5
