REMARK  Name = ZINC09668153
REMARK  8 active torsions:
REMARK  status: ('A' for Active; 'I' for Inactive)
REMARK    1  A    between atoms: C_1  and  C_2
REMARK    2  A    between atoms: C_7  and  O_8
REMARK    3  A    between atoms: O_8  and  C_9
REMARK    4  A    between atoms: C_9  and  C_10
REMARK    5  A    between atoms: N_12  and  C_13
REMARK    6  A    between atoms: C_13  and  N_15
REMARK    7  A    between atoms: N_15  and  C_16
REMARK    8  A    between atoms: C_17  and  C_25
REMARK                            x       y       z     vdW  Elec       q    Type
REMARK                         _______ _______ _______ _____ _____    ______ ____
ROOT
ATOM      1  C   UNL     1       5.162  -2.689  -0.062  0.00  0.00    +0.141 C 
ATOM      2  S   UNL     1       6.504  -1.627  -0.069  0.00  0.00    -0.018 S 
ENDROOT
BRANCH   1   5
ATOM      3  C   UNL     1       3.713  -0.859  -0.038  0.00  0.00    +0.256 C 
ATOM      4  O   UNL     1       4.664  -0.107  -0.043  0.00  0.00    -0.272 OA
ATOM      5  N   UNL     1       3.909  -2.193  -0.047  0.00  0.00    -0.265 N 
ATOM      6  H   UNL     1       3.149  -2.795  -0.043  0.00  0.00    +0.157 HD
BRANCH   3   7
ATOM      7  C   UNL     1       2.312  -0.304  -0.022  0.00  0.00    +0.325 C 
BRANCH   7   8
ATOM      8  O   UNL     1       2.366   1.124  -0.015  0.00  0.00    -0.482 OA
BRANCH   8  15
ATOM      9  C   UNL     1       2.451   3.947  -0.000  0.00  0.00    +0.047 C 
ATOM     10  C   UNL     1       1.158   3.173   0.008  0.00  0.00    -0.007 A 
ATOM     11  C   UNL     1      -0.050   3.844   0.022  0.00  0.00    +0.027 A 
ATOM     12  C   UNL     1      -1.237   3.134   0.030  0.00  0.00    +0.041 A 
ATOM     13  C   UNL     1      -1.218   1.751   0.017  0.00  0.00    +0.023 A 
ATOM     14  C   UNL     1      -0.013   1.076   0.008  0.00  0.00    +0.047 A 
ATOM     15  C   UNL     1       1.179   1.786   0.000  0.00  0.00    +0.124 A 
ATOM     16 CL   UNL     1      -2.753   3.980   0.048  0.00  0.00    -0.084 Cl
ENDBRANCH   8  15
ENDBRANCH   7   8
ENDBRANCH   3   7
ENDBRANCH   1   5
BRANCH   1  17
ATOM     17  N   UNL     1       5.358  -4.023  -0.071  0.00  0.00    -0.291 N 
ATOM     18  H   UNL     1       4.598  -4.625  -0.067  0.00  0.00    +0.154 HD
BRANCH  17  19
ATOM     19  C   UNL     1       6.646  -4.534  -0.086  0.00  0.00    +0.084 A 
ATOM     20  C   UNL     1       7.047  -5.862  -0.091  0.00  0.00    +0.068 A 
ATOM     21  C   UNL     1       8.475  -6.133  -0.111  0.00  0.00    -0.023 A 
ATOM     22  C   UNL     1       9.267  -5.039  -0.112  0.00  0.00    -0.004 A 
ATOM     23  S   UNL     1       8.147  -3.668  -0.095  0.00  0.00    -0.077 S 
ATOM     24  C   UNL     1      10.765  -5.009  -0.125  0.00  0.00    +0.043 C 
ATOM     25  C   UNL     1      11.280  -6.409   0.242  0.00  0.00    +0.005 C 
ATOM     26  C   UNL     1      10.525  -7.446  -0.594  0.00  0.00    +0.005 C 
ATOM     27  C   UNL     1       9.072  -7.535  -0.124  0.00  0.00    +0.037 C 
BRANCH  20  28
ATOM     28  C   UNL     1       6.067  -6.952  -0.081  0.00  0.00    +0.244 C 
ATOM     29  O   UNL     1       5.649  -7.404  -1.131  0.00  0.00    -0.270 OA
ATOM     30  N   UNL     1       5.629  -7.454   1.091  0.00  0.00    -0.325 N 
ATOM     31  H   UNL     1       5.962  -7.093   1.927  0.00  0.00    +0.145 HD
ATOM     32  H   UNL     1       4.980  -8.175   1.097  0.00  0.00    +0.145 HD
ENDBRANCH  20  28
ENDBRANCH  17  19
ENDBRANCH   1  17
TORSDOF 7
