REMARK  Name = ZINC04944772
REMARK  2 active torsions:
REMARK  status: ('A' for Active; 'I' for Inactive)
REMARK    1  A    between atoms: C_1  and  C_2
REMARK    2  A    between atoms: C_7  and  C_8
REMARK                            x       y       z     vdW  Elec       q    Type
REMARK                         _______ _______ _______ _____ _____    ______ ____
ROOT
ATOM      1  C   UNL     1       1.448   1.368   2.484  0.00  0.00    +0.067 C 
ATOM      2  C   UNL     1       1.662   0.168   3.408  0.00  0.00    +0.109 C 
ATOM      3  C   UNL     1       1.464   0.585   4.841  0.00  0.00    +0.219 C 
ATOM      4  O   UNL     1       0.969  -0.193   5.628  0.00  0.00    -0.275 OA
ATOM      5  N   UNL     1       1.829   1.811   5.259  0.00  0.00    -0.270 N 
ATOM      6  C   UNL     1       2.377   2.724   4.375  0.00  0.00    +0.137 A 
ATOM      7  C   UNL     1       2.217   2.549   3.011  0.00  0.00    +0.065 A 
ATOM      8  C   UNL     1       2.778   3.483   2.135  0.00  0.00    +0.258 A 
ATOM      9  O   UNL     1       2.654   3.357   0.927  0.00  0.00    -0.267 OA
ATOM     10  N   UNL     1       3.460   4.527   2.653  0.00  0.00    -0.295 N 
ATOM     11  H   UNL     1       3.869   5.207   2.044  0.00  0.00    +0.172 HD
ATOM     12  C   UNL     1       3.591   4.655   4.001  0.00  0.00    +0.195 A 
ATOM     13  N   UNL     1       3.064   3.778   4.830  0.00  0.00    -0.201 NA
ATOM     14  N   UNL     1       4.287   5.720   4.508  0.00  0.00    -0.329 N 
ATOM     15  H   UNL     1       1.706   2.057   6.189  0.00  0.00    +0.156 HD
ATOM     16  H   UNL     1       4.680   6.373   3.907  0.00  0.00    +0.145 HD
ATOM     17  H   UNL     1       4.387   5.822   5.467  0.00  0.00    +0.145 HD
ENDROOT
BRANCH   1  24
ATOM     18  C   UNL     1      -0.022   1.045   0.019  0.00  0.00    +0.044 C 
ATOM     19  C   UNL     1      -0.723   1.552   1.253  0.00  0.00    -0.047 A 
ATOM     20  C   UNL     1      -2.068   1.869   1.204  0.00  0.00    +0.003 A 
ATOM     21  C   UNL     1      -2.711   2.329   2.337  0.00  0.00    +0.000 A 
ATOM     22  C   UNL     1      -2.007   2.484   3.517  0.00  0.00    +0.000 A 
ATOM     23  C   UNL     1      -0.661   2.172   3.565  0.00  0.00    +0.004 A 
ATOM     24  C   UNL     1      -0.019   1.707   2.433  0.00  0.00    -0.036 A 
ENDBRANCH   1  24
TORSDOF 1
