REMARK  Name = ZINC38556238
REMARK  7 active torsions:
REMARK  status: ('A' for Active; 'I' for Inactive)
REMARK    1  A    between atoms: C_1  and  C_2
REMARK    2  A    between atoms: C_4  and  C_8
REMARK    3  A    between atoms: C_12  and  S_16
REMARK    4  A    between atoms: N_14  and  N_15
REMARK    5  A    between atoms: S_16  and  C_17
REMARK    6  A    between atoms: C_17  and  C_18
REMARK    7  A    between atoms: C_18  and  C_20
REMARK                            x       y       z     vdW  Elec       q    Type
REMARK                         _______ _______ _______ _____ _____    ______ ____
ROOT
ATOM      1  C   UNL     1      -0.976  -2.937  -1.266  0.00  0.00    +0.185 C 
ATOM      2  N   UNL     1      -0.331  -2.354  -2.472  0.00  0.00    -0.234 NA
ATOM      3  N   UNL     1      -0.366  -3.464  -3.437  0.00  0.00    -0.228 NA
ATOM      4  C   UNL     1      -0.103  -4.671  -2.622  0.00  0.00    +0.214 C 
ATOM      5  N   UNL     1      -0.495  -4.338  -1.235  0.00  0.00    -0.197 NA
ATOM      6  H   UNL     1       0.618  -2.075  -2.276  0.00  0.00    +0.143 HD
ATOM      7  H   UNL     1      -1.267  -3.522  -3.889  0.00  0.00    +0.143 HD
ENDROOT
BRANCH   1  11
ATOM      8  C   UNL     1      -0.018   1.503   0.010  0.00  0.00    +0.067 C 
ATOM      9  C   UNL     1       0.002  -0.004   0.002  0.00  0.00    +0.058 C 
ATOM     10  C   UNL     1      -1.086  -0.777   0.003  0.00  0.00    +0.029 C 
ATOM     11  C   UNL     1      -0.531  -2.190  -0.007  0.00  0.00    +0.186 C 
ATOM     12  N   UNL     1       0.926  -1.973  -0.013  0.00  0.00    -0.177 NA
ATOM     13  N   UNL     1       1.125  -0.756  -0.013  0.00  0.00    -0.159 NA
ENDBRANCH   1  11
BRANCH   5  14
ATOM     14  N   UNL     1       0.630  -4.482  -0.326  0.00  0.00    -0.264 NA
ATOM     15  H   UNL     1       0.958  -5.436  -0.305  0.00  0.00    +0.137 HD
ATOM     16  H   UNL     1       1.377  -3.849  -0.572  0.00  0.00    +0.137 HD
ENDBRANCH   5  14
BRANCH   4  17
ATOM     17  S   UNL     1      -1.096  -6.061  -3.231  0.00  0.00    -0.116 S 
BRANCH  17  18
ATOM     18  C   UNL     1      -2.806  -5.471  -3.096  0.00  0.00    +0.151 C 
BRANCH  18  19
ATOM     19  C   UNL     1      -3.748  -6.545  -3.576  0.00  0.00    +0.173 C 
ATOM     20  O   UNL     1      -3.309  -7.604  -3.970  0.00  0.00    -0.291 OA
BRANCH  19  21
ATOM     21  C   UNL     1      -5.199  -6.308  -3.567  0.00  0.00    +0.018 A 
ATOM     22  C   UNL     1      -5.708  -5.084  -3.118  0.00  0.00    +0.014 A 
ATOM     23  C   UNL     1      -7.069  -4.869  -3.112  0.00  0.00    +0.039 A 
ATOM     24  C   UNL     1      -7.934  -5.862  -3.549  0.00  0.00    +0.123 A 
ATOM     25  C   UNL     1      -7.435  -7.077  -3.995  0.00  0.00    +0.039 A 
ATOM     26  C   UNL     1      -6.076  -7.303  -4.012  0.00  0.00    +0.014 A 
ATOM     27  F   UNL     1      -9.267  -5.644  -3.539  0.00  0.00    -0.205 F 
ENDBRANCH  19  21
ENDBRANCH  18  19
ENDBRANCH  17  18
ENDBRANCH   4  17
TORSDOF 6
