REMARK  Name = ZINC01872845
REMARK  17 active torsions:
REMARK  status: ('A' for Active; 'I' for Inactive)
REMARK    1  A    between atoms: CG1_1  and  CB_2
REMARK    2  A    between atoms: CB_2  and  CG2_3
REMARK    3  A    between atoms: CB_2  and  CA_4
REMARK    4  A    between atoms: CA_4  and  C_6
REMARK    5  A    between atoms: CA_4  and  N_16
REMARK    6  A    between atoms: N_8  and  CA_9
REMARK    7  A    between atoms: CA_9  and  CB_11
REMARK    8  A    between atoms: CA_9  and  C_13
REMARK    9  A    between atoms: CB_11  and  OG_12
REMARK   10  A    between atoms: C_17  and  C_19
REMARK   11  A    between atoms: C_19  and  O_20
REMARK   12  A    between atoms: O_20  and  N_21
REMARK   13  A    between atoms: N_21  and  C_22
REMARK   14  A    between atoms: C_25  and  C_46
REMARK   15  A    between atoms: C_30  and  C_45
REMARK   16  A    between atoms: C_41  and  C_42
REMARK   17  A    between atoms: C_41  and  O_44
REMARK                            x       y       z     vdW  Elec       q    Type
REMARK                         _______ _______ _______ _____ _____    ______ ____
ROOT
ATOM      1  N   UNK A   0      -5.479   2.919  -2.933  0.00  0.00    -0.266 N 
ATOM      2  H   UNK A   0      -5.760   2.299  -3.623  0.00  0.00    +0.194 HD
ENDROOT
BRANCH   1   3
ATOM      3  C   UNK A   0      -6.056   4.187  -2.857  0.00  0.00    +0.057 C 
ATOM      4  C   UNK A   0      -5.673   5.041  -1.917  0.00  0.00    +0.001 C 
ATOM      5  C   UNK A   0      -6.222   6.414  -1.775  0.00  0.00    +0.040 C 
ATOM      6  C   UNK A   0      -7.488   6.697  -2.563  0.00  0.00    -0.004 C 
ATOM      7  C   UNK A   0      -7.484   8.142  -3.029  0.00  0.00    +0.003 C 
ATOM      8  C   UNK A   0      -7.538   9.118  -1.863  0.00  0.00    +0.005 C 
ATOM      9  C   UNK A   0      -8.934   9.559  -1.425  0.00  0.00    +0.011 C 
ATOM     10  C   UNK A   0      -9.772   9.947  -2.617  0.00  0.00    +0.011 C 
ATOM     11  C   UNK A   0      -9.830   8.756  -3.601  0.00  0.00    +0.002 C 
ATOM     12  C   UNK A   0      -8.452   8.490  -4.146  0.00  0.00    -0.003 C 
ATOM     13  C   UNK A   0      -8.470   7.452  -5.265  0.00  0.00    +0.008 C 
ATOM     14  C   UNK A   0      -8.809   6.074  -4.701  0.00  0.00    +0.031 C 
ATOM     15  C   UNK A   0      -7.739   5.735  -3.678  0.00  0.00    -0.061 C 
ATOM     16  C   UNK A   0      -7.093   4.590  -3.820  0.00  0.00    +0.027 C 
ATOM     17  C   UNK A   0     -10.882   9.233  -4.614  0.00  0.00    +0.008 C 
ATOM     18  C   UNK A   0     -11.949   9.916  -3.718  0.00  0.00    +0.049 C 
ATOM     19  C   UNK A   0     -11.253  10.249  -2.372  0.00  0.00    +0.132 C 
ATOM     20  C   UNK A   0      -9.162  11.191  -3.281  0.00  0.00    +0.015 C 
ATOM     21  C   UNK A   0      -8.625   6.477  -1.564  0.00  0.00    +0.016 C 
BRANCH  19  22
ATOM     22  C   UNK A   0     -11.811   9.418  -1.298  0.00  0.00    -0.070 C 
ATOM     23  C   UNK A   0     -12.257   8.753  -0.439  0.00  0.00    +0.007 C 
ENDBRANCH  19  22
BRANCH  19  24
ATOM     24  O   UNK A   0     -11.420  11.634  -2.063  0.00  0.00    -0.376 OA
ATOM     25  H   UNK A   0     -12.337  11.892  -1.897  0.00  0.00    +0.211 HD
ENDBRANCH  19  24
ENDBRANCH   1   3
BRANCH   1  26
ATOM     26  O   UNK A   0      -4.481   2.539  -2.003  0.00  0.00    -0.265 OA
BRANCH  26  27
ATOM     27  C   UNK A   0      -3.979   1.215  -2.199  0.00  0.00    +0.288 C 
BRANCH  27  29
ATOM     28  N   SER A   1      -2.312  -0.280  -1.148  0.00  0.00    -0.302 N 
ATOM     29  C   UNK A   0      -2.929   0.918  -1.159  0.00  0.00    +0.242 C 
ATOM     30  O   UNK A   0      -2.640   1.757  -0.332  0.00  0.00    -0.273 OA
ATOM     31  H   SER A   1      -2.543  -0.951  -1.810  0.00  0.00    +0.150 HD
BRANCH  28  32
ATOM     32  CA  SER A   1      -1.291  -0.569  -0.138  0.00  0.00    +0.161 C 
BRANCH  32  33
ATOM     33  C   SER A   1      -1.202  -2.058   0.075  0.00  0.00    +0.234 C 
ATOM     34  O   SER A   1      -1.610  -2.818  -0.778  0.00  0.00    -0.274 OA
ATOM     35  N   SER A   1      -0.669  -2.546   1.212  0.00  0.00    -0.299 N 
ATOM     36  H   SER A   1      -0.277  -1.942   1.862  0.00  0.00    +0.150 HD
BRANCH  35  37
ATOM     37  CA  SER A   1      -0.682  -3.989   1.468  0.00  0.00    +0.212 C 
BRANCH  37  38
ATOM     38  C   SER A   1       0.512  -4.627   0.805  0.00  0.00    +0.378 C 
ATOM     39  O   SER A   1       1.543  -3.992   0.666  0.00  0.00    -0.244 OA
ATOM     40  OXT SER A   1       0.446  -5.778   0.410  0.00  0.00    -0.244 OA
ENDBRANCH  37  38
BRANCH  37  41
ATOM     41  CB  SER A   1      -0.624  -4.241   2.976  0.00  0.00    +0.189 C 
BRANCH  41  42
ATOM     42  OG  SER A   1       0.627  -3.777   3.488  0.00  0.00    -0.393 OA
ATOM     43  H   SER A   1       0.733  -3.905   4.441  0.00  0.00    +0.209 HD
ENDBRANCH  41  42
ENDBRANCH  37  41
ENDBRANCH  35  37
ENDBRANCH  32  33
BRANCH  32  45
ATOM     44  CG1 SER A   1       0.377  -0.614  -1.997  0.00  0.00    +0.009 C 
ATOM     45  CB  SER A   1       0.063  -0.040  -0.614  0.00  0.00    +0.012 C 
ATOM     46  CG2 SER A   1       0.014   1.487  -0.695  0.00  0.00    +0.009 C 
ENDBRANCH  32  45
ENDBRANCH  28  32
ENDBRANCH  27  29
ENDBRANCH  26  27
ENDBRANCH   1  26
TORSDOF 13
