REMARK  Name = ZINC21992463
REMARK  7 active torsions:
REMARK  status: ('A' for Active; 'I' for Inactive)
REMARK    1  A    between atoms: C_1  and  C_2
REMARK    2  A    between atoms: C_2  and  O_4
REMARK    3  A    between atoms: O_4  and  N_5
REMARK    4  A    between atoms: C_6  and  C_7
REMARK    5  A    between atoms: C_6  and  C_13
REMARK    6  A    between atoms: C_13  and  S_15
REMARK    7  A    between atoms: S_15  and  C_16
REMARK                            x       y       z     vdW  Elec       q    Type
REMARK                         _______ _______ _______ _____ _____    ______ ____
ROOT
ATOM      1  N   UNL     1       1.095  -0.542  -0.011  0.00  0.00    -0.068 NA
ATOM      2  C   UNL     1       1.181  -1.843  -0.019  0.00  0.00    +0.183 C 
ENDROOT
BRANCH   2   3
ATOM      3  C   UNL     1       2.506  -2.496  -0.035  0.00  0.00    +0.106 A 
ATOM      4  C   UNL     1       3.651  -1.743  -0.047  0.00  0.00    +0.078 A 
ATOM      5  S   UNL     1       4.895  -3.026  -0.062  0.00  0.00    -0.060 S 
ATOM      6  C   UNL     1       3.780  -4.423  -0.059  0.00  0.00    +0.156 A 
ATOM      7  N   UNL     1       2.604  -3.825  -0.044  0.00  0.00    -0.223 NA
ATOM      8  N   UNL     1       4.073  -5.776  -0.069  0.00  0.00    -0.338 N 
ATOM      9  H   UNL     1       3.258  -6.516  -0.065  0.00  0.00    +0.144 HD
ATOM     10  H   UNL     1       5.120  -6.112  -0.081  0.00  0.00    +0.144 HD
ENDBRANCH   2   3
BRANCH   2  11
ATOM     11  C   UNL     1      -0.051  -2.667  -0.012  0.00  0.00    +0.249 C 
ATOM     12  O   UNL     1       0.029  -3.880  -0.019  0.00  0.00    -0.277 OA
BRANCH  11  13
ATOM     13  S   UNL     1      -1.631  -1.888   0.007  0.00  0.00    -0.018 S 
BRANCH  13  14
ATOM     14  C   UNL     1      -2.673  -3.310   0.010  0.00  0.00    +0.143 A 
ATOM     15  N   UNL     1      -3.985  -3.370   0.022  0.00  0.00    -0.232 NA
ATOM     16  C   UNL     1      -4.657  -4.541   0.022  0.00  0.00    +0.079 A 
ATOM     17  C   UNL     1      -6.057  -4.743   0.034  0.00  0.00    +0.029 A 
ATOM     18  C   UNL     1      -6.581  -6.010   0.030  0.00  0.00    +0.002 A 
ATOM     19  C   UNL     1      -5.765  -7.132   0.016  0.00  0.00    +0.001 A 
ATOM     20  C   UNL     1      -4.392  -6.971   0.005  0.00  0.00    +0.017 A 
ATOM     21  C   UNL     1      -3.858  -5.707   0.007  0.00  0.00    +0.040 A 
ATOM     22  S   UNL     1      -2.212  -5.037  -0.012  0.00  0.00    -0.061 S 
ENDBRANCH  13  14
ENDBRANCH  11  13
ENDBRANCH   2  11
BRANCH   1  23
ATOM     23  O   UNL     1       0.002  -0.004   0.002  0.00  0.00    -0.317 OA
BRANCH  23  25
ATOM     24  C   UNL     1      -1.331   2.074   0.020  0.00  0.00    +0.138 C 
ATOM     25  C   UNL     1      -0.016   1.338   0.009  0.00  0.00    +0.333 C 
ATOM     26  O   UNL     1       1.022   1.956   0.003  0.00  0.00    -0.249 OA
ENDBRANCH  23  25
ENDBRANCH   1  23
TORSDOF 6
