REMARK  Name = ZINC02257210
REMARK  11 active torsions:
REMARK  status: ('A' for Active; 'I' for Inactive)
REMARK    1  A    between atoms: C_1  and  C_2
REMARK    2  A    between atoms: N_8  and  C_9
REMARK    3  A    between atoms: C_9  and  C_10
REMARK    4  A    between atoms: C_10  and  N_52
REMARK    5  A    between atoms: C_11  and  N_52
REMARK    6  A    between atoms: C_12  and  N_52
REMARK    7  A    between atoms: C_13  and  C_21
REMARK    8  A    between atoms: C_15  and  C_19
REMARK    9  A    between atoms: C_16  and  N_18
REMARK   10  A    between atoms: C_24  and  O_27
REMARK   11  A    between atoms: O_27  and  C_28
REMARK                            x       y       z     vdW  Elec       q    Type
REMARK                         _______ _______ _______ _____ _____    ______ ____
ROOT
ATOM      1  C   UNL     1      -7.134   0.662   1.349  0.00  0.00    +0.064 C 
ATOM      2  C   UNL     1      -5.855   1.407   1.062  0.00  0.00    +0.022 A 
ATOM      3  C   UNL     1      -4.711   0.717   0.872  0.00  0.00    +0.068 A 
ATOM      4  C   UNL     1      -3.512   1.409   0.603  0.00  0.00    +0.141 A 
ATOM      5  C   UNL     1      -3.535   2.786   0.540  0.00  0.00    +0.072 A 
ATOM      6  C   UNL     1      -4.746   3.460   0.746  0.00  0.00    +0.259 A 
ATOM      7  O   UNL     1      -4.782   4.679   0.693  0.00  0.00    -0.267 OA
ATOM      8  N   UNL     1      -5.870   2.764   1.000  0.00  0.00    -0.314 N 
ATOM      9  C   UNL     1      -2.280   3.564   0.255  0.00  0.00    +0.103 C 
ATOM     10  C   UNL     1      -1.073   2.694   0.471  0.00  0.00    +0.098 C 
ATOM     11  C   UNL     1      -1.181   1.345   0.530  0.00  0.00    +0.199 C 
ATOM     12  O   UNL     1      -2.366   0.721   0.412  0.00  0.00    -0.441 OA
ENDROOT
BRANCH   9  13
ATOM     13  C   UNL     1      -2.305   4.047  -1.172  0.00  0.00    -0.034 A 
ATOM     14  C   UNL     1      -2.372   3.134  -2.208  0.00  0.00    +0.008 A 
ATOM     15  C   UNL     1      -2.401   3.575  -3.518  0.00  0.00    +0.046 A 
ATOM     16  C   UNL     1      -2.351   4.934  -3.792  0.00  0.00    +0.120 A 
ATOM     17  C   UNL     1      -2.278   5.847  -2.751  0.00  0.00    +0.046 A 
ATOM     18  C   UNL     1      -2.255   5.402  -1.443  0.00  0.00    +0.008 A 
BRANCH  16  19
ATOM     19  O   UNL     1      -2.373   5.369  -5.079  0.00  0.00    -0.495 OA
ATOM     20  C   UNL     1      -2.449   4.372  -6.100  0.00  0.00    +0.277 C 
ENDBRANCH  16  19
ENDBRANCH   9  13
BRANCH  11  21
ATOM     21  N   UNL     1      -0.049   0.594   0.723  0.00  0.00    -0.328 N 
ATOM     22  H   UNL     1      -0.110  -0.373   0.771  0.00  0.00    +0.145 HD
ATOM     23  H   UNL     1       0.814   1.030   0.806  0.00  0.00    +0.145 HD
ENDBRANCH  11  21
BRANCH  10  24
ATOM     24  C   UNL     1       0.216   3.302   0.611  0.00  0.00    +0.101 C 
ATOM     25  N   UNL     1       1.238   3.785   0.722  0.00  0.00    -0.191 NA
ENDBRANCH  10  24
BRANCH   8  26
ATOM     26  C   UNL     1      -7.130   3.482   1.211  0.00  0.00    +0.106 C 
BRANCH  26  27
ATOM     27  C   UNL     1      -7.272   3.836   2.693  0.00  0.00    -0.058 C 
BRANCH  27  30
ATOM     28  C   UNL     1      -9.688   3.685   2.641  0.00  0.00    -0.097 C 
ATOM     29  C   UNL     1      -8.600   5.118   4.260  0.00  0.00    -0.097 C 
ATOM     30  N   UNL     1      -8.536   4.578   2.886  0.00  0.00    +0.377 N 
ATOM     31  H   UNL     1      -8.571   5.358   2.219  0.00  0.00    -0.083 HD
ENDBRANCH  27  30
ENDBRANCH  26  27
ENDBRANCH   8  26
TORSDOF 7
