REMARK  Name = ZINC67062363
REMARK  9 active torsions:
REMARK  status: ('A' for Active; 'I' for Inactive)
REMARK    1  A    between atoms: C_1  and  C_2
REMARK    2  A    between atoms: C_2  and  N_3
REMARK    3  A    between atoms: N_3  and  C_4
REMARK    4  A    between atoms: C_4  and  C_5
REMARK    5  A    between atoms: C_9  and  C_12
REMARK    6  A    between atoms: C_12  and  N_13
REMARK    7  A    between atoms: N_16  and  N_17
REMARK    8  A    between atoms: C_18  and  C_20
REMARK    9  A    between atoms: C_20  and  C_21
REMARK                            x       y       z     vdW  Elec       q    Type
REMARK                         _______ _______ _______ _____ _____    ______ ____
ROOT
ATOM      1  N   UNL     1      -4.766  -0.339   5.272  0.00  0.00    -0.294 N 
ATOM      2  C   UNL     1      -5.508  -0.361   6.397  0.00  0.00    +0.316 C 
ATOM      3  O   UNL     1      -5.575  -1.377   7.061  0.00  0.00    -0.251 OA
ATOM      4  N   UNL     1      -6.175   0.744   6.786  0.00  0.00    -0.218 N 
ATOM      5  H   UNL     1      -4.712   0.472   4.742  0.00  0.00    +0.151 HD
ATOM      6  H   UNL     1      -6.709   0.728   7.595  0.00  0.00    +0.174 HD
ENDROOT
BRANCH   4   7
ATOM      7  N   UNL     1      -6.097   1.915   6.021  0.00  0.00    -0.233 N 
ATOM      8  C   UNL     1      -6.764   3.020   6.410  0.00  0.00    +0.229 C 
ATOM      9  O   UNL     1      -7.432   3.000   7.422  0.00  0.00    -0.274 OA
ATOM     10  H   UNL     1      -5.563   1.931   5.211  0.00  0.00    +0.173 HD
BRANCH   8  11
ATOM     11  C   UNL     1      -6.680   4.279   5.587  0.00  0.00    +0.101 C 
BRANCH  11  12
ATOM     12  C   UNL     1      -7.522   5.375   6.244  0.00  0.00    -0.002 C 
ATOM     13  C   UNL     1      -8.998   4.970   6.215  0.00  0.00    +0.004 C 
ATOM     14  C   UNL     1      -9.840   6.065   6.872  0.00  0.00    +0.000 C 
ATOM     15  C   UNL     1      -9.656   7.378   6.107  0.00  0.00    +0.000 C 
ATOM     16  C   UNL     1      -8.181   7.782   6.136  0.00  0.00    +0.000 C 
ATOM     17  C   UNL     1      -7.339   6.687   5.479  0.00  0.00    +0.004 C 
ENDBRANCH  11  12
ENDBRANCH   8  11
ENDBRANCH   4   7
BRANCH   1  18
ATOM     18  C   UNL     1      -4.041  -1.540   4.849  0.00  0.00    +0.142 C 
BRANCH  18  23
ATOM     19  N   UNL     1      -1.372  -0.511   0.012  0.00  0.00    -0.317 N 
ATOM     20  C   UNL     1      -2.013  -0.758   1.221  0.00  0.00    +0.099 A 
ATOM     21  C   UNL     1      -1.345  -0.516   2.417  0.00  0.00    +0.042 A 
ATOM     22  C   UNL     1      -1.994  -0.766   3.613  0.00  0.00    +0.010 A 
ATOM     23  C   UNL     1      -3.295  -1.252   3.571  0.00  0.00    -0.014 A 
ATOM     24  C   UNL     1      -3.897  -1.469   2.349  0.00  0.00    +0.089 A 
ATOM     25  N   UNL     1      -3.255  -1.216   1.224  0.00  0.00    -0.349 N 
ATOM     26  H   UNL     1      -3.703  -1.374   0.378  0.00  0.00    +0.167 HD
BRANCH  19  28
ATOM     27  C   UNL     1      -0.019   1.526   0.010  0.00  0.00    +0.024 C 
ATOM     28  C   UNL     1       0.002  -0.004   0.002  0.00  0.00    +0.103 C 
ENDBRANCH  19  28
BRANCH  19  29
ATOM     29  C   UNL     1      -2.072  -0.758  -1.251  0.00  0.00    +0.103 C 
ATOM     30  C   UNL     1      -1.816  -2.197  -1.703  0.00  0.00    +0.024 C 
ENDBRANCH  19  29
ENDBRANCH  18  23
ENDBRANCH   1  18
TORSDOF 7
