REMARK  Name = ZINC52525445
REMARK  12 active torsions:
REMARK  status: ('A' for Active; 'I' for Inactive)
REMARK    1  A    between atoms: C_1  and  C_2
REMARK    2  A    between atoms: C_2  and  C_3
REMARK    3  A    between atoms: C_3  and  N_4
REMARK    4  A    between atoms: C_5  and  C_7
REMARK    5  A    between atoms: C_11  and  C_13
REMARK    6  A    between atoms: C_13  and  N_14
REMARK    7  A    between atoms: N_17  and  C_18
REMARK    8  A    between atoms: C_18  and  C_19
REMARK    9  A    between atoms: C_19  and  N_27
REMARK   10  A    between atoms: C_23  and  C_26
REMARK   11  A    between atoms: N_27  and  C_28
REMARK   12  A    between atoms: N_27  and  C_29
REMARK                            x       y       z     vdW  Elec       q    Type
REMARK                         _______ _______ _______ _____ _____    ______ ____
ROOT
ATOM      1  N   UNL     1       1.404  -6.864  -5.535  0.00  0.00    -0.295 N 
ATOM      2  C   UNL     1       1.819  -7.537  -6.627  0.00  0.00    +0.300 C 
ATOM      3  O   UNL     1       2.981  -7.880  -6.724  0.00  0.00    -0.253 OA
ATOM      4  N   UNL     1       0.945  -7.828  -7.611  0.00  0.00    -0.301 N 
ATOM      5  H   UNL     1       0.477  -6.590  -5.457  0.00  0.00    +0.151 HD
ATOM      6  H   UNL     1       0.018  -7.553  -7.533  0.00  0.00    +0.150 HD
ENDROOT
BRANCH   1   7
ATOM      7  C   UNL     1       2.353  -6.548  -4.465  0.00  0.00    +0.141 C 
BRANCH   7  12
ATOM      8  C   UNL     1       0.921  -3.727  -2.387  0.00  0.00    +0.037 A 
ATOM      9  C   UNL     1       0.330  -4.434  -1.339  0.00  0.00    +0.013 A 
ATOM     10  C   UNL     1       0.400  -5.812  -1.314  0.00  0.00    +0.001 A 
ATOM     11  C   UNL     1       1.055  -6.493  -2.326  0.00  0.00    +0.005 A 
ATOM     12  C   UNL     1       1.642  -5.798  -3.368  0.00  0.00    -0.030 A 
ATOM     13  C   UNL     1       1.575  -4.420  -3.407  0.00  0.00    +0.018 A 
BRANCH   8  15
ATOM     14  N   UNL     1       0.218  -1.585  -1.434  0.00  0.00    -0.311 N 
ATOM     15  C   UNL     1       0.850  -2.251  -2.421  0.00  0.00    +0.244 C 
ATOM     16  O   UNL     1       1.361  -1.638  -3.337  0.00  0.00    -0.270 OA
ATOM     17  H   UNL     1      -0.190  -2.074  -0.702  0.00  0.00    +0.149 HD
BRANCH  14  18
ATOM     18  C   UNL     1       0.147  -0.122  -1.467  0.00  0.00    +0.104 C 
BRANCH  18  20
ATOM     19  C   UNL     1      -0.692   1.907  -0.275  0.00  0.00    +0.005 C 
ATOM     20  C   UNL     1      -0.618   0.380  -0.240  0.00  0.00    +0.015 C 
ENDBRANCH  18  20
ENDBRANCH  14  18
ENDBRANCH   8  15
ENDBRANCH   7  12
ENDBRANCH   1   7
BRANCH   4  21
ATOM     21  C   UNL     1       1.396  -8.559  -8.798  0.00  0.00    +0.094 C 
BRANCH  21  22
ATOM     22  C   UNL     1       0.193  -8.882  -9.685  0.00  0.00    -0.050 C 
ATOM     23  C   UNL     1      -0.411  -7.582 -10.220  0.00  0.00    -0.010 C 
ATOM     24  C   UNL     1       0.640  -6.832 -11.041  0.00  0.00    -0.001 C 
ATOM     25  C   UNL     1       1.091  -7.705 -12.213  0.00  0.00    +0.003 C 
ATOM     26  C   UNL     1       1.695  -9.006 -11.678  0.00  0.00    -0.015 C 
ATOM     27  C   UNL     1       0.644  -9.756 -10.857  0.00  0.00    -0.007 C 
ATOM     28  C   UNL     1       2.146  -9.879 -12.850  0.00  0.00    +0.007 C 
BRANCH  22  29
ATOM     29  N   UNL     1      -0.817  -9.603  -8.897  0.00  0.00    +0.381 N 
ATOM     30  C   UNL     1      -1.957  -9.945  -9.758  0.00  0.00    -0.096 C 
ATOM     31  C   UNL     1      -0.227 -10.834  -8.354  0.00  0.00    -0.096 C 
ATOM     32  H   UNL     1      -1.132  -9.017  -8.138  0.00  0.00    -0.082 HD
ENDBRANCH  22  29
ENDBRANCH  21  22
ENDBRANCH   4  21
TORSDOF 8
