REMARK  Name = ZINC65463804
REMARK  5 active torsions:
REMARK  status: ('A' for Active; 'I' for Inactive)
REMARK    1  A    between atoms: C_1  and  C_2
REMARK    2  A    between atoms: C_2  and  C_3
REMARK    3  A    between atoms: C_7  and  N_9
REMARK    4  A    between atoms: C_10  and  C_16
REMARK    5  A    between atoms: N_20  and  C_21
REMARK                            x       y       z     vdW  Elec       q    Type
REMARK                         _______ _______ _______ _____ _____    ______ ____
ROOT
ATOM      1  N   UNL     1      -4.062  -1.460  -2.389  0.00  0.00    -0.242 N 
ATOM      2  C   UNL     1      -5.284  -2.097  -2.515  0.00  0.00    +0.187 A 
ATOM      3  H   UNL     1      -4.374  -1.715  -5.478  0.00  0.00    +0.194 HD
ATOM      4  N   UNL     1      -5.533  -2.265  -3.785  0.00  0.00    -0.149 NA
ATOM      5  N   UNL     1      -4.460  -1.730  -4.512  0.00  0.00    -0.226 N 
ATOM      6  C   UNL     1      -3.572  -1.238  -3.625  0.00  0.00    +0.349 A 
ATOM      7  O   UNL     1      -2.517  -0.692  -3.892  0.00  0.00    -0.245 OA
ENDROOT
BRANCH   1  12
ATOM      8  C   UNL     1      -1.677  -1.395   0.411  0.00  0.00    -0.046 A 
ATOM      9  C   UNL     1      -2.222  -0.395   1.196  0.00  0.00    +0.004 A 
ATOM     10  C   UNL     1      -3.376   0.252   0.794  0.00  0.00    +0.002 A 
ATOM     11  C   UNL     1      -3.988  -0.099  -0.394  0.00  0.00    +0.026 A 
ATOM     12  C   UNL     1      -3.443  -1.102  -1.183  0.00  0.00    +0.053 A 
ATOM     13  C   UNL     1      -2.281  -1.746  -0.780  0.00  0.00    +0.030 A 
BRANCH   8  15
ATOM     14  C   UNL     1       0.800  -1.350   0.310  0.00  0.00    +0.009 C 
ATOM     15  C   UNL     1      -0.419  -2.097   0.853  0.00  0.00    +0.032 C 
ENDBRANCH   8  15
ENDBRANCH   1  12
BRANCH   2  16
ATOM     16  C   UNL     1      -6.157  -2.516  -1.403  0.00  0.00    +0.106 A 
ATOM     17  C   UNL     1      -5.798  -2.623  -0.076  0.00  0.00    +0.052 A 
ATOM     18  C   UNL     1      -6.921  -3.048   0.632  0.00  0.00    +0.135 A 
ATOM     19  N   UNL     1      -7.915  -3.196  -0.206  0.00  0.00    -0.179 NA
ATOM     20  N   UNL     1      -7.473  -2.866  -1.493  0.00  0.00    -0.264 N 
ATOM     21  C   UNL     1      -8.277  -2.894  -2.716  0.00  0.00    +0.173 C 
ENDBRANCH   2  16
TORSDOF 3
