REMARK  Name = ZINC12000358
REMARK  5 active torsions:
REMARK  status: ('A' for Active; 'I' for Inactive)
REMARK    1  A    between atoms: C_6  and  C_7
REMARK    2  A    between atoms: C_7  and  N_67
REMARK    3  A    between atoms: C_10  and  C_13
REMARK    4  A    between atoms: C_10  and  O_30
REMARK    5  A    between atoms: C_20  and  C_22
REMARK                            x       y       z     vdW  Elec       q    Type
REMARK                         _______ _______ _______ _____ _____    ______ ____
ROOT
ATOM      1  C   UNL     1       3.291  -2.202  -1.973  0.00  0.00    -0.075 C 
ATOM      2  C   UNL     1       3.563  -2.281  -3.477  0.00  0.00    +0.021 C 
ATOM      3  C   UNL     1       5.060  -2.500  -3.709  0.00  0.00    +0.088 C 
ATOM      4  C   UNL     1       5.842  -1.358  -3.054  0.00  0.00    +0.021 C 
ATOM      5  C   UNL     1       5.504  -1.306  -1.562  0.00  0.00    -0.075 C 
ATOM      6  N   UNL     1       4.053  -1.069  -1.407  0.00  0.00    +0.383 N 
ATOM      7  H   UNL     1       3.800  -0.212  -1.912  0.00  0.00    -0.081 HD
ENDROOT
BRANCH   3   8
ATOM      8  C   UNL     1       5.343  -2.519  -5.190  0.00  0.00    -0.015 A 
ATOM      9  C   UNL     1       5.643  -1.335  -5.850  0.00  0.00    +0.010 A 
ATOM     10  C   UNL     1       5.904  -1.329  -7.203  0.00  0.00    +0.047 A 
ATOM     11  C   UNL     1       5.869  -2.520  -7.919  0.00  0.00    +0.136 A 
ATOM     12  C   UNL     1       5.565  -3.718  -7.245  0.00  0.00    +0.021 A 
ATOM     13  C   UNL     1       5.308  -3.702  -5.872  0.00  0.00    +0.018 A 
ATOM     14  C   UNL     1       5.608  -4.768  -8.262  0.00  0.00    +0.063 A 
ATOM     15  C   UNL     1       5.923  -4.148  -9.429  0.00  0.00    +0.191 A 
ATOM     16  O   UNL     1       6.074  -2.824  -9.216  0.00  0.00    -0.450 OA
BRANCH  15  17
ATOM     17  C   UNL     1       6.075  -4.818 -10.728  0.00  0.00    +0.282 C 
ATOM     18  O   UNL     1       5.793  -5.996 -10.842  0.00  0.00    -0.267 OA
ATOM     19  N   UNL     1       6.526  -4.127 -11.794  0.00  0.00    -0.295 N 
ATOM     20  C   UNL     1       6.551  -4.741 -13.129  0.00  0.00    +0.108 C 
ATOM     21  C   UNL     1       5.802  -3.821 -14.104  0.00  0.00    +0.019 C 
ATOM     22  C   UNL     1       6.414  -2.420 -14.046  0.00  0.00    +0.003 C 
ATOM     23  C   UNL     1       6.260  -1.851 -12.633  0.00  0.00    +0.019 C 
ATOM     24  C   UNL     1       7.009  -2.748 -11.642  0.00  0.00    +0.108 C 
ENDBRANCH  15  17
ENDBRANCH   3   8
BRANCH   3  25
ATOM     25  O   UNL     1       5.458  -3.745  -3.131  0.00  0.00    -0.384 OA
ATOM     26  H   UNL     1       5.001  -4.513  -3.500  0.00  0.00    +0.211 HD
ENDBRANCH   3  25
BRANCH   6  27
ATOM     27  C   UNL     1       3.720  -0.901   0.022  0.00  0.00    -0.043 C 
BRANCH  27  33
ATOM     28  C   UNL     1       1.275  -1.380   0.258  0.00  0.00    +0.005 A 
ATOM     29  C   UNL     1      -0.040  -0.967   0.361  0.00  0.00    +0.049 A 
ATOM     30  C   UNL     1      -0.348   0.385   0.341  0.00  0.00    +0.162 A 
ATOM     31  C   UNL     1       0.670   1.324   0.221  0.00  0.00    +0.162 A 
ATOM     32  C   UNL     1       1.988   0.903   0.118  0.00  0.00    +0.051 A 
ATOM     33  C   UNL     1       2.287  -0.446   0.136  0.00  0.00    -0.060 A 
ATOM     34  O   UNL     1       0.391   2.656   0.208  0.00  0.00    -0.485 OA
ATOM     35  C   UNL     1      -0.965   3.027  -0.062  0.00  0.00    +0.270 C 
ATOM     36  C   UNL     1      -1.884   2.143   0.792  0.00  0.00    +0.270 C 
ATOM     37  O   UNL     1      -1.648   0.776   0.435  0.00  0.00    -0.485 OA
ENDBRANCH  27  33
ENDBRANCH   6  27
TORSDOF 5
