REMARK  Name = ZINC15935171
REMARK  9 active torsions:
REMARK  status: ('A' for Active; 'I' for Inactive)
REMARK    1  A    between atoms: C_1  and  C_2
REMARK    2  A    between atoms: C_7  and  N_12
REMARK    3  A    between atoms: C_9  and  C_11
REMARK    4  A    between atoms: C_13  and  C_15
REMARK    5  A    between atoms: C_15  and  C_16
REMARK    6  A    between atoms: C_16  and  N_17
REMARK    7  A    between atoms: N_17  and  S_18
REMARK    8  A    between atoms: S_18  and  C_21
REMARK    9  A    between atoms: C_26  and  N_27
REMARK                            x       y       z     vdW  Elec       q    Type
REMARK                         _______ _______ _______ _____ _____    ______ ____
ROOT
ATOM      1  N   UNL     1       1.867   0.020   8.577  0.00  0.00    -0.189 NA
ATOM      2  H   UNL     1       2.268  -0.859   8.661  0.00  0.00    +0.148 HD
ENDROOT
BRANCH   1   3
ATOM      3  S   UNL     1       2.115   1.159   9.753  0.00  0.00    +0.062 S 
ATOM      4  O   UNL     1       2.917   0.543  10.752  0.00  0.00    -0.153 OA
ATOM      5  O   UNL     1       2.510   2.351   9.088  0.00  0.00    -0.153 OA
BRANCH   3   6
ATOM      6  C   UNL     1       0.552   1.491  10.495  0.00  0.00    +0.146 A 
ATOM      7  C   UNL     1      -0.020   2.746  10.392  0.00  0.00    +0.048 A 
ATOM      8  C   UNL     1      -1.254   2.964  10.992  0.00  0.00    +0.038 A 
ATOM      9  C   UNL     1      -1.868   1.928  11.670  0.00  0.00    +0.128 A 
ATOM     10  N   UNL     1      -1.297   0.741  11.752  0.00  0.00    -0.238 NA
ATOM     11  C   UNL     1      -0.125   0.493  11.188  0.00  0.00    +0.143 A 
ATOM     12 BR   UNL     1      -2.084   4.659  10.884  0.00  0.00    -0.049 Br
BRANCH  11  13
ATOM     13  N   UNL     1       0.436  -0.774  11.294  0.00  0.00    -0.342 N 
ATOM     14  H   UNL     1       1.251  -0.986  10.812  0.00  0.00    +0.144 HD
ATOM     15  H   UNL     1       0.013  -1.447  11.851  0.00  0.00    +0.144 HD
ENDBRANCH  11  13
ENDBRANCH   3   6
ENDBRANCH   1   3
BRANCH   1  16
ATOM     16  C   UNL     1       1.042   0.341   7.409  0.00  0.00    +0.115 C 
BRANCH  16  17
ATOM     17  C   UNL     1       1.276  -0.704   6.317  0.00  0.00    +0.112 C 
BRANCH  17  19
ATOM     18  N   UNL     1       0.469  -1.163   4.024  0.00  0.00    -0.312 N 
ATOM     19  C   UNL     1       0.427  -0.374   5.116  0.00  0.00    +0.215 C 
ATOM     20  O   UNL     1      -0.294   0.601   5.132  0.00  0.00    -0.276 OA
ATOM     21  H   UNL     1       1.046  -1.943   4.011  0.00  0.00    +0.149 HD
BRANCH  18  27
ATOM     22  C   UNL     1      -0.678   0.413   0.229  0.00  0.00    +0.008 C 
ATOM     23  C   UNL     1      -0.579  -1.106   0.382  0.00  0.00    -0.009 C 
ATOM     24  C   UNL     1      -1.980  -1.692   0.571  0.00  0.00    +0.003 C 
ATOM     25  C   UNL     1      -2.618  -1.094   1.826  0.00  0.00    +0.002 C 
ATOM     26  C   UNL     1      -1.756  -1.429   3.045  0.00  0.00    +0.022 C 
ATOM     27  C   UNL     1      -0.356  -0.842   2.857  0.00  0.00    +0.076 C 
ATOM     28  C   UNL     1       0.283  -1.441   1.601  0.00  0.00    +0.009 C 
ATOM     29  C   UNL     1       1.683  -0.855   1.412  0.00  0.00    +0.009 C 
ENDBRANCH  18  27
ENDBRANCH  17  19
ENDBRANCH  16  17
ENDBRANCH   1  16
TORSDOF 7
