REMARK  Name = ZINC09638749
REMARK  7 active torsions:
REMARK  status: ('A' for Active; 'I' for Inactive)
REMARK    1  A    between atoms: C_1  and  C_2
REMARK    2  A    between atoms: C_5  and  C_9
REMARK    3  A    between atoms: C_7  and  C_8
REMARK    4  A    between atoms: C_14  and  C_17
REMARK    5  A    between atoms: C_18  and  C_30
REMARK    6  A    between atoms: N_19  and  C_22
REMARK    7  A    between atoms: C_27  and  C_28
REMARK                            x       y       z     vdW  Elec       q    Type
REMARK                         _______ _______ _______ _____ _____    ______ ____
ROOT
ATOM      1  C   UNL     1       4.398   0.514  -0.370  0.00  0.00    +0.250 C 
ATOM      2  O   UNL     1       4.133   1.695  -0.487  0.00  0.00    -0.270 OA
ATOM      3  N   UNL     1       3.406  -0.390  -0.247  0.00  0.00    -0.259 N 
ATOM      4  C   UNL     1       2.083   0.026  -0.254  0.00  0.00    +0.185 A 
ATOM      5  N   UNL     1       0.979  -0.696  -0.147  0.00  0.00    -0.202 NA
ATOM      6  C   UNL     1      -0.186  -0.079  -0.180  0.00  0.00    +0.192 A 
ATOM      7  N   UNL     1      -0.222   1.233  -0.317  0.00  0.00    -0.186 NA
ATOM      8  S   UNL     1       1.441   1.631  -0.406  0.00  0.00    +0.050 S 
ATOM      9  H   UNL     1       3.617  -1.332  -0.153  0.00  0.00    +0.157 HD
ENDROOT
BRANCH   1  14
ATOM     10  C   UNL     1       9.886  -1.213  -0.337  0.00  0.00    +0.044 C 
ATOM     11  C   UNL     1       8.449  -0.761  -0.346  0.00  0.00    -0.047 A 
ATOM     12  C   UNL     1       7.433  -1.692  -0.220  0.00  0.00    +0.004 A 
ATOM     13  C   UNL     1       6.115  -1.284  -0.221  0.00  0.00    +0.013 A 
ATOM     14  C   UNL     1       5.807   0.071  -0.362  0.00  0.00    +0.037 A 
ATOM     15  C   UNL     1       6.837   1.004  -0.489  0.00  0.00    +0.016 A 
ATOM     16  C   UNL     1       8.151   0.584  -0.480  0.00  0.00    -0.047 A 
ATOM     17  C   UNL     1       9.264   1.590  -0.618  0.00  0.00    +0.044 C 
ENDBRANCH   1  14
BRANCH   6  18
ATOM     18  C   UNL     1      -1.447  -0.854  -0.063  0.00  0.00    +0.153 A 
ATOM     19  C   UNL     1      -2.704  -0.332  -0.083  0.00  0.00    +0.073 A 
ATOM     20  N   UNL     1      -3.564  -1.378   0.052  0.00  0.00    -0.216 N 
ATOM     21  N   UNL     1      -2.774  -2.533   0.152  0.00  0.00    -0.060 NA
ATOM     22  N   UNL     1      -1.537  -2.184   0.075  0.00  0.00    -0.126 NA
ATOM     23  C   UNL     1      -3.072   1.123  -0.227  0.00  0.00    +0.068 C 
BRANCH  20  24
ATOM     24  C   UNL     1      -4.965  -1.314   0.085  0.00  0.00    +0.070 A 
ATOM     25  C   UNL     1      -5.600  -0.417   0.933  0.00  0.00    +0.031 A 
ATOM     26  C   UNL     1      -6.979  -0.352   0.960  0.00  0.00    +0.040 A 
ATOM     27  C   UNL     1      -7.729  -1.190   0.151  0.00  0.00    +0.124 A 
ATOM     28  C   UNL     1      -7.097  -2.088  -0.692  0.00  0.00    +0.043 A 
ATOM     29  C   UNL     1      -5.718  -2.152  -0.726  0.00  0.00    -0.022 A 
ATOM     30  C   UNL     1      -5.030  -3.131  -1.643  0.00  0.00    +0.046 C 
ATOM     31  F   UNL     1      -9.078  -1.129   0.183  0.00  0.00    -0.205 F 
ENDBRANCH  20  24
ENDBRANCH   6  18
TORSDOF 3
