REMARK  Name = ZINC44978077
REMARK  4 active torsions:
REMARK  status: ('A' for Active; 'I' for Inactive)
REMARK    1  A    between atoms: C_1  and  C_2
REMARK    2  A    between atoms: C_7  and  C_10
REMARK    3  A    between atoms: C_12  and  C_15
REMARK    4  A    between atoms: C_20  and  N_21
REMARK                            x       y       z     vdW  Elec       q    Type
REMARK                         _______ _______ _______ _____ _____    ______ ____
ROOT
ATOM      1  C   UNL     1       2.915  -0.547   2.462  0.00  0.00    +0.175 A 
ATOM      2  N   UNL     1       3.501   0.235   3.371  0.00  0.00    -0.191 NA
ATOM      3  C   UNL     1       3.976  -0.498   4.355  0.00  0.00    +0.260 A 
ATOM      4  O   UNL     1       3.696  -1.785   4.086  0.00  0.00    -0.333 OA
ATOM      5  N   UNL     1       2.999  -1.788   2.849  0.00  0.00    -0.061 NA
ENDROOT
BRANCH   1  11
ATOM      6  C   UNL     1       0.222   1.533  -0.176  0.00  0.00    +0.007 C 
ATOM      7  C   UNL     1       0.111   0.010  -0.085  0.00  0.00    -0.013 C 
ATOM      8  C   UNL     1       0.806  -0.625  -1.291  0.00  0.00    +0.003 C 
ATOM      9  C   UNL     1       2.282  -0.221  -1.300  0.00  0.00    +0.001 C 
ATOM     10  C   UNL     1       2.951  -0.705  -0.012  0.00  0.00    +0.011 C 
ATOM     11  C   UNL     1       2.256  -0.070   1.194  0.00  0.00    +0.061 C 
ATOM     12  C   UNL     1       0.780  -0.474   1.203  0.00  0.00    +0.014 C 
ENDBRANCH   1  11
BRANCH   3  13
ATOM     13  C   UNL     1       4.689   0.005   5.544  0.00  0.00    +0.060 A 
ATOM     14  C   UNL     1       4.181   1.091   6.261  0.00  0.00    +0.018 A 
ATOM     15  C   UNL     1       4.851   1.556   7.371  0.00  0.00    +0.039 A 
ATOM     16  C   UNL     1       6.031   0.950   7.782  0.00  0.00    +0.125 A 
ATOM     17  C   UNL     1       6.545  -0.126   7.081  0.00  0.00    +0.061 A 
ATOM     18  C   UNL     1       5.879  -0.610   5.964  0.00  0.00    +0.040 A 
ATOM     19  F   UNL     1       6.681   1.415   8.872  0.00  0.00    -0.205 F 
BRANCH  18  20
ATOM     20  N   UNL     1       6.391  -1.695   5.261  0.00  0.00    -0.357 N 
ATOM     21  H   UNL     1       5.979  -1.972   4.428  0.00  0.00    +0.142 HD
ATOM     22  H   UNL     1       7.162  -2.175   5.603  0.00  0.00    +0.142 HD
ENDBRANCH  18  20
ENDBRANCH   3  13
TORSDOF 3
