REMARK  Name = ZINC53304845
REMARK  7 active torsions:
REMARK  status: ('A' for Active; 'I' for Inactive)
REMARK    1  A    between atoms: C_1  and  C_2
REMARK    2  A    between atoms: C_2  and  C_3
REMARK    3  A    between atoms: C_2  and  C_4
REMARK    4  A    between atoms: C_4  and  C_6
REMARK    5  A    between atoms: C_4  and  N_13
REMARK    6  A    between atoms: C_14  and  C_16
REMARK    7  A    between atoms: N_24  and  C_27
REMARK                            x       y       z     vdW  Elec       q    Type
REMARK                         _______ _______ _______ _____ _____    ______ ____
ROOT
ATOM      1  N   UNL     1      -2.142  -0.048  -1.174  0.00  0.00    -0.304 N 
ATOM      2  C   UNL     1      -2.727   1.166  -1.160  0.00  0.00    +0.245 C 
ATOM      3  O   UNL     1      -2.667   1.858  -0.163  0.00  0.00    -0.270 OA
ATOM      4  H   UNL     1      -2.190  -0.601  -1.970  0.00  0.00    +0.150 HD
ENDROOT
BRANCH   2   5
ATOM      5  C   UNL     1      -3.443   1.657  -2.360  0.00  0.00    +0.039 A 
ATOM      6  C   UNL     1      -3.514   0.849  -3.506  0.00  0.00    +0.014 A 
ATOM      7  C   UNL     1      -4.167   1.278  -4.622  0.00  0.00    +0.016 A 
ATOM      8  C   UNL     1      -4.778   2.540  -4.632  0.00  0.00    +0.065 A 
ATOM      9  C   UNL     1      -4.714   3.367  -3.480  0.00  0.00    +0.080 A 
ATOM     10  C   UNL     1      -4.042   2.905  -2.339  0.00  0.00    +0.041 A 
ATOM     11  N   UNL     1      -5.304   4.570  -3.506  0.00  0.00    -0.222 NA
ATOM     12  C   UNL     1      -5.940   4.989  -4.590  0.00  0.00    +0.183 A 
ATOM     13  N   UNL     1      -6.029   4.245  -5.705  0.00  0.00    -0.290 N 
ATOM     14  C   UNL     1      -5.464   3.020  -5.768  0.00  0.00    +0.262 A 
ATOM     15  O   UNL     1      -5.553   2.276  -6.884  0.00  0.00    -0.267 OA
ATOM     16  C   UNL     1      -6.748   4.770  -6.868  0.00  0.00    +0.154 C 
ATOM     17  S   UNL     1      -6.676   6.535  -4.569  0.00  0.00    -0.011 S 
ENDBRANCH   2   5
BRANCH   1  18
ATOM     18  C   UNL     1      -1.433  -0.534   0.013  0.00  0.00    +0.106 C 
BRANCH  18  19
ATOM     19  C   UNL     1      -1.413  -2.041   0.005  0.00  0.00    -0.027 A 
ATOM     20  C   UNL     1      -1.201  -2.722  -1.179  0.00  0.00    +0.008 A 
ATOM     21  C   UNL     1      -1.182  -4.104  -1.188  0.00  0.00    +0.038 A 
ATOM     22  C   UNL     1      -1.375  -4.806  -0.011  0.00  0.00    +0.123 A 
ATOM     23  C   UNL     1      -1.586  -4.122   1.175  0.00  0.00    +0.038 A 
ATOM     24  C   UNL     1      -1.600  -2.740   1.182  0.00  0.00    +0.008 A 
ATOM     25  F   UNL     1      -1.356  -6.157  -0.018  0.00  0.00    -0.205 F 
ENDBRANCH  18  19
BRANCH  18  27
ATOM     26  C   UNL     1      -0.019   1.526   0.010  0.00  0.00    +0.009 C 
ATOM     27  C   UNL     1       0.002  -0.004   0.002  0.00  0.00    +0.008 C 
ATOM     28  C   UNL     1       0.742  -0.511   1.242  0.00  0.00    +0.009 C 
ENDBRANCH  18  27
ENDBRANCH   1  18
TORSDOF 4
