REMARK  Name = ZINC65329703
REMARK  9 active torsions:
REMARK  status: ('A' for Active; 'I' for Inactive)
REMARK    1  A    between atoms: C_1  and  C_2
REMARK    2  A    between atoms: C_3  and  C_18
REMARK    3  A    between atoms: N_11  and  C_14
REMARK    4  A    between atoms: C_14  and  C_15
REMARK    5  A    between atoms: C_15  and  C_16
REMARK    6  A    between atoms: C_15  and  C_17
REMARK    7  A    between atoms: N_20  and  C_21
REMARK    8  A    between atoms: C_21  and  C_22
REMARK    9  A    between atoms: C_22  and  C_23
REMARK                            x       y       z     vdW  Elec       q    Type
REMARK                         _______ _______ _______ _____ _____    ______ ____
ROOT
ATOM      1  C   UNL     1      -2.453  -0.318   0.031  0.00  0.00    +0.244 C 
ATOM      2  O   UNL     1      -2.694   0.869   0.158  0.00  0.00    -0.270 OA
ATOM      3  N   UNL     1      -3.463  -1.203  -0.073  0.00  0.00    -0.311 N 
ATOM      4  H   UNL     1      -3.274  -2.155  -0.094  0.00  0.00    +0.149 HD
ENDROOT
BRANCH   1   7
ATOM      5  C   UNL     1      -0.025   1.445   0.520  0.00  0.00    +0.086 C 
ATOM      6  C   UNL     1      -0.001  -0.030   0.212  0.00  0.00    +0.107 C 
ATOM      7  C   UNL     1      -1.109  -0.768  -0.006  0.00  0.00    +0.069 C 
ATOM      8  C   UNL     1      -0.627  -2.177  -0.299  0.00  0.00    +0.177 C 
ATOM      9  C   UNL     1       0.839  -1.911  -0.711  0.00  0.00    +0.308 C 
ATOM     10  O   UNL     1       1.132  -0.758   0.118  0.00  0.00    -0.470 OA
ATOM     11  N   UNL     1       0.910  -1.488  -2.106  0.00  0.00    -0.233 NA
ATOM     12  C   UNL     1       0.054  -1.823  -2.997  0.00  0.00    +0.189 C 
ATOM     13  N   UNL     1      -1.018  -2.629  -2.703  0.00  0.00    -0.261 N 
ATOM     14  C   UNL     1      -1.409  -2.790  -1.417  0.00  0.00    +0.234 C 
ATOM     15  O   UNL     1      -2.386  -3.461  -1.163  0.00  0.00    -0.274 OA
BRANCH  13  16
ATOM     16  C   UNL     1      -1.750  -3.301  -3.779  0.00  0.00    +0.117 C 
BRANCH  16  17
ATOM     17  C   UNL     1      -1.121  -4.670  -4.046  0.00  0.00    +0.001 C 
ATOM     18  C   UNL     1      -1.958  -5.423  -5.082  0.00  0.00    +0.009 C 
ATOM     19  C   UNL     1       0.301  -4.483  -4.578  0.00  0.00    +0.009 C 
ENDBRANCH  16  17
ENDBRANCH  13  16
ENDBRANCH   1   7
BRANCH   3  20
ATOM     20  C   UNL     1      -4.847  -0.730  -0.154  0.00  0.00    +0.109 C 
BRANCH  20  21
ATOM     21  C   UNL     1      -5.791  -1.929  -0.265  0.00  0.00    +0.052 C 
BRANCH  21  22
ATOM     22  C   UNL     1      -7.214  -1.442  -0.349  0.00  0.00    -0.040 C 
ATOM     23  C   UNL     1      -7.938  -1.234  -1.473  0.00  0.00    -0.001 A 
ATOM     24  C   UNL     1      -7.628  -1.392  -2.898  0.00  0.00    +0.010 A 
ATOM     25  C   UNL     1      -8.579  -1.097  -3.813  0.00  0.00    +0.001 A 
ATOM     26  C   UNL     1      -9.851  -0.645  -3.435  0.00  0.00    +0.002 A 
ATOM     27  C   UNL     1     -10.210  -0.475  -2.145  0.00  0.00    +0.026 A 
ATOM     28  C   UNL     1      -9.288  -0.755  -1.099  0.00  0.00    +0.043 A 
ATOM     29  N   UNL     1      -9.395  -0.671   0.205  0.00  0.00    -0.380 N 
ATOM     30  C   UNL     1      -8.125  -1.092   0.807  0.00  0.00    +0.144 C 
ATOM     31  H   UNL     1     -10.184  -0.382   0.691  0.00  0.00    +0.160 HD
ENDBRANCH  21  22
ENDBRANCH  20  21
ENDBRANCH   3  20
TORSDOF 6
