REMARK  Name = ZINC66366055
REMARK  8 active torsions:
REMARK  status: ('A' for Active; 'I' for Inactive)
REMARK    1  A    between atoms: C_1  and  C_2
REMARK    2  A    between atoms: C_2  and  C_3
REMARK    3  A    between atoms: C_3  and  C_5
REMARK    4  A    between atoms: C_3  and  N_8
REMARK    5  A    between atoms: C_5  and  C_6
REMARK    6  A    between atoms: C_5  and  C_7
REMARK    7  A    between atoms: N_11  and  N_12
REMARK    8  A    between atoms: C_13  and  C_15
REMARK                            x       y       z     vdW  Elec       q    Type
REMARK                         _______ _______ _______ _____ _____    ______ ____
ROOT
ATOM      1  N   UNL     1       4.756   0.655   0.996  0.00  0.00    -0.228 N 
ATOM      2  C   UNL     1       6.050   1.029   0.931  0.00  0.00    +0.281 C 
ATOM      3  O   UNL     1       6.700   1.147   1.952  0.00  0.00    -0.267 OA
ATOM      4  H   UNL     1       4.238   0.561   0.182  0.00  0.00    +0.173 HD
ENDROOT
BRANCH   2   5
ATOM      5  C   UNL     1       6.676   1.297  -0.378  0.00  0.00    +0.155 A 
ATOM      6  C   UNL     1       8.089   1.700  -0.459  0.00  0.00    +0.020 A 
ATOM      7  C   UNL     1       8.895   1.850   0.664  0.00  0.00    +0.011 A 
ATOM      8  C   UNL     1      10.211   2.232   0.507  0.00  0.00    +0.001 A 
ATOM      9  C   UNL     1      10.737   2.467  -0.756  0.00  0.00    +0.001 A 
ATOM     10  C   UNL     1       9.955   2.325  -1.883  0.00  0.00    +0.014 A 
ATOM     11  C   UNL     1       8.625   1.940  -1.746  0.00  0.00    +0.050 A 
ATOM     12  C   UNL     1       7.722   1.766  -2.892  0.00  0.00    +0.272 A 
ATOM     13  O   UNL     1       8.115   1.955  -4.028  0.00  0.00    -0.266 OA
ATOM     14  N   UNL     1       6.448   1.390  -2.655  0.00  0.00    -0.242 N 
ATOM     15  H   UNL     1       5.855   1.276  -3.413  0.00  0.00    +0.192 HD
ATOM     16  N   UNL     1       5.982   1.172  -1.483  0.00  0.00    -0.166 NA
ENDBRANCH   2   5
BRANCH   1  20
ATOM     17  N   UNL     1       2.148  -0.104   1.172  0.00  0.00    -0.295 N 
ATOM     18  C   UNL     1       2.869   0.026   2.303  0.00  0.00    +0.316 C 
ATOM     19  O   UNL     1       2.352  -0.194   3.381  0.00  0.00    -0.251 OA
ATOM     20  N   UNL     1       4.162   0.401   2.239  0.00  0.00    -0.218 N 
ATOM     21  H   UNL     1       2.559   0.072   0.311  0.00  0.00    +0.151 HD
ATOM     22  H   UNL     1       4.680   0.495   3.053  0.00  0.00    +0.174 HD
BRANCH  17  23
ATOM     23  C   UNL     1       0.742  -0.511   1.242  0.00  0.00    +0.077 C 
BRANCH  23  24
ATOM     24  C   UNL     1       0.655  -2.037   1.299  0.00  0.00    +0.003 C 
ATOM     25  C   UNL     1       1.395  -2.544   2.538  0.00  0.00    +0.009 C 
ATOM     26  C   UNL     1      -0.812  -2.462   1.372  0.00  0.00    +0.009 C 
ENDBRANCH  23  24
BRANCH  23  28
ATOM     27  C   UNL     1      -0.019   1.526   0.010  0.00  0.00    +0.006 C 
ATOM     28  C   UNL     1       0.002  -0.004   0.002  0.00  0.00    +0.019 C 
ENDBRANCH  23  28
ENDBRANCH  17  23
ENDBRANCH   1  20
TORSDOF 5
