REMARK  Name = ZINC06292396
REMARK  7 active torsions:
REMARK  status: ('A' for Active; 'I' for Inactive)
REMARK    1  A    between atoms: C_4  and  N_19
REMARK    2  A    between atoms: C_5  and  C_7
REMARK    3  A    between atoms: N_9  and  N_10
REMARK    4  A    between atoms: C_11  and  C_12
REMARK    5  A    between atoms: C_16  and  O_18
REMARK    6  A    between atoms: N_19  and  S_20
REMARK    7  A    between atoms: S_20  and  C_23
REMARK                            x       y       z     vdW  Elec       q    Type
REMARK                         _______ _______ _______ _____ _____    ______ ____
ROOT
ATOM      1  C   UNL     1      -1.147  11.283  -0.442  0.00  0.00    +0.001 A 
ATOM      2  C   UNL     1      -2.294  12.053  -0.329  0.00  0.00    +0.002 A 
ATOM      3  C   UNL     1      -3.524  11.453  -0.151  0.00  0.00    +0.025 A 
ATOM      4  C   UNL     1      -3.620  10.068  -0.084  0.00  0.00    +0.060 A 
ATOM      5  C   UNL     1      -2.460   9.286  -0.198  0.00  0.00    +0.061 A 
ATOM      6  C   UNL     1      -1.221   9.909  -0.372  0.00  0.00    +0.015 A 
ENDROOT
BRANCH   5   7
ATOM      7  C   UNL     1      -2.547   7.816  -0.128  0.00  0.00    +0.265 C 
ATOM      8  O   UNL     1      -3.627   7.278   0.029  0.00  0.00    -0.268 OA
ATOM      9  N   UNL     1      -1.431   7.069  -0.237  0.00  0.00    -0.203 N 
ATOM     10  H   UNL     1      -0.570   7.498  -0.362  0.00  0.00    +0.178 HD
BRANCH   9  11
ATOM     11  N   UNL     1      -1.514   5.672  -0.171  0.00  0.00    -0.187 NA
ATOM     12  C   UNL     1      -0.439   4.952  -0.277  0.00  0.00    +0.138 C 
BRANCH  12  13
ATOM     13  C   UNL     1      -0.526   3.482  -0.207  0.00  0.00    -0.002 A 
ATOM     14  C   UNL     1      -1.765   2.860  -0.026  0.00  0.00    +0.010 A 
ATOM     15  C   UNL     1      -1.843   1.484   0.033  0.00  0.00    +0.004 A 
ATOM     16  C   UNL     1      -0.698   0.717  -0.074  0.00  0.00    +0.045 A 
ATOM     17  C   UNL     1       0.538   1.325  -0.253  0.00  0.00    +0.117 A 
ATOM     18  C   UNL     1       0.628   2.705  -0.320  0.00  0.00    +0.054 A 
BRANCH  17  19
ATOM     19  O   UNL     1       1.659   0.565  -0.363  0.00  0.00    -0.507 OA
ATOM     20  H   UNL     1       1.874   0.310  -1.270  0.00  0.00    +0.292 HD
ENDBRANCH  17  19
ENDBRANCH  12  13
ENDBRANCH   9  11
ENDBRANCH   5   7
BRANCH   4  21
ATOM     21  N   UNL     1      -4.856   9.462   0.095  0.00  0.00    -0.215 N 
ATOM     22  H   UNL     1      -4.929   8.657   0.630  0.00  0.00    +0.174 HD
BRANCH  21  23
ATOM     23  S   UNL     1      -6.207  10.114  -0.607  0.00  0.00    +0.079 S 
ATOM     24  O   UNL     1      -7.272   9.206  -0.359  0.00  0.00    -0.149 OA
ATOM     25  O   UNL     1      -6.257  11.476  -0.204  0.00  0.00    -0.149 OA
BRANCH  23  26
ATOM     26  C   UNL     1      -5.941  10.114  -2.349  0.00  0.00    +0.146 A 
ATOM     27  C   UNL     1      -6.241   9.154  -3.258  0.00  0.00    +0.036 A 
ATOM     28  C   UNL     1      -5.939   9.374  -4.589  0.00  0.00    +0.010 A 
ATOM     29  C   UNL     1      -5.350  10.542  -4.945  0.00  0.00    +0.047 A 
ATOM     30  S   UNL     1      -5.214  11.381  -3.375  0.00  0.00    -0.077 S 
ENDBRANCH  23  26
ENDBRANCH  21  23
ENDBRANCH   4  21
TORSDOF 7
