REMARK  Name = ZINC59804663
REMARK  7 active torsions:
REMARK  status: ('A' for Active; 'I' for Inactive)
REMARK    1  A    between atoms: C_1  and  C_2
REMARK    2  A    between atoms: C_2  and  N_3
REMARK    3  A    between atoms: C_4  and  C_6
REMARK    4  A    between atoms: C_11  and  N_12
REMARK    5  A    between atoms: N_12  and  C_13
REMARK    6  A    between atoms: C_13  and  C_14
REMARK    7  A    between atoms: N_16  and  N_17
REMARK                            x       y       z     vdW  Elec       q    Type
REMARK                         _______ _______ _______ _____ _____    ______ ____
ROOT
ATOM      1  C   UNL     1       1.130  -6.751  -0.840  0.00  0.00    +0.247 C 
ATOM      2  O   UNL     1       0.501  -6.177   0.023  0.00  0.00    -0.273 OA
ATOM      3  N   UNL     1       1.327  -8.082  -0.759  0.00  0.00    -0.222 N 
ATOM      4  H   UNL     1       1.830  -8.541  -1.449  0.00  0.00    +0.174 HD
ENDROOT
BRANCH   3   5
ATOM      5  N   UNL     1       0.804  -8.802   0.324  0.00  0.00    -0.137 N 
ATOM      6  C   UNL     1       1.542  -9.262   1.355  0.00  0.00    +0.263 C 
ATOM      7  O   UNL     1       2.737  -9.137   1.516  0.00  0.00    -0.271 OA
ATOM      8  C   UNL     1       0.564  -9.967   2.268  0.00  0.00    +0.114 C 
ATOM      9  C   UNL     1       0.536  -9.295   3.636  0.00  0.00    +0.035 C 
ATOM     10  C   UNL     1      -0.481 -10.005   4.534  0.00  0.00    +0.003 C 
ATOM     11  C   UNL     1      -0.093 -11.477   4.678  0.00  0.00    +0.000 C 
ATOM     12  C   UNL     1      -0.092 -12.143   3.300  0.00  0.00    +0.003 C 
ATOM     13  C   UNL     1       0.927 -11.442   2.398  0.00  0.00    +0.035 C 
ATOM     14  N   UNL     1      -0.730  -9.813   1.591  0.00  0.00    -0.284 N 
ATOM     15  C   UNL     1      -0.490  -9.114   0.465  0.00  0.00    +0.326 C 
ATOM     16  O   UNL     1      -1.351  -8.803  -0.334  0.00  0.00    -0.251 OA
ATOM     17  H   UNL     1      -1.588 -10.146   1.897  0.00  0.00    +0.151 HD
ENDBRANCH   3   5
BRANCH   1  18
ATOM     18  C   UNL     1       1.692  -5.977  -2.005  0.00  0.00    +0.199 C 
BRANCH  18  19
ATOM     19  N   UNL     1       1.345  -4.561  -1.863  0.00  0.00    -0.335 N 
ATOM     20  H   UNL     1       0.827  -4.263  -1.099  0.00  0.00    +0.147 HD
BRANCH  19  26
ATOM     21  C   UNL     1       1.525  -2.273  -2.633  0.00  0.00    +0.058 A 
ATOM     22  C   UNL     1       1.949  -1.361  -3.604  0.00  0.00    +0.016 A 
ATOM     23  C   UNL     1       2.585  -1.812  -4.739  0.00  0.00    +0.021 A 
ATOM     24  C   UNL     1       2.808  -3.168  -4.925  0.00  0.00    +0.043 A 
ATOM     25  C   UNL     1       2.395  -4.082  -3.975  0.00  0.00    +0.043 A 
ATOM     26  C   UNL     1       1.757  -3.645  -2.822  0.00  0.00    +0.041 A 
ATOM     27 CL   UNL     1       3.611  -3.721  -6.362  0.00  0.00    -0.083 Cl
BRANCH  21  29
ATOM     28  N   UNL     1       0.734  -0.475  -1.179  0.00  0.00    -0.312 N 
ATOM     29  C   UNL     1       0.844  -1.797  -1.416  0.00  0.00    +0.246 C 
ATOM     30  O   UNL     1       0.382  -2.597  -0.625  0.00  0.00    -0.270 OA
ATOM     31  H   UNL     1       1.103   0.164  -1.810  0.00  0.00    +0.149 HD
BRANCH  28  33
ATOM     32  C   UNL     1       0.070   1.528   0.057  0.00  0.00    +0.024 C 
ATOM     33  C   UNL     1       0.057  -0.001   0.031  0.00  0.00    +0.101 C 
ENDBRANCH  28  33
ENDBRANCH  21  29
ENDBRANCH  19  26
ENDBRANCH  18  19
ENDBRANCH   1  18
TORSDOF 6
