REMARK  Name = ZINC01209768
REMARK  8 active torsions:
REMARK  status: ('A' for Active; 'I' for Inactive)
REMARK    1  A    between atoms: C_1  and  C_2
REMARK    2  A    between atoms: C_5  and  O_9
REMARK    3  A    between atoms: C_6  and  C_8
REMARK    4  A    between atoms: O_9  and  C_10
REMARK    5  A    between atoms: C_10  and  C_11
REMARK    6  A    between atoms: N_13  and  C_14
REMARK    7  A    between atoms: C_16  and  C_21
REMARK    8  A    between atoms: C_26  and  C_30
REMARK                            x       y       z     vdW  Elec       q    Type
REMARK                         _______ _______ _______ _____ _____    ______ ____
ROOT
ATOM      1  C   UNL     1       0.004  -0.008  -0.008  0.00  0.00    +0.053 A 
ATOM      2  C   UNL     1       1.211  -0.688  -0.030  0.00  0.00    +0.038 A 
ATOM      3  C   UNL     1       2.409   0.026  -0.048  0.00  0.00    +0.039 A 
ATOM      4  C   UNL     1       2.385   1.422  -0.043  0.00  0.00    +0.015 A 
ATOM      5  C   UNL     1       1.179   2.091  -0.021  0.00  0.00    +0.022 A 
ATOM      6  C   UNL     1      -0.010   1.383  -0.003  0.00  0.00    +0.062 A 
ATOM      7 CL   UNL     1      -1.524   2.232   0.017  0.00  0.00    -0.082 Cl
ENDROOT
BRANCH   3   8
ATOM      8  C   UNL     1       3.701  -0.693  -0.072  0.00  0.00    +0.228 A 
ATOM      9  N   UNL     1       3.835  -1.995  -0.073  0.00  0.00    -0.209 NA
ATOM     10  C   UNL     1       5.158  -2.297  -0.102  0.00  0.00    +0.110 A 
ATOM     11  C   UNL     1       5.873  -3.497  -0.118  0.00  0.00    +0.032 A 
ATOM     12  C   UNL     1       7.250  -3.472  -0.140  0.00  0.00    +0.005 A 
ATOM     13  C   UNL     1       7.930  -2.263  -0.147  0.00  0.00    -0.047 A 
ATOM     14  C   UNL     1       7.237  -1.070  -0.132  0.00  0.00    +0.052 A 
ATOM     15  C   UNL     1       5.851  -1.076  -0.109  0.00  0.00    +0.156 A 
ATOM     16  O   UNL     1       4.912  -0.104  -0.091  0.00  0.00    -0.435 OA
ATOM     17  C   UNL     1       9.436  -2.252  -0.172  0.00  0.00    +0.044 C 
ENDBRANCH   3   8
BRANCH   1  20
ATOM     18  C   UNL     1      -1.234  -1.977   0.497  0.00  0.00    +0.255 C 
ATOM     19  O   UNL     1      -0.244  -2.454   1.012  0.00  0.00    -0.272 OA
ATOM     20  N   UNL     1      -1.201  -0.721   0.010  0.00  0.00    -0.281 N 
ATOM     21  H   UNL     1      -2.012  -0.310  -0.328  0.00  0.00    +0.155 HD
BRANCH  18  22
ATOM     22  C   UNL     1      -2.500  -2.788   0.404  0.00  0.00    +0.324 C 
BRANCH  22  23
ATOM     23  O   UNL     1      -2.284  -4.076   0.985  0.00  0.00    -0.483 OA
BRANCH  23  28
ATOM     24  C   UNL     1      -6.638  -7.649   0.971  0.00  0.00    +0.044 C 
ATOM     25  C   UNL     1      -5.473  -6.693   0.975  0.00  0.00    -0.050 A 
ATOM     26  C   UNL     1      -5.615  -5.431   0.428  0.00  0.00    +0.007 A 
ATOM     27  C   UNL     1      -4.548  -4.553   0.430  0.00  0.00    +0.046 A 
ATOM     28  C   UNL     1      -3.335  -4.938   0.982  0.00  0.00    +0.124 A 
ATOM     29  C   UNL     1      -3.194  -6.207   1.524  0.00  0.00    -0.009 A 
ATOM     30  C   UNL     1      -4.265  -7.080   1.524  0.00  0.00    +0.010 A 
ATOM     31  C   UNL     1      -1.876  -6.631   2.119  0.00  0.00    +0.047 C 
ENDBRANCH  23  28
ENDBRANCH  22  23
ENDBRANCH  18  22
ENDBRANCH   1  20
TORSDOF 5
