REMARK  Name = ZINC46705086
REMARK  5 active torsions:
REMARK  status: ('A' for Active; 'I' for Inactive)
REMARK    1  A    between atoms: C_4  and  C_7
REMARK    2  A    between atoms: C_9  and  C_17
REMARK    3  A    between atoms: N_19  and  C_20
REMARK    4  A    between atoms: C_20  and  C_21
REMARK    5  A    between atoms: C_24  and  N_27
REMARK                            x       y       z     vdW  Elec       q    Type
REMARK                         _______ _______ _______ _____ _____    ______ ____
ROOT
ATOM      1  C   UNL     1       7.264  -0.985  -0.617  0.00  0.00    +0.264 C 
ATOM      2  O   UNL     1       8.034  -1.915  -0.468  0.00  0.00    -0.268 OA
ATOM      3  N   UNL     1       7.719   0.201  -1.070  0.00  0.00    -0.306 N 
ATOM      4  H   UNL     1       7.105   0.942  -1.189  0.00  0.00    +0.149 HD
ENDROOT
BRANCH   1   7
ATOM      5  C   UNL     1       3.725  -0.723  -0.054  0.00  0.00    +0.142 A 
ATOM      6  N   UNL     1       4.875  -0.210  -0.422  0.00  0.00    -0.223 NA
ATOM      7  C   UNL     1       5.834  -1.154  -0.302  0.00  0.00    +0.147 A 
ATOM      8  C   UNL     1       5.242  -2.290   0.161  0.00  0.00    +0.051 A 
ATOM      9  N   UNL     1       3.924  -2.024   0.311  0.00  0.00    -0.327 N 
ATOM     10  C   UNL     1       2.898  -2.968   0.763  0.00  0.00    +0.123 C 
ATOM     11  C   UNL     1       3.536  -4.015   1.679  0.00  0.00    +0.022 C 
ATOM     12  C   UNL     1       4.032  -5.197   0.846  0.00  0.00    +0.002 C 
ATOM     13  C   UNL     1       5.098  -4.740  -0.145  0.00  0.00    +0.006 C 
ATOM     14  C   UNL     1       5.913  -3.603   0.466  0.00  0.00    +0.056 C 
BRANCH   5  18
ATOM     15  C   UNL     1       0.005   1.328   0.008  0.00  0.00    +0.000 A 
ATOM     16  C   UNL     1       1.187   2.046   0.001  0.00  0.00    +0.001 A 
ATOM     17  C   UNL     1       2.399   1.386  -0.019  0.00  0.00    +0.011 A 
ATOM     18  C   UNL     1       2.430  -0.009  -0.032  0.00  0.00    +0.017 A 
ATOM     19  C   UNL     1       1.234  -0.727  -0.026  0.00  0.00    +0.011 A 
ATOM     20  C   UNL     1       0.029  -0.056  -0.006  0.00  0.00    +0.001 A 
ENDBRANCH   5  18
ENDBRANCH   1   7
BRANCH   3  21
ATOM     21  C   UNL     1       9.140   0.369  -1.382  0.00  0.00    +0.140 C 
BRANCH  21  22
ATOM     22  C   UNL     1       9.385   1.775  -1.866  0.00  0.00    -0.030 A 
ATOM     23  C   UNL     1       9.286   2.068  -3.213  0.00  0.00    +0.007 A 
ATOM     24  C   UNL     1       9.509   3.356  -3.659  0.00  0.00    +0.023 A 
ATOM     25  C   UNL     1       9.835   4.357  -2.753  0.00  0.00    +0.035 A 
ATOM     26  C   UNL     1       9.934   4.059  -1.400  0.00  0.00    +0.023 A 
ATOM     27  C   UNL     1       9.704   2.770  -0.960  0.00  0.00    +0.007 A 
BRANCH  25  28
ATOM     28  N   UNL     1      10.063   5.662  -3.202  0.00  0.00    -0.270 N 
ATOM     29  C   UNL     1       9.358   6.151  -4.241  0.00  0.00    +0.301 C 
ATOM     30  O   UNL     1       8.457   5.494  -4.726  0.00  0.00    -0.253 OA
ATOM     31  N   UNL     1       9.651   7.367  -4.743  0.00  0.00    -0.313 N 
ATOM     32  H   UNL     1      10.729   6.216  -2.765  0.00  0.00    +0.156 HD
ATOM     33  H   UNL     1      10.370   7.890  -4.356  0.00  0.00    +0.146 HD
ATOM     34  H   UNL     1       9.144   7.718  -5.491  0.00  0.00    +0.146 HD
ENDBRANCH  25  28
ENDBRANCH  21  22
ENDBRANCH   3  21
TORSDOF 5
