REMARK  Name = ZINC55568881
REMARK  7 active torsions:
REMARK  status: ('A' for Active; 'I' for Inactive)
REMARK    1  A    between atoms: C_1  and  C_2
REMARK    2  A    between atoms: C_2  and  C_4
REMARK    3  A    between atoms: C_4  and  O_5
REMARK    4  A    between atoms: O_5  and  C_6
REMARK    5  A    between atoms: C_9  and  C_12
REMARK    6  A    between atoms: N_14  and  C_15
REMARK    7  A    between atoms: C_20  and  N_22
REMARK                            x       y       z     vdW  Elec       q    Type
REMARK                         _______ _______ _______ _____ _____    ______ ____
ROOT
ATOM      1  C   UNL     1       0.025  -5.546  -5.516  0.00  0.00    +0.244 C 
ATOM      2  O   UNL     1       0.013  -5.075  -6.637  0.00  0.00    -0.270 OA
ATOM      3  N   UNL     1       0.040  -6.883  -5.347  0.00  0.00    -0.305 N 
ATOM      4  H   UNL     1       0.050  -7.259  -4.453  0.00  0.00    +0.149 HD
ENDROOT
BRANCH   1   8
ATOM      5  C   UNL     1       0.022  -2.978  -2.135  0.00  0.00    +0.121 A 
ATOM      6  C   UNL     1       0.009  -2.437  -3.415  0.00  0.00    +0.046 A 
ATOM      7  C   UNL     1       0.009  -3.267  -4.514  0.00  0.00    +0.016 A 
ATOM      8  C   UNL     1       0.025  -4.653  -4.341  0.00  0.00    +0.037 A 
ATOM      9  C   UNL     1       0.039  -5.192  -3.052  0.00  0.00    +0.016 A 
ATOM     10  C   UNL     1       0.043  -4.356  -1.958  0.00  0.00    +0.046 A 
BRANCH   5  11
ATOM     11  O   UNL     1       0.021  -2.157  -1.054  0.00  0.00    -0.488 OA
BRANCH  11  12
ATOM     12  C   UNL     1      -0.000  -0.750  -1.307  0.00  0.00    +0.259 C 
BRANCH  12  14
ATOM     13  C   UNL     1      -0.018   1.503   0.010  0.00  0.00    +0.042 C 
ATOM     14  C   UNL     1       0.002  -0.004   0.002  0.00  0.00    -0.043 C 
ATOM     15  C   UNL     1       0.022  -0.665   1.133  0.00  0.00    +0.011 C 
ENDBRANCH  12  14
ENDBRANCH  11  12
ENDBRANCH   5  11
ENDBRANCH   1   8
BRANCH   3  16
ATOM     16  C   UNL     1       0.040  -7.769  -6.514  0.00  0.00    +0.118 C 
ATOM     17  C   UNL     1       1.486  -8.048  -6.981  0.00  0.00    +0.183 C 
ATOM     18  O   UNL     1       1.850  -9.287  -6.335  0.00  0.00    -0.376 OA
ATOM     19  C   UNL     1       0.672 -10.120  -6.418  0.00  0.00    +0.180 C 
ATOM     20  C   UNL     1      -0.511  -9.162  -6.136  0.00  0.00    +0.105 C 
BRANCH  20  21
ATOM     21  N   UNL     1      -1.665  -9.505  -6.977  0.00  0.00    -0.291 NA
ATOM     22  C   UNL     1      -2.713  -8.478  -6.877  0.00  0.00    +0.113 C 
ATOM     23  C   UNL     1      -3.869  -8.844  -7.812  0.00  0.00    +0.175 C 
ATOM     24  O   UNL     1      -4.353 -10.146  -7.477  0.00  0.00    -0.377 OA
ATOM     25  C   UNL     1      -3.359 -11.171  -7.564  0.00  0.00    +0.175 C 
ATOM     26  C   UNL     1      -2.198 -10.829  -6.626  0.00  0.00    +0.113 C 
ENDBRANCH  20  21
ENDBRANCH   3  16
TORSDOF 6
