REMARK  Name = ZINC01611130
REMARK  3 active torsions:
REMARK  status: ('A' for Active; 'I' for Inactive)
REMARK    1  A    between atoms: C_1  and  S_2
REMARK    2  A    between atoms: S_2  and  C_3
REMARK    3  A    between atoms: N_9  and  C_12
REMARK                            x       y       z     vdW  Elec       q    Type
REMARK                         _______ _______ _______ _____ _____    ______ ____
ROOT
ATOM      1  C   UNL     1       1.112   2.025   0.002  0.00  0.00    +0.192 A 
ATOM      2  N   UNL     1      -0.016   1.323   0.009  0.00  0.00    -0.207 NA
ATOM      3  C   UNL     1       0.002  -0.004   0.002  0.00  0.00    +0.131 A 
ATOM      4  C   UNL     1       1.250  -0.660  -0.013  0.00  0.00    +0.078 A 
ATOM      5  C   UNL     1       1.659  -2.011  -0.025  0.00  0.00    +0.148 A 
ATOM      6  N   UNL     1       2.961  -2.048  -0.037  0.00  0.00    -0.175 NA
ATOM      7  N   UNL     1       3.470  -0.743  -0.035  0.00  0.00    -0.217 N 
ATOM      8  C   UNL     1       2.419   0.125  -0.020  0.00  0.00    +0.167 A 
ATOM      9  N   UNL     1       2.304   1.452  -0.012  0.00  0.00    -0.202 NA
ATOM     10  N   UNL     1      -1.175  -0.726   0.009  0.00  0.00    -0.342 N 
ATOM     11  H   UNL     1      -2.028  -0.264   0.019  0.00  0.00    +0.144 HD
ATOM     12  H   UNL     1      -1.149  -1.696   0.004  0.00  0.00    +0.144 HD
ENDROOT
BRANCH   7  13
ATOM     13  C   UNL     1       4.888  -0.375  -0.046  0.00  0.00    +0.239 C 
ATOM     14  C   UNL     1       5.505  -0.625   1.346  0.00  0.00    +0.058 C 
ATOM     15  C   UNL     1       6.188  -2.008   1.161  0.00  0.00    +0.032 C 
ATOM     16  C   UNL     1       6.640  -1.916  -0.318  0.00  0.00    +0.162 C 
ATOM     17  O   UNL     1       5.595  -1.193  -0.986  0.00  0.00    -0.355 OA
ENDBRANCH   7  13
BRANCH   1  19
ATOM     18  C   UNL     1      -0.780   4.001   0.030  0.00  0.00    +0.093 C 
ATOM     19  S   UNL     1       1.016   3.784   0.012  0.00  0.00    -0.089 S 
ENDBRANCH   1  19
TORSDOF 2
