REMARK  Name = ZINC64164939
REMARK  8 active torsions:
REMARK  status: ('A' for Active; 'I' for Inactive)
REMARK    1  A    between atoms: C_1  and  O_2
REMARK    2  A    between atoms: O_2  and  C_3
REMARK    3  A    between atoms: C_6  and  O_33
REMARK    4  A    between atoms: C_7  and  N_9
REMARK    5  A    between atoms: C_10  and  C_12
REMARK    6  A    between atoms: C_15  and  C_29
REMARK    7  A    between atoms: C_29  and  C_30
REMARK    8  A    between atoms: O_33  and  C_34
REMARK                            x       y       z     vdW  Elec       q    Type
REMARK                         _______ _______ _______ _____ _____    ______ ____
ROOT
ATOM      1  C   UNL     1       0.728  -6.266  -1.201  0.00  0.00    +0.110 C 
ATOM      2  C   UNL     1      -0.015  -6.821  -2.440  0.00  0.00    +0.034 C 
ATOM      3  C   UNL     1      -0.792  -8.033  -1.865  0.00  0.00    +0.064 C 
ATOM      4  N   UNL     1      -1.206  -7.566  -0.516  0.00  0.00    -0.296 NA
ATOM      5  C   UNL     1      -0.067  -6.786   0.002  0.00  0.00    +0.135 C 
ATOM      6  C   UNL     1       0.801  -7.622   0.904  0.00  0.00    +0.004 A 
ATOM      7  C   UNL     1       1.520  -8.780   0.714  0.00  0.00    +0.023 A 
ATOM      8  C   UNL     1       2.240  -9.327   1.762  0.00  0.00    +0.018 A 
ATOM      9  C   UNL     1       2.235  -8.706   2.999  0.00  0.00    +0.017 A 
ATOM     10  C   UNL     1       1.516  -7.545   3.192  0.00  0.00    +0.025 A 
ATOM     11  C   UNL     1       0.789  -6.988   2.142  0.00  0.00    +0.039 A 
ATOM     12  N   UNL     1      -0.002  -5.839   2.089  0.00  0.00    -0.283 N 
ATOM     13  C   UNL     1      -0.540  -5.648   0.869  0.00  0.00    +0.243 C 
ATOM     14  O   UNL     1      -1.264  -4.735   0.533  0.00  0.00    -0.273 OA
ATOM     15 BR   UNL     1       3.229 -10.919   1.505  0.00  0.00    -0.050 Br
ATOM     16  H   UNL     1      -2.039  -6.999  -0.569  0.00  0.00    +0.123 HD
ATOM     17  H   UNL     1      -0.148  -5.247   2.843  0.00  0.00    +0.155 HD
ENDROOT
BRANCH   1  19
ATOM     18  N   UNL     1       1.742  -4.076  -0.658  0.00  0.00    -0.282 N 
ATOM     19  C   UNL     1       0.725  -4.759  -1.220  0.00  0.00    +0.223 C 
ATOM     20  O   UNL     1      -0.193  -4.161  -1.741  0.00  0.00    -0.275 OA
ATOM     21  H   UNL     1       2.505  -4.554  -0.296  0.00  0.00    +0.155 HD
BRANCH  18  26
ATOM     22  C   UNL     1       1.066  -0.571  -1.561  0.00  0.00    +0.122 A 
ATOM     23  C   UNL     1       1.612   0.091  -0.471  0.00  0.00    +0.049 A 
ATOM     24  C   UNL     1       2.199  -0.626   0.555  0.00  0.00    +0.051 A 
ATOM     25  C   UNL     1       2.244  -2.009   0.496  0.00  0.00    +0.141 A 
ATOM     26  C   UNL     1       1.697  -2.677  -0.597  0.00  0.00    +0.079 A 
ATOM     27  C   UNL     1       1.104  -1.956  -1.622  0.00  0.00    +0.072 A 
BRANCH  22  29
ATOM     28  C   UNL     1       0.486   1.561  -2.440  0.00  0.00    +0.277 C 
ATOM     29  O   UNL     1       0.489   0.138  -2.568  0.00  0.00    -0.495 OA
ENDBRANCH  22  29
BRANCH  25  30
ATOM     30  O   UNL     1       2.822  -2.715   1.506  0.00  0.00    -0.493 OA
ATOM     31  C   UNL     1       3.362  -1.964   2.595  0.00  0.00    +0.277 C 
ENDBRANCH  25  30
ENDBRANCH  18  26
ENDBRANCH   1  19
BRANCH   3  32
ATOM     32  C   UNL     1      -2.014  -8.350  -2.729  0.00  0.00    +0.114 C 
BRANCH  32  33
ATOM     33  C   UNL     1      -2.679  -9.603  -2.219  0.00  0.00    +0.212 C 
ATOM     34  O   UNL     1      -2.220 -10.185  -1.260  0.00  0.00    -0.276 OA
ATOM     35  N   UNL     1      -3.783 -10.076  -2.830  0.00  0.00    -0.329 N 
ATOM     36  H   UNL     1      -4.150  -9.610  -3.598  0.00  0.00    +0.145 HD
ATOM     37  H   UNL     1      -4.211 -10.883  -2.502  0.00  0.00    +0.145 HD
ENDBRANCH  32  33
ENDBRANCH   3  32
TORSDOF 6
