REMARK  Name = ZINC04541231
REMARK  10 active torsions:
REMARK  status: ('A' for Active; 'I' for Inactive)
REMARK    1  A    between atoms: C_1  and  C_2
REMARK    2  A    between atoms: C_5  and  C_8
REMARK    3  A    between atoms: C_11  and  S_20
REMARK    4  A    between atoms: N_12  and  C_13
REMARK    5  A    between atoms: C_16  and  C_19
REMARK    6  A    between atoms: S_20  and  C_21
REMARK    7  A    between atoms: C_21  and  C_23
REMARK    8  A    between atoms: C_21  and  C_26
REMARK    9  A    between atoms: C_23  and  C_24
REMARK   10  A    between atoms: C_23  and  C_25
REMARK                            x       y       z     vdW  Elec       q    Type
REMARK                         _______ _______ _______ _____ _____    ______ ____
ROOT
ATOM      1  C   UNL     1      -2.491   0.996   0.127  0.00  0.00    +0.169 A 
ATOM      2  N   UNL     1      -2.645  -0.300   0.271  0.00  0.00    -0.128 NA
ATOM      3  N   UNL     1      -3.895  -0.591   0.329  0.00  0.00    -0.122 NA
ATOM      4  C   UNL     1      -4.619   0.501   0.227  0.00  0.00    +0.197 A 
ATOM      5  N   UNL     1      -3.751   1.552   0.101  0.00  0.00    -0.270 N 
ENDROOT
BRANCH   1  10
ATOM      6  C   UNL     1       2.503   3.827  -0.276  0.00  0.00    +0.044 C 
ATOM      7  C   UNL     1       1.195   3.084  -0.173  0.00  0.00    -0.050 A 
ATOM      8  C   UNL     1       0.021   3.700  -0.567  0.00  0.00    +0.004 A 
ATOM      9  C   UNL     1      -1.180   3.026  -0.475  0.00  0.00    +0.012 A 
ATOM     10  C   UNL     1      -1.208   1.722   0.021  0.00  0.00    +0.020 A 
ATOM     11  C   UNL     1      -0.019   1.105   0.413  0.00  0.00    +0.012 A 
ATOM     12  C   UNL     1       1.175   1.790   0.316  0.00  0.00    +0.004 A 
ENDBRANCH   1  10
BRANCH   5  13
ATOM     13  C   UNL     1      -4.077   2.909  -0.031  0.00  0.00    +0.051 A 
ATOM     14  C   UNL     1      -3.776   3.799   0.991  0.00  0.00    +0.026 A 
ATOM     15  C   UNL     1      -4.093   5.136   0.856  0.00  0.00    +0.005 A 
ATOM     16  C   UNL     1      -4.719   5.587  -0.292  0.00  0.00    -0.050 A 
ATOM     17  C   UNL     1      -5.025   4.702  -1.309  0.00  0.00    +0.005 A 
ATOM     18  C   UNL     1      -4.705   3.365  -1.182  0.00  0.00    +0.026 A 
ATOM     19  C   UNL     1      -5.068   7.046  -0.434  0.00  0.00    +0.044 C 
ENDBRANCH   5  13
BRANCH   4  20
ATOM     20  S   UNL     1      -6.378   0.596   0.256  0.00  0.00    -0.073 S 
BRANCH  20  21
ATOM     21  C   UNL     1      -6.780  -1.131   0.617  0.00  0.00    +0.143 C 
BRANCH  21  22
ATOM     22  C   UNL     1      -6.328  -1.470   2.014  0.00  0.00    +0.234 C 
ATOM     23  O   UNL     1      -6.217  -0.594   2.845  0.00  0.00    -0.274 OA
ATOM     24  N   UNL     1      -6.048  -2.748   2.340  0.00  0.00    -0.239 N 
ATOM     25  C   UNL     1      -5.644  -3.051   3.590  0.00  0.00    +0.303 C 
ATOM     26  O   UNL     1      -5.532  -2.173   4.423  0.00  0.00    -0.253 OA
ATOM     27  N   UNL     1      -5.364  -4.329   3.916  0.00  0.00    -0.313 N 
ATOM     28  H   UNL     1      -6.138  -3.449   1.676  0.00  0.00    +0.159 HD
ATOM     29  H   UNL     1      -5.453  -5.029   3.252  0.00  0.00    +0.146 HD
ATOM     30  H   UNL     1      -5.073  -4.547   4.815  0.00  0.00    +0.146 HD
ENDBRANCH  21  22
BRANCH  21  31
ATOM     31  C   UNL     1      -8.292  -1.337   0.506  0.00  0.00    +0.005 C 
ATOM     32  C   UNL     1      -9.011  -0.347   1.425  0.00  0.00    +0.009 C 
ATOM     33  C   UNL     1      -8.734  -1.103  -0.940  0.00  0.00    +0.009 C 
ENDBRANCH  21  31
ENDBRANCH  20  21
ENDBRANCH   4  20
TORSDOF 6
