REMARK  Name = ZINC39447616
REMARK  8 active torsions:
REMARK  status: ('A' for Active; 'I' for Inactive)
REMARK    1  A    between atoms: C_1  and  C_2
REMARK    2  A    between atoms: C_7  and  C_11
REMARK    3  A    between atoms: C_7  and  C_12
REMARK    4  A    between atoms: C_14  and  C_15
REMARK    5  A    between atoms: N_17  and  N_18
REMARK    6  A    between atoms: C_19  and  C_21
REMARK    7  A    between atoms: C_21  and  C_22
REMARK    8  A    between atoms: C_21  and  C_23
REMARK                            x       y       z     vdW  Elec       q    Type
REMARK                         _______ _______ _______ _____ _____    ______ ____
ROOT
ATOM      1  C   UNL     1      -0.019   1.526   0.010  0.00  0.00    +0.019 C 
ATOM      2  C   UNL     1       0.002  -0.004   0.002  0.00  0.00    +0.075 C 
ATOM      3  C   UNL     1       0.756  -0.521  -1.191  0.00  0.00    +0.025 C 
ATOM      4  C   UNL     1       1.812  -1.228  -0.686  0.00  0.00    +0.049 C 
ATOM      5  C   UNL     1       2.808  -1.913  -1.600  0.00  0.00    +0.062 C 
ATOM      6  C   UNL     1       2.095  -2.251  -2.915  0.00  0.00    -0.023 C 
ATOM      7  C   UNL     1       1.492  -0.990  -3.536  0.00  0.00    +0.086 C 
ATOM      8  C   UNL     1       0.508  -0.365  -2.570  0.00  0.00    +0.162 C 
ATOM      9  O   UNL     1      -0.461   0.247  -2.968  0.00  0.00    -0.292 OA
ATOM     10  C   UNL     1       3.100  -2.865  -3.891  0.00  0.00    +0.011 C 
ATOM     11  C   UNL     1       0.980  -3.262  -2.640  0.00  0.00    +0.011 C 
ATOM     12  N   UNL     1       1.810  -1.209   0.645  0.00  0.00    -0.250 NA
ATOM     13  C   UNL     1       0.816  -0.539   1.168  0.00  0.00    +0.112 C 
ENDROOT
BRANCH  13  14
ATOM     14  C   UNL     1       0.538  -0.339   2.607  0.00  0.00    +0.275 C 
ATOM     15  O   UNL     1      -0.427   0.313   2.954  0.00  0.00    -0.267 OA
ATOM     16  N   UNL     1       1.356  -0.878   3.533  0.00  0.00    -0.229 N 
ATOM     17  H   UNL     1       2.126  -1.398   3.256  0.00  0.00    +0.173 HD
BRANCH  16  18
ATOM     18  N   UNL     1       1.092  -0.688   4.896  0.00  0.00    -0.234 N 
ATOM     19  C   UNL     1       1.909  -1.228   5.822  0.00  0.00    +0.232 C 
ATOM     20  O   UNL     1       2.873  -1.878   5.475  0.00  0.00    -0.274 OA
ATOM     21  H   UNL     1       0.322  -0.168   5.173  0.00  0.00    +0.173 HD
BRANCH  19  22
ATOM     22  C   UNL     1       1.626  -1.023   7.288  0.00  0.00    +0.070 C 
ATOM     23  C   UNL     1       0.251  -1.601   7.627  0.00  0.00    +0.017 C 
ATOM     24  C   UNL     1       2.697  -1.734   8.118  0.00  0.00    +0.017 C 
ENDBRANCH  19  22
ENDBRANCH  16  18
ENDBRANCH  13  14
TORSDOF 3
