REMARK  Name = ZINC02258032
REMARK  6 active torsions:
REMARK  status: ('A' for Active; 'I' for Inactive)
REMARK    1  A    between atoms: C_1  and  C_2
REMARK    2  A    between atoms: N_8  and  C_9
REMARK    3  A    between atoms: C_9  and  C_10
REMARK    4  A    between atoms: C_15  and  C_23
REMARK    5  A    between atoms: C_17  and  C_21
REMARK    6  A    between atoms: C_18  and  N_20
REMARK                            x       y       z     vdW  Elec       q    Type
REMARK                         _______ _______ _______ _____ _____    ______ ____
ROOT
ATOM      1  C   UNL     1       5.878  -1.014  -1.305  0.00  0.00    +0.064 C 
ATOM      2  C   UNL     1       4.621  -0.227  -1.038  0.00  0.00    +0.023 A 
ATOM      3  C   UNL     1       3.453  -0.880  -0.856  0.00  0.00    +0.068 A 
ATOM      4  C   UNL     1       2.273  -0.149  -0.604  0.00  0.00    +0.141 A 
ATOM      5  C   UNL     1       2.340   1.227  -0.550  0.00  0.00    +0.072 A 
ATOM      6  C   UNL     1       3.573   1.861  -0.746  0.00  0.00    +0.260 A 
ATOM      7  O   UNL     1       3.647   3.079  -0.702  0.00  0.00    -0.267 OA
ATOM      8  N   UNL     1       4.678   1.129  -0.984  0.00  0.00    -0.305 N 
ATOM      9  C   UNL     1       1.107   2.046  -0.283  0.00  0.00    +0.103 C 
ATOM     10  C   UNL     1      -0.126   1.213  -0.499  0.00  0.00    +0.098 C 
ATOM     11  C   UNL     1      -0.059  -0.138  -0.554  0.00  0.00    +0.199 C 
ATOM     12  O   UNL     1       1.105  -0.799  -0.420  0.00  0.00    -0.441 OA
ENDROOT
BRANCH   9  13
ATOM     13  C   UNL     1       1.133   2.539   1.141  0.00  0.00    -0.034 A 
ATOM     14  C   UNL     1       1.148   1.633   2.185  0.00  0.00    +0.006 A 
ATOM     15  C   UNL     1       1.178   2.084   3.492  0.00  0.00    +0.020 A 
ATOM     16  C   UNL     1       1.182   3.442   3.754  0.00  0.00    +0.041 A 
ATOM     17  C   UNL     1       1.162   4.348   2.709  0.00  0.00    +0.020 A 
ATOM     18  C   UNL     1       1.138   3.896   1.403  0.00  0.00    +0.006 A 
ATOM     19 CL   UNL     1       1.212   4.010   5.394  0.00  0.00    -0.084 Cl
ENDBRANCH   9  13
BRANCH  11  20
ATOM     20  N   UNL     1      -1.212  -0.855  -0.753  0.00  0.00    -0.328 N 
ATOM     21  H   UNL     1      -2.059  -0.393  -0.851  0.00  0.00    +0.145 HD
ATOM     22  H   UNL     1      -1.180  -1.823  -0.795  0.00  0.00    +0.145 HD
ENDBRANCH  11  20
BRANCH  10  23
ATOM     23  C   UNL     1      -1.393   1.860  -0.655  0.00  0.00    +0.101 C 
ATOM     24  N   UNL     1      -2.399   2.374  -0.779  0.00  0.00    -0.191 NA
ENDBRANCH  10  23
BRANCH   8  25
ATOM     25  C   UNL     1       5.961   1.806  -1.186  0.00  0.00    +0.199 C 
BRANCH  25  26
ATOM     26  C   UNL     1       6.120   2.156  -2.643  0.00  0.00    +0.125 A 
ATOM     27  C   UNL     1       5.723   3.303  -3.224  0.00  0.00    +0.046 A 
ATOM     28  C   UNL     1       6.065   3.209  -4.593  0.00  0.00    +0.041 A 
ATOM     29  C   UNL     1       6.651   2.011  -4.766  0.00  0.00    +0.195 A 
ATOM     30  O   UNL     1       6.686   1.380  -3.581  0.00  0.00    -0.466 OA
ENDBRANCH  25  26
ENDBRANCH   8  25
TORSDOF 5
