REMARK  Name = ZINC54558298
REMARK  7 active torsions:
REMARK  status: ('A' for Active; 'I' for Inactive)
REMARK    1  A    between atoms: C_1  and  C_2
REMARK    2  A    between atoms: C_2  and  C_3
REMARK    3  A    between atoms: N_9  and  C_10
REMARK    4  A    between atoms: C_13  and  C_20
REMARK    5  A    between atoms: C_17  and  O_19
REMARK    6  A    between atoms: C_20  and  C_21
REMARK    7  A    between atoms: C_20  and  C_22
REMARK                            x       y       z     vdW  Elec       q    Type
REMARK                         _______ _______ _______ _____ _____    ______ ____
ROOT
ATOM      1  C   UNL     1      -0.149   1.565  -2.375  0.00  0.00    +0.086 C 
ATOM      2  C   UNL     1      -1.208   1.989  -3.395  0.00  0.00    +0.025 C 
ATOM      3  C   UNL     1      -1.408   3.504  -3.321  0.00  0.00    -0.007 C 
ATOM      4  C   UNL     1      -0.087   4.210  -3.633  0.00  0.00    +0.006 C 
ATOM      5  C   UNL     1       0.971   3.785  -2.613  0.00  0.00    +0.033 C 
ATOM      6  C   UNL     1       1.172   2.270  -2.687  0.00  0.00    +0.132 C 
ENDROOT
BRANCH   1  12
ATOM      7  C   UNL     1       1.181  -0.311  -1.616  0.00  0.00    +0.082 C 
ATOM      8  C   UNL     1       1.310  -1.836  -1.671  0.00  0.00    +0.178 C 
ATOM      9  O   UNL     1       1.450  -2.249  -3.033  0.00  0.00    -0.377 OA
ATOM     10  C   UNL     1       0.359  -1.856  -3.869  0.00  0.00    +0.175 C 
ATOM     11  C   UNL     1       0.220  -0.332  -3.836  0.00  0.00    +0.113 C 
ATOM     12  N   UNL     1       0.043   0.110  -2.445  0.00  0.00    -0.290 NA
BRANCH   7  14
ATOM     13  C   UNL     1       2.178  -0.223   0.674  0.00  0.00    +0.005 C 
ATOM     14  C   UNL     1       0.950   0.130  -0.169  0.00  0.00    +0.018 C 
ENDBRANCH   7  14
ENDBRANCH   1  12
BRANCH   3  15
ATOM     15  C   UNL     1      -2.466   3.929  -4.341  0.00  0.00    -0.014 C 
ATOM     16  C   UNL     1      -3.788   3.224  -4.029  0.00  0.00    +0.007 C 
ATOM     17  C   UNL     1      -2.667   5.444  -4.268  0.00  0.00    +0.007 C 
ENDBRANCH   3  15
BRANCH   6  18
ATOM     18  O   UNL     1       1.605   1.910  -4.000  0.00  0.00    -0.390 OA
ATOM     19  H   UNL     1       2.439   2.322  -4.266  0.00  0.00    +0.210 HD
ENDBRANCH   6  18
TORSDOF 4
