REMARK  Name = ZINC41717862
REMARK  10 active torsions:
REMARK  status: ('A' for Active; 'I' for Inactive)
REMARK    1  A    between atoms: C_1  and  C_2
REMARK    2  A    between atoms: C_2  and  C_3
REMARK    3  A    between atoms: C_2  and  N_4
REMARK    4  A    between atoms: N_4  and  C_5
REMARK    5  A    between atoms: N_4  and  C_6
REMARK    6  A    between atoms: C_6  and  C_7
REMARK    7  A    between atoms: C_7  and  C_8
REMARK    8  A    between atoms: C_8  and  N_9
REMARK    9  A    between atoms: C_10  and  C_12
REMARK   10  A    between atoms: N_14  and  C_15
REMARK                            x       y       z     vdW  Elec       q    Type
REMARK                         _______ _______ _______ _____ _____    ______ ____
ROOT
ATOM      1  C   UNL     1      -5.753  -6.395   0.415  0.00  0.00    +0.303 C 
ATOM      2  O   UNL     1      -6.681  -5.619   0.517  0.00  0.00    -0.265 OA
ATOM      3  N   UNL     1      -5.981  -7.723   0.429  0.00  0.00    -0.278 N 
ATOM      4  H   UNL     1      -5.249  -8.342   0.281  0.00  0.00    +0.155 HD
ENDROOT
BRANCH   3   5
ATOM      5  C   UNL     1      -7.272  -8.209   0.659  0.00  0.00    +0.038 A 
ATOM      6  C   UNL     1      -7.455  -9.384   1.377  0.00  0.00    +0.027 A 
ATOM      7  C   UNL     1      -8.730  -9.866   1.604  0.00  0.00    +0.051 A 
ATOM      8  C   UNL     1      -9.830  -9.178   1.116  0.00  0.00    +0.173 A 
ATOM      9  C   UNL     1      -9.650  -7.999   0.396  0.00  0.00    +0.174 A 
ATOM     10  C   UNL     1      -8.372  -7.514   0.174  0.00  0.00    +0.073 A 
ATOM     11  O   UNL     1     -10.875  -7.520   0.031  0.00  0.00    -0.395 OA
ATOM     12  C   UNL     1     -11.781  -8.628   0.180  0.00  0.00    +0.589 C 
ATOM     13  O   UNL     1     -11.168  -9.437   1.201  0.00  0.00    -0.395 OA
ATOM     14  F   UNL     1     -13.040  -8.181   0.597  0.00  0.00    -0.125 F 
ATOM     15  F   UNL     1     -11.885  -9.343  -1.018  0.00  0.00    -0.125 F 
ENDBRANCH   3   5
BRANCH   1  17
ATOM     16  N   UNL     1      -4.132  -4.549   0.259  0.00  0.00    -0.308 N 
ATOM     17  C   UNL     1      -4.360  -5.878   0.273  0.00  0.00    +0.299 C 
ATOM     18  O   UNL     1      -3.432  -6.653   0.171  0.00  0.00    -0.265 OA
ATOM     19  H   UNL     1      -4.874  -3.929   0.341  0.00  0.00    +0.149 HD
BRANCH  16  20
ATOM     20  C   UNL     1      -2.765  -4.042   0.119  0.00  0.00    +0.103 C 
BRANCH  20  21
ATOM     21  C   UNL     1      -2.785  -2.512   0.132  0.00  0.00    +0.000 C 
BRANCH  21  22
ATOM     22  C   UNL     1      -1.357  -1.982  -0.013  0.00  0.00    -0.077 C 
BRANCH  22  23
ATOM     23  N   UNL     1      -1.376  -0.513  -0.001  0.00  0.00    +0.379 N 
ATOM     24  C   UNL     1      -2.095  -0.023  -1.184  0.00  0.00    -0.096 C 
ATOM     25  H   UNL     1      -1.843  -0.190   0.834  0.00  0.00    -0.082 HD
BRANCH  23  27
ATOM     26  C   UNL     1      -0.018   1.525  -0.007  0.00  0.00    -0.014 C 
ATOM     27  C   UNL     1       0.002  -0.005  -0.020  0.00  0.00    -0.075 C 
ATOM     28  C   UNL     1       0.751  -0.516   1.213  0.00  0.00    -0.014 C 
ENDBRANCH  23  27
ENDBRANCH  22  23
ENDBRANCH  21  22
ENDBRANCH  20  21
ENDBRANCH  16  20
ENDBRANCH   1  17
TORSDOF 7
