REMARK  Name = ZINC02857263
REMARK  8 active torsions:
REMARK  status: ('A' for Active; 'I' for Inactive)
REMARK    1  A    between atoms: C_1  and  C_2
REMARK    2  A    between atoms: C_5  and  N_9
REMARK    3  A    between atoms: C_7  and  C_8
REMARK    4  A    between atoms: N_12  and  N_13
REMARK    5  A    between atoms: C_14  and  C_16
REMARK    6  A    between atoms: C_16  and  C_17
REMARK    7  A    between atoms: C_16  and  C_18
REMARK    8  A    between atoms: C_16  and  O_19
REMARK                            x       y       z     vdW  Elec       q    Type
REMARK                         _______ _______ _______ _____ _____    ______ ____
ROOT
ATOM      1  N   UNL     1      -1.191   1.870   0.018  0.00  0.00    -0.268 N 
ATOM      2  C   UNL     1      -0.027   1.208   0.174  0.00  0.00    +0.320 C 
ATOM      3  O   UNL     1      -0.028   0.002   0.322  0.00  0.00    -0.251 OA
ATOM      4  N   UNL     1       1.139   1.884   0.161  0.00  0.00    -0.218 N 
ATOM      5  H   UNL     1      -1.196   2.839  -0.023  0.00  0.00    +0.156 HD
ATOM      6  H   UNL     1       1.977   1.408   0.269  0.00  0.00    +0.174 HD
ENDROOT
BRANCH   1  11
ATOM      7  C   UNL     1      -6.058  -1.015  -0.403  0.00  0.00    +0.044 C 
ATOM      8  C   UNL     1      -4.765  -0.249  -0.291  0.00  0.00    -0.047 A 
ATOM      9  C   UNL     1      -3.597  -0.788  -0.799  0.00  0.00    +0.005 A 
ATOM     10  C   UNL     1      -2.412  -0.086  -0.704  0.00  0.00    +0.023 A 
ATOM     11  C   UNL     1      -2.391   1.158  -0.086  0.00  0.00    +0.035 A 
ATOM     12  C   UNL     1      -3.565   1.696   0.423  0.00  0.00    +0.027 A 
ATOM     13  C   UNL     1      -4.749   0.992   0.319  0.00  0.00    -0.046 A 
ATOM     14  C   UNL     1      -6.023   1.575   0.872  0.00  0.00    +0.044 C 
ENDBRANCH   1  11
BRANCH   4  15
ATOM     15  N   UNL     1       1.141   3.275  -0.010  0.00  0.00    -0.231 N 
ATOM     16  C   UNL     1       2.307   3.950  -0.023  0.00  0.00    +0.260 C 
ATOM     17  O   UNL     1       3.355   3.355   0.112  0.00  0.00    -0.271 OA
ATOM     18  H   UNL     1       0.303   3.751  -0.118  0.00  0.00    +0.173 HD
BRANCH  16  19
ATOM     19  C   UNL     1       2.309   5.446  -0.207  0.00  0.00    +0.137 C 
ATOM     20  C   UNL     1       2.099   6.126   1.148  0.00  0.00    +0.051 C 
ATOM     21  C   UNL     1       3.651   5.886  -0.796  0.00  0.00    +0.051 C 
BRANCH  19  22
ATOM     22  O   UNL     1       1.254   5.819  -1.095  0.00  0.00    -0.380 OA
ATOM     23  H   UNL     1       1.323   5.423  -1.975  0.00  0.00    +0.211 HD
ENDBRANCH  19  22
ENDBRANCH  16  19
ENDBRANCH   4  15
TORSDOF 4
