REMARK  Name = ZINC04997602
REMARK  9 active torsions:
REMARK  status: ('A' for Active; 'I' for Inactive)
REMARK    1  A    between atoms: C_1  and  C_2
REMARK    2  A    between atoms: C_9  and  N_30
REMARK    3  A    between atoms: C_10  and  C_28
REMARK    4  A    between atoms: C_11  and  C_13
REMARK    5  A    between atoms: C_16  and  O_26
REMARK    6  A    between atoms: C_17  and  C_19
REMARK    7  A    between atoms: C_19  and  S_20
REMARK    8  A    between atoms: S_20  and  C_21
REMARK    9  A    between atoms: O_26  and  C_27
REMARK                            x       y       z     vdW  Elec       q    Type
REMARK                         _______ _______ _______ _____ _____    ______ ____
ROOT
ATOM      1  C   UNL     1       2.471   0.197   1.868  0.00  0.00    +0.068 C 
ATOM      2  C   UNL     1       2.481   1.247   0.786  0.00  0.00    +0.068 A 
ATOM      3  C   UNL     1       1.399   1.613  -0.003  0.00  0.00    +0.049 A 
ATOM      4  C   UNL     1       1.813   2.595  -0.860  0.00  0.00    +0.222 A 
ATOM      5  N   UNL     1       3.111   2.831  -0.610  0.00  0.00    -0.246 N 
ATOM      6  H   UNL     1       3.689   3.498  -1.079  0.00  0.00    +0.192 HD
ATOM      7  N   UNL     1       3.512   1.974   0.427  0.00  0.00    -0.176 NA
ATOM      8  O   UNL     1       0.988   3.168  -1.770  0.00  0.00    -0.423 OA
ATOM      9  C   UNL     1      -0.194   2.564  -2.009  0.00  0.00    +0.200 C 
ATOM     10  C   UNL     1      -0.714   1.592  -1.228  0.00  0.00    +0.098 C 
ATOM     11  C   UNL     1      -0.013   1.086   0.008  0.00  0.00    +0.101 C 
ENDROOT
BRANCH  11  12
ATOM     12  C   UNL     1      -0.730   1.578   1.239  0.00  0.00    -0.034 A 
ATOM     13  C   UNL     1      -0.872   2.936   1.459  0.00  0.00    +0.008 A 
ATOM     14  C   UNL     1      -1.529   3.389   2.585  0.00  0.00    +0.046 A 
ATOM     15  C   UNL     1      -2.048   2.481   3.497  0.00  0.00    +0.124 A 
ATOM     16  C   UNL     1      -1.904   1.119   3.275  0.00  0.00    +0.005 A 
ATOM     17  C   UNL     1      -1.251   0.671   2.143  0.00  0.00    +0.012 A 
BRANCH  15  18
ATOM     18  O   UNL     1      -2.696   2.924   4.606  0.00  0.00    -0.495 OA
ATOM     19  C   UNL     1      -2.806   4.340   4.771  0.00  0.00    +0.277 C 
ENDBRANCH  15  18
BRANCH  16  20
ATOM     20  C   UNL     1      -2.466   0.130   4.263  0.00  0.00    +0.115 C 
BRANCH  20  21
ATOM     21  S   UNL     1      -4.168  -0.282   3.802  0.00  0.00    -0.095 S 
BRANCH  21  22
ATOM     22  C   UNL     1      -4.566  -1.420   5.087  0.00  0.00    +0.126 C 
ATOM     23  N   UNL     1      -3.793  -1.807   6.054  0.00  0.00    -0.270 NA
ATOM     24  C   UNL     1      -4.234  -2.748   7.058  0.00  0.00    +0.154 C 
ATOM     25  C   UNL     1      -5.686  -3.225   6.833  0.00  0.00    +0.099 C 
ATOM     26  S   UNL     1      -6.109  -2.279   5.319  0.00  0.00    -0.098 S 
ENDBRANCH  21  22
ENDBRANCH  20  21
ENDBRANCH  16  20
ENDBRANCH  11  12
BRANCH   9  27
ATOM     27  N   UNL     1      -0.911   2.960  -3.111  0.00  0.00    -0.328 N 
ATOM     28  H   UNL     1      -0.564   3.656  -3.691  0.00  0.00    +0.145 HD
ATOM     29  H   UNL     1      -1.765   2.545  -3.309  0.00  0.00    +0.145 HD
ENDBRANCH   9  27
BRANCH  10  30
ATOM     30  C   UNL     1      -1.978   1.021  -1.586  0.00  0.00    +0.101 C 
ATOM     31  N   UNL     1      -2.980   0.569  -1.870  0.00  0.00    -0.191 NA
ENDBRANCH  10  30
TORSDOF 7
