REMARK  Name = ZINC41068084
REMARK  7 active torsions:
REMARK  status: ('A' for Active; 'I' for Inactive)
REMARK    1  A    between atoms: C_1  and  C_2
REMARK    2  A    between atoms: C_2  and  C_4
REMARK    3  A    between atoms: C_2  and  N_11
REMARK    4  A    between atoms: N_11  and  C_12
REMARK    5  A    between atoms: N_11  and  S_13
REMARK    6  A    between atoms: S_13  and  C_16
REMARK    7  A    between atoms: C_18  and  N_21
REMARK                            x       y       z     vdW  Elec       q    Type
REMARK                         _______ _______ _______ _____ _____    ______ ____
ROOT
ATOM      1  N   UNL     1       0.523  -0.449  -1.296  0.00  0.00    -0.172 NA
ATOM      2  C   UNL     1       1.922  -0.199  -1.649  0.00  0.00    +0.132 C 
ENDROOT
BRANCH   1   3
ATOM      3  S   UNL     1      -0.473  -1.235  -2.360  0.00  0.00    +0.067 S 
ATOM      4  O   UNL     1       0.367  -2.007  -3.208  0.00  0.00    -0.152 OA
ATOM      5  O   UNL     1      -1.516  -1.814  -1.589  0.00  0.00    -0.152 OA
BRANCH   3   6
ATOM      6  C   UNL     1      -1.222  -0.006  -3.377  0.00  0.00    +0.144 A 
ATOM      7  C   UNL     1      -0.790   0.503  -4.557  0.00  0.00    +0.059 A 
ATOM      8  C   UNL     1      -1.552   1.475  -5.187  0.00  0.00    +0.034 A 
ATOM      9  C   UNL     1      -2.707   1.885  -4.601  0.00  0.00    +0.069 A 
ATOM     10  S   UNL     1      -2.748   0.884  -3.123  0.00  0.00    -0.075 S 
BRANCH   8  11
ATOM     11  N   UNL     1      -1.135   2.027  -6.413  0.00  0.00    -0.358 N 
ATOM     12  H   UNL     1      -0.309   1.728  -6.824  0.00  0.00    +0.142 HD
ATOM     13  H   UNL     1      -1.675   2.707  -6.847  0.00  0.00    +0.142 HD
ENDBRANCH   8  11
ENDBRANCH   3   6
ENDBRANCH   1   3
BRANCH   1  15
ATOM     14  C   UNL     1       0.002   1.526   0.050  0.00  0.00    +0.031 C 
ATOM     15  C   UNL     1       0.004  -0.003   0.000  0.00  0.00    +0.108 C 
BRANCH  15  16
ATOM     16  C   UNL     1       0.879  -0.541   1.103  0.00  0.00    -0.011 A 
ATOM     17  C   UNL     1       1.788   0.289   1.731  0.00  0.00    +0.006 A 
ATOM     18  C   UNL     1       2.591  -0.204   2.743  0.00  0.00    +0.000 A 
ATOM     19  C   UNL     1       2.484  -1.528   3.128  0.00  0.00    +0.001 A 
ATOM     20  C   UNL     1       1.575  -2.359   2.501  0.00  0.00    +0.020 A 
ATOM     21  C   UNL     1       0.768  -1.864   1.492  0.00  0.00    +0.046 A 
ATOM     22 CL   UNL     1      -0.379  -2.906   0.708  0.00  0.00    -0.083 Cl
ENDBRANCH  15  16
ENDBRANCH   1  15
TORSDOF 5
