REMARK  Name = ZINC03665904
REMARK  8 active torsions:
REMARK  status: ('A' for Active; 'I' for Inactive)
REMARK    1  A    between atoms: C_1  and  C_2
REMARK    2  A    between atoms: C_2  and  C_3
REMARK    3  A    between atoms: C_3  and  N_4
REMARK    4  A    between atoms: C_5  and  C_7
REMARK    5  A    between atoms: C_7  and  O_26
REMARK    6  A    between atoms: N_17  and  C_18
REMARK    7  A    between atoms: C_21  and  C_24
REMARK    8  A    between atoms: C_24  and  C_25
REMARK                            x       y       z     vdW  Elec       q    Type
REMARK                         _______ _______ _______ _____ _____    ______ ____
ROOT
ATOM      1  C   UNL     1       0.240   0.940  -4.471  0.00  0.00    +0.247 C 
ATOM      2  C   UNL     1       0.127  -0.566  -4.538  0.00  0.00    +0.033 A 
ATOM      3  C   UNL     1      -1.026  -1.214  -4.161  0.00  0.00    +0.010 A 
ATOM      4  C   UNL     1      -1.094  -2.595  -4.237  0.00  0.00    +0.001 A 
ATOM      5  C   UNL     1      -0.006  -3.317  -4.690  0.00  0.00    +0.002 A 
ATOM      6  C   UNL     1       1.153  -2.669  -5.069  0.00  0.00    +0.024 A 
ATOM      7  C   UNL     1       1.226  -1.284  -4.996  0.00  0.00    +0.043 A 
ATOM      8  N   UNL     1       2.388  -0.611  -5.374  0.00  0.00    -0.269 N 
ATOM      9  C   UNL     1       2.507   0.722  -5.322  0.00  0.00    +0.314 C 
ATOM     10  O   UNL     1       3.558   1.224  -5.672  0.00  0.00    -0.252 OA
ATOM     11  N   UNL     1       1.519   1.532  -4.899  0.00  0.00    -0.214 N 
ATOM     12  H   UNL     1       3.143  -1.131  -5.690  0.00  0.00    +0.156 HD
ENDROOT
BRANCH  11  13
ATOM     13  C   UNL     1       1.704   2.918  -4.866  0.00  0.00    +0.041 A 
ATOM     14  C   UNL     1       1.284   3.701  -5.933  0.00  0.00    +0.024 A 
ATOM     15  C   UNL     1       1.464   5.070  -5.896  0.00  0.00    +0.005 A 
ATOM     16  C   UNL     1       2.071   5.660  -4.803  0.00  0.00    -0.048 A 
ATOM     17  C   UNL     1       2.496   4.882  -3.741  0.00  0.00    +0.005 A 
ATOM     18  C   UNL     1       2.314   3.514  -3.770  0.00  0.00    +0.024 A 
BRANCH  16  19
ATOM     19  C   UNL     1       2.271   7.153  -4.768  0.00  0.00    +0.032 C 
ATOM     20  C   UNL     1       3.626   7.501  -5.387  0.00  0.00    +0.009 C 
ENDBRANCH  16  19
ENDBRANCH  11  13
BRANCH   1  22
ATOM     21  N   UNL     1       0.841   0.991  -2.071  0.00  0.00    -0.311 N 
ATOM     22  C   UNL     1      -0.013   1.361  -3.046  0.00  0.00    +0.269 C 
ATOM     23  O   UNL     1      -0.986   2.034  -2.777  0.00  0.00    -0.270 OA
ATOM     24  H   UNL     1       1.619   0.453  -2.287  0.00  0.00    +0.149 HD
BRANCH  21  25
ATOM     25  C   UNL     1       0.594   1.400  -0.687  0.00  0.00    +0.104 C 
BRANCH  25  27
ATOM     26  C   UNL     1       1.446   1.280   1.659  0.00  0.00    +0.005 C 
ATOM     27  C   UNL     1       1.704   0.852   0.213  0.00  0.00    +0.015 C 
ENDBRANCH  25  27
ENDBRANCH  21  25
ENDBRANCH   1  22
BRANCH   1  28
ATOM     28  O   UNL     1      -0.796   1.497  -5.282  0.00  0.00    -0.360 OA
ATOM     29  H   UNL     1      -1.685   1.208  -5.037  0.00  0.00    +0.213 HD
ENDBRANCH   1  28
TORSDOF 6
