REMARK  Name = ZINC50636430
REMARK  8 active torsions:
REMARK  status: ('A' for Active; 'I' for Inactive)
REMARK    1  A    between atoms: C_1  and  C_2
REMARK    2  A    between atoms: C_2  and  C_3
REMARK    3  A    between atoms: C_3  and  C_4
REMARK    4  A    between atoms: C_3  and  C_5
REMARK    5  A    between atoms: C_3  and  N_6
REMARK    6  A    between atoms: N_6  and  S_7
REMARK    7  A    between atoms: S_7  and  C_10
REMARK    8  A    between atoms: C_11  and  N_18
REMARK                            x       y       z     vdW  Elec       q    Type
REMARK                         _______ _______ _______ _____ _____    ______ ____
ROOT
ATOM      1  C   UNL     1       3.167  -2.666   2.127  0.00  0.00    +0.220 A 
ATOM      2  C   UNL     1       3.993  -3.326   1.290  0.00  0.00    +0.163 A 
ATOM      3  N   UNL     1       5.245  -2.882   1.495  0.00  0.00    -0.205 NA
ATOM      4  C   UNL     1       5.225  -1.973   2.428  0.00  0.00    +0.181 A 
ATOM      5  N   UNL     1       3.946  -1.777   2.874  0.00  0.00    -0.276 N 
ATOM      6  C   UNL     1       3.766  -0.834   3.862  0.00  0.00    +0.102 A 
ATOM      7  C   UNL     1       4.800  -0.151   4.350  0.00  0.00    +0.067 A 
ATOM      8  S   UNL     1       6.162  -0.827   3.413  0.00  0.00    -0.058 S 
ENDROOT
BRANCH   1   9
ATOM      9  S   UNL     1       1.423  -2.881   2.253  0.00  0.00    +0.078 S 
ATOM     10  O   UNL     1       1.019  -2.234   3.452  0.00  0.00    -0.151 OA
ATOM     11  O   UNL     1       1.164  -4.256   2.005  0.00  0.00    -0.151 OA
BRANCH   9  12
ATOM     12  N   UNL     1       0.735  -2.038   1.005  0.00  0.00    -0.183 NA
ATOM     13  H   UNL     1       0.243  -2.509   0.314  0.00  0.00    +0.149 HD
BRANCH  12  14
ATOM     14  C   UNL     1       0.868  -0.580   0.945  0.00  0.00    +0.034 C 
ATOM     15  C   UNL     1       2.333  -0.212   0.701  0.00  0.00    +0.029 C 
ATOM     16  C   UNL     1       0.403   0.030   2.269  0.00  0.00    +0.029 C 
BRANCH  14  18
ATOM     17  C   UNL     1       0.147   1.486  -0.261  0.00  0.00    +0.006 C 
ATOM     18  C   UNL     1       0.008  -0.036  -0.198  0.00  0.00    +0.020 C 
ENDBRANCH  14  18
ENDBRANCH  12  14
ENDBRANCH   9  12
ENDBRANCH   1   9
BRANCH   2  19
ATOM     19  N   UNL     1       3.611  -4.308   0.362  0.00  0.00    -0.340 N 
ATOM     20  H   UNL     1       2.679  -4.565   0.285  0.00  0.00    +0.144 HD
ATOM     21  H   UNL     1       4.279  -4.729  -0.201  0.00  0.00    +0.144 HD
ENDBRANCH   2  19
TORSDOF 5
