REMARK  Name = ZINC39888533
REMARK  5 active torsions:
REMARK  status: ('A' for Active; 'I' for Inactive)
REMARK    1  A    between atoms: C_1  and  C_2
REMARK    2  A    between atoms: C_2  and  C_29
REMARK    3  A    between atoms: C_6  and  C_19
REMARK    4  A    between atoms: N_10  and  C_17
REMARK    5  A    between atoms: N_13  and  C_16
REMARK                            x       y       z     vdW  Elec       q    Type
REMARK                         _______ _______ _______ _____ _____    ______ ____
ROOT
ATOM      1  C   UNL     1      -0.019   1.526   0.010  0.00  0.00    +0.011 C 
ATOM      2  C   UNL     1       0.002  -0.004   0.002  0.00  0.00    -0.023 C 
ATOM      3  C   UNL     1       0.740  -0.501  -1.243  0.00  0.00    +0.058 C 
ATOM      4  C   UNL     1       2.167  -0.013  -1.215  0.00  0.00    +0.017 C 
ATOM      5  C   UNL     1       2.814   0.180  -0.046  0.00  0.00    +0.024 C 
ATOM      6  C   UNL     1       4.244   0.656  -0.021  0.00  0.00    +0.094 C 
ATOM      7  C   UNL     1       4.636   1.268  -1.334  0.00  0.00    +0.067 A 
ATOM      8  C   UNL     1       3.909   1.032  -2.461  0.00  0.00    +0.116 A 
ATOM      9  N   UNL     1       4.296   1.600  -3.650  0.00  0.00    -0.284 N 
ATOM     10  C   UNL     1       5.386   2.388  -3.704  0.00  0.00    +0.333 A 
ATOM     11  O   UNL     1       5.717   2.883  -4.764  0.00  0.00    -0.246 OA
ATOM     12  N   UNL     1       6.115   2.636  -2.600  0.00  0.00    -0.264 N 
ATOM     13  C   UNL     1       5.770   2.098  -1.415  0.00  0.00    +0.262 A 
ATOM     14  O   UNL     1       6.434   2.327  -0.419  0.00  0.00    -0.267 OA
ATOM     15  C   UNL     1       7.295   3.500  -2.689  0.00  0.00    +0.157 C 
ATOM     16  C   UNL     1       3.520   1.347  -4.867  0.00  0.00    +0.155 C 
ATOM     17  N   UNL     1       2.794   0.233  -2.407  0.00  0.00    -0.303 N 
ATOM     18  C   UNL     1       2.173  -0.055   1.183  0.00  0.00    +0.162 C 
ATOM     19  O   UNL     1       2.786   0.119   2.218  0.00  0.00    -0.292 OA
ATOM     20  C   UNL     1       0.743  -0.516   1.242  0.00  0.00    +0.086 C 
ATOM     21  C   UNL     1      -1.432  -0.538   0.003  0.00  0.00    +0.011 C 
ATOM     22  H   UNL     1       2.446  -0.161  -3.223  0.00  0.00    +0.153 HD
ENDROOT
BRANCH   6  23
ATOM     23  C   UNL     1       5.149  -0.514   0.267  0.00  0.00    -0.017 A 
ATOM     24  C   UNL     1       5.173  -1.597  -0.591  0.00  0.00    +0.006 A 
ATOM     25  C   UNL     1       6.003  -2.671  -0.326  0.00  0.00    +0.000 A 
ATOM     26  C   UNL     1       6.810  -2.661   0.796  0.00  0.00    +0.001 A 
ATOM     27  C   UNL     1       6.787  -1.578   1.655  0.00  0.00    +0.020 A 
ATOM     28  C   UNL     1       5.960  -0.501   1.388  0.00  0.00    +0.045 A 
ATOM     29 CL   UNL     1       5.936   0.862   2.462  0.00  0.00    -0.083 Cl
ENDBRANCH   6  23
TORSDOF 1
