REMARK  Name = ZINC15840433
REMARK  6 active torsions:
REMARK  status: ('A' for Active; 'I' for Inactive)
REMARK    1  A    between atoms: C_1  and  C_2
REMARK    2  A    between atoms: C_5  and  N_8
REMARK    3  A    between atoms: C_11  and  S_15
REMARK    4  A    between atoms: S_15  and  C_16
REMARK    5  A    between atoms: C_16  and  C_18
REMARK    6  A    between atoms: C_16  and  N_28
REMARK                            x       y       z     vdW  Elec       q    Type
REMARK                         _______ _______ _______ _____ _____    ______ ____
ROOT
ATOM      1  N   UNL     1      -4.496   2.799  -0.910  0.00  0.00    -0.265 N 
ATOM      2  C   UNL     1      -4.466   3.083   0.427  0.00  0.00    +0.034 A 
ATOM      3  C   UNL     1      -3.389   2.714   1.155  0.00  0.00    +0.004 A 
ATOM      4  C   UNL     1      -2.324   2.045   0.510  0.00  0.00    +0.109 A 
ATOM      5  N   UNL     1      -2.396   1.797  -0.792  0.00  0.00    -0.186 NA
ATOM      6  C   UNL     1      -3.466   2.161  -1.495  0.00  0.00    +0.354 A 
ATOM      7  O   UNL     1      -3.511   1.918  -2.689  0.00  0.00    -0.244 OA
ATOM      8  C   UNL     1      -3.566   3.124   2.599  0.00  0.00    +0.040 C 
ATOM      9  C   UNL     1      -4.700   4.172   2.582  0.00  0.00    +0.011 C 
ATOM     10  C   UNL     1      -5.480   3.779   1.308  0.00  0.00    +0.054 C 
ENDROOT
BRANCH   1  15
ATOM     11  C   UNL     1      -8.994   4.322  -4.016  0.00  0.00    +0.044 C 
ATOM     12  C   UNL     1      -7.799   3.917  -3.191  0.00  0.00    -0.050 A 
ATOM     13  C   UNL     1      -6.582   4.544  -3.386  0.00  0.00    +0.005 A 
ATOM     14  C   UNL     1      -5.485   4.176  -2.632  0.00  0.00    +0.026 A 
ATOM     15  C   UNL     1      -5.606   3.175  -1.677  0.00  0.00    +0.051 A 
ATOM     16  C   UNL     1      -6.828   2.544  -1.487  0.00  0.00    +0.026 A 
ATOM     17  C   UNL     1      -7.922   2.920  -2.241  0.00  0.00    +0.005 A 
ENDBRANCH   1  15
BRANCH   4  18
ATOM     18  S   UNL     1      -0.905   1.550   1.429  0.00  0.00    -0.082 S 
BRANCH  18  19
ATOM     19  C   UNL     1       0.133   0.917   0.087  0.00  0.00    +0.147 C 
BRANCH  19  20
ATOM     20  C   UNL     1       1.372   0.285   0.666  0.00  0.00    -0.013 A 
ATOM     21  C   UNL     1       2.458   1.051   0.960  0.00  0.00    +0.006 A 
ATOM     22  C   UNL     1       3.611   0.485   1.500  0.00  0.00    +0.001 A 
ATOM     23  C   UNL     1       3.688  -0.853   1.741  0.00  0.00    +0.008 A 
ATOM     24  C   UNL     1       2.589  -1.677   1.445  0.00  0.00    -0.018 A 
ATOM     25  C   UNL     1       1.415  -1.100   0.900  0.00  0.00    -0.012 A 
ATOM     26  C   UNL     1       0.315  -1.925   0.605  0.00  0.00    +0.009 A 
ATOM     27  C   UNL     1       0.392  -3.262   0.846  0.00  0.00    +0.001 A 
ATOM     28  C   UNL     1       1.547  -3.829   1.382  0.00  0.00    +0.001 A 
ATOM     29  C   UNL     1       2.631  -3.062   1.680  0.00  0.00    +0.008 A 
ENDBRANCH  19  20
BRANCH  19  30
ATOM     30  N   UNL     1       0.516   2.024  -0.799  0.00  0.00    -0.315 NA
ATOM     31  H   UNL     1       1.147   1.640  -1.614  0.00  0.00    +0.120 HD
ATOM     32  H   UNL     1      -0.388   2.486  -1.222  0.00  0.00    +0.120 HD
ENDBRANCH  19  30
ENDBRANCH  18  19
ENDBRANCH   4  18
TORSDOF 5
