REMARK  Name = ZINC67177154
REMARK  4 active torsions:
REMARK  status: ('A' for Active; 'I' for Inactive)
REMARK    1  A    between atoms: C_4  and  O_24
REMARK    2  A    between atoms: C_5  and  C_7
REMARK    3  A    between atoms: C_7  and  C_8
REMARK    4  A    between atoms: C_14  and  C_17
REMARK                            x       y       z     vdW  Elec       q    Type
REMARK                         _______ _______ _______ _____ _____    ______ ____
ROOT
ATOM      1  C   UNL     1       1.372  -2.695   1.389  0.00  0.00    +0.220 C 
ATOM      2  O   UNL     1       1.451  -1.911   2.311  0.00  0.00    -0.275 OA
ATOM      3  N   UNL     1       1.413  -4.021   1.627  0.00  0.00    -0.296 N 
ATOM      4  C   UNL     1       1.325  -4.991   0.524  0.00  0.00    +0.136 C 
ATOM      5  C   UNL     1       0.244  -6.022   0.872  0.00  0.00    +0.179 C 
ATOM      6  O   UNL     1       0.507  -6.559   2.170  0.00  0.00    -0.369 OA
ATOM      7  C   UNL     1       0.457  -5.594   3.224  0.00  0.00    +0.168 C 
ATOM      8  C   UNL     1       1.554  -4.542   2.996  0.00  0.00    +0.144 C 
ENDROOT
BRANCH   7   9
ATOM      9  C   UNL     1       0.685  -6.280   4.546  0.00  0.00    +0.018 A 
ATOM     10  C   UNL     1       1.391  -7.467   4.596  0.00  0.00    +0.009 A 
ATOM     11  C   UNL     1       1.601  -8.097   5.809  0.00  0.00    +0.001 A 
ATOM     12  C   UNL     1       1.104  -7.540   6.973  0.00  0.00    +0.003 A 
ATOM     13  C   UNL     1       0.399  -6.353   6.925  0.00  0.00    +0.039 A 
ATOM     14  C   UNL     1       0.193  -5.719   5.712  0.00  0.00    +0.129 A 
ATOM     15  F   UNL     1      -0.493  -4.556   5.665  0.00  0.00    -0.205 F 
ENDBRANCH   7   9
BRANCH   1  16
ATOM     16  C   UNL     1       1.227  -2.187  -0.022  0.00  0.00    +0.134 C 
BRANCH  16  21
ATOM     17  C   UNL     1      -0.017   1.378   0.010  0.00  0.00    +0.001 A 
ATOM     18  C   UNL     1       1.170   2.088   0.002  0.00  0.00    +0.004 A 
ATOM     19  C   UNL     1       2.377   1.417  -0.013  0.00  0.00    +0.046 A 
ATOM     20  C   UNL     1       2.399   0.030  -0.021  0.00  0.00    +0.120 A 
ATOM     21  C   UNL     1       1.207  -0.680  -0.013  0.00  0.00    +0.003 A 
ATOM     22  C   UNL     1       0.002  -0.004   0.002  0.00  0.00    +0.008 A 
BRANCH  20  23
ATOM     23  O   UNL     1       3.586  -0.632  -0.037  0.00  0.00    -0.506 OA
ATOM     24  H   UNL     1       3.938  -0.829   0.842  0.00  0.00    +0.292 HD
ENDBRANCH  20  23
ENDBRANCH  16  21
ENDBRANCH   1  16
TORSDOF 4
