REMARK  Name = ZINC48482362
REMARK  3 active torsions:
REMARK  status: ('A' for Active; 'I' for Inactive)
REMARK    1  A    between atoms: C_3  and  C_9
REMARK    2  A    between atoms: N_11  and  N_12
REMARK    3  A    between atoms: C_13  and  C_15
REMARK                            x       y       z     vdW  Elec       q    Type
REMARK                         _______ _______ _______ _____ _____    ______ ____
ROOT
ATOM      1  C   UNL     1       3.654   2.164  -0.022  0.00  0.00    +0.262 C 
ATOM      2  O   UNL     1       4.715   1.569  -0.035  0.00  0.00    -0.269 OA
ATOM      3  N   UNL     1       3.638   3.512  -0.015  0.00  0.00    -0.230 N 
ATOM      4  H   UNL     1       2.792   3.986  -0.004  0.00  0.00    +0.173 HD
ENDROOT
BRANCH   1   7
ATOM      5  C   UNL     1      -0.017   1.383   0.010  0.00  0.00    +0.039 A 
ATOM      6  C   UNL     1       1.165   2.091   0.002  0.00  0.00    +0.017 A 
ATOM      7  C   UNL     1       2.385   1.410  -0.013  0.00  0.00    +0.057 A 
ATOM      8  C   UNL     1       2.399   0.012  -0.021  0.00  0.00    +0.056 A 
ATOM      9  C   UNL     1       1.209  -0.686  -0.013  0.00  0.00    +0.059 A 
ATOM     10  C   UNL     1       0.002  -0.004   0.002  0.00  0.00    +0.125 A 
ATOM     11  F   UNL     1      -1.160  -0.693   0.009  0.00  0.00    -0.205 F 
ATOM     12 CL   UNL     1       3.909  -0.843  -0.040  0.00  0.00    -0.083 Cl
ENDBRANCH   1   7
BRANCH   3  13
ATOM     13  N   UNL     1       4.843   4.227  -0.023  0.00  0.00    -0.230 N 
ATOM     14  C   UNL     1       4.826   5.575  -0.016  0.00  0.00    +0.267 C 
ATOM     15  O   UNL     1       3.765   6.170  -0.003  0.00  0.00    -0.268 OA
ATOM     16  H   UNL     1       5.688   3.752  -0.034  0.00  0.00    +0.173 HD
BRANCH  14  17
ATOM     17  C   UNL     1       6.086   6.322  -0.024  0.00  0.00    +0.077 A 
ATOM     18  C   UNL     1       6.287   7.694  -0.014  0.00  0.00    +0.022 A 
ATOM     19  C   UNL     1       7.598   8.105  -0.026  0.00  0.00    +0.028 A 
ATOM     20  C   UNL     1       8.582   7.170  -0.047  0.00  0.00    +0.079 A 
ATOM     21  S   UNL     1       7.758   5.706  -0.043  0.00  0.00    -0.072 S 
ATOM     22 CL   UNL     1      10.299   7.427  -0.067  0.00  0.00    -0.076 Cl
ENDBRANCH  14  17
ENDBRANCH   3  13
TORSDOF 3
