REMARK  Name = ZINC39685886
REMARK  16 active torsions:
REMARK  status: ('A' for Active; 'I' for Inactive)
REMARK    1  A    between atoms: C_1  and  C_2
REMARK    2  A    between atoms: C_2  and  C_3
REMARK    3  A    between atoms: C_2  and  C_4
REMARK    4  A    between atoms: C_4  and  C_6
REMARK    5  A    between atoms: C_4  and  N_13
REMARK    6  A    between atoms: N_8  and  C_9
REMARK    7  A    between atoms: C_9  and  C_10
REMARK    8  A    between atoms: C_9  and  C_11
REMARK    9  A    between atoms: C_9  and  C_12
REMARK   10  A    between atoms: C_14  and  C_16
REMARK   11  A    between atoms: C_27  and  C_29
REMARK   12  A    between atoms: C_29  and  C_31
REMARK   13  A    between atoms: C_29  and  O_34
REMARK   14  A    between atoms: C_31  and  C_32
REMARK   15  A    between atoms: C_31  and  C_33
REMARK   16  A    between atoms: O_34  and  C_35
REMARK                            x       y       z     vdW  Elec       q    Type
REMARK                         _______ _______ _______ _____ _____    ______ ____
ROOT
ATOM      1  C   UNL     1      -0.539  -3.757   1.497  0.00  0.00    +0.100 C 
ATOM      2  C   UNL     1      -1.738  -4.184   0.620  0.00  0.00    +0.121 C 
ATOM      3  N   UNL     1      -2.374  -5.293   1.369  0.00  0.00    -0.297 N 
ATOM      4  C   UNL     1      -2.296  -4.872   2.788  0.00  0.00    +0.115 C 
ATOM      5  C   UNL     1      -0.910  -4.210   2.919  0.00  0.00    -0.004 C 
ATOM      6  C   UNL     1       0.111  -5.220   3.435  0.00  0.00    -0.010 C 
ATOM      7  C   UNL     1      -0.247  -5.613   4.871  0.00  0.00    -0.082 C 
ATOM      8  N   UNL     1      -0.253  -4.416   5.720  0.00  0.00    +0.379 N 
ATOM      9  C   UNL     1      -1.301  -3.490   5.274  0.00  0.00    -0.082 C 
ATOM     10  C   UNL     1      -0.987  -3.007   3.855  0.00  0.00    -0.010 C 
ATOM     11  C   UNL     1      -2.903  -6.428   0.871  0.00  0.00    +0.257 C 
ATOM     12  O   UNL     1      -3.496  -7.192   1.603  0.00  0.00    -0.272 OA
ATOM     13  H   UNL     1      -0.429  -4.685   6.677  0.00  0.00    -0.086 HD
ATOM     14  H   UNL     1       0.645  -3.959   5.662  0.00  0.00    -0.086 HD
ENDROOT
BRANCH   1  16
ATOM     15  N   UNL     1      -1.426  -1.451   1.629  0.00  0.00    -0.303 N 
ATOM     16  C   UNL     1      -0.363  -2.261   1.453  0.00  0.00    +0.219 C 
ATOM     17  O   UNL     1       0.736  -1.786   1.258  0.00  0.00    -0.275 OA
ATOM     18  H   UNL     1      -2.291  -1.828   1.855  0.00  0.00    +0.149 HD
BRANCH  15  19
ATOM     19  C   UNL     1      -1.275  -0.002   1.480  0.00  0.00    +0.161 C 
BRANCH  19  20
ATOM     20  C   UNL     1      -2.341   0.699   2.283  0.00  0.00    +0.234 C 
ATOM     21  O   UNL     1      -3.191   0.053   2.856  0.00  0.00    -0.274 OA
ATOM     22  N   UNL     1      -2.348   2.045   2.363  0.00  0.00    -0.309 N 
ATOM     23  H   UNL     1      -1.628   2.558   1.965  0.00  0.00    +0.149 HD
BRANCH  22  24
ATOM     24  C   UNL     1      -3.443   2.731   3.053  0.00  0.00    +0.026 C 
ATOM     25  C   UNL     1      -3.494   2.273   4.511  0.00  0.00    +0.031 C 
ATOM     26  C   UNL     1      -3.211   4.242   3.000  0.00  0.00    +0.031 C 
ATOM     27  C   UNL     1      -4.768   2.395   2.365  0.00  0.00    +0.031 C 
ENDBRANCH  22  24
ENDBRANCH  19  20
BRANCH  19  29
ATOM     28  C   UNL     1      -0.297  -0.284  -0.802  0.00  0.00    +0.009 C 
ATOM     29  C   UNL     1      -1.417   0.377   0.004  0.00  0.00    +0.012 C 
ATOM     30  C   UNL     1      -2.773  -0.104  -0.517  0.00  0.00    +0.009 C 
ENDBRANCH  19  29
ENDBRANCH  15  19
ENDBRANCH   1  16
BRANCH  11  31
ATOM     31  C   UNL     1      -2.758  -6.749  -0.594  0.00  0.00    +0.261 C 
BRANCH  31  32
ATOM     32  C   UNL     1      -1.455  -7.517  -0.822  0.00  0.00    +0.033 C 
ATOM     33  C   UNL     1      -1.266  -7.768  -2.319  0.00  0.00    +0.011 C 
ATOM     34  C   UNL     1      -0.279  -6.695  -0.290  0.00  0.00    +0.011 C 
ENDBRANCH  31  32
BRANCH  31  35
ATOM     35  O   UNL     1      -3.863  -7.549  -1.018  0.00  0.00    -0.479 OA
BRANCH  35  36
ATOM     36  C   UNL     1      -4.317  -7.353  -2.284  0.00  0.00    +0.122 A 
ATOM     37  C   UNL     1      -5.329  -8.156  -2.792  0.00  0.00    +0.045 A 
ATOM     38  C   UNL     1      -5.789  -7.954  -4.079  0.00  0.00    +0.004 A 
ATOM     39  C   UNL     1      -5.242  -6.953  -4.861  0.00  0.00    +0.000 A 
ATOM     40  C   UNL     1      -4.234  -6.152  -4.357  0.00  0.00    +0.004 A 
ATOM     41  C   UNL     1      -3.774  -6.346  -3.069  0.00  0.00    +0.045 A 
ENDBRANCH  35  36
ENDBRANCH  31  35
ENDBRANCH  11  31
TORSDOF 9
