REMARK  Name = ZINC28974378
REMARK  9 active torsions:
REMARK  status: ('A' for Active; 'I' for Inactive)
REMARK    1  A    between atoms: C_1  and  N_2
REMARK    2  A    between atoms: N_2  and  C_3
REMARK    3  A    between atoms: C_6  and  C_11
REMARK    4  A    between atoms: C_11  and  N_12
REMARK    5  A    between atoms: N_12  and  C_13
REMARK    6  A    between atoms: N_12  and  C_24
REMARK    7  A    between atoms: C_13  and  C_14
REMARK    8  A    between atoms: N_20  and  C_21
REMARK    9  A    between atoms: N_20  and  C_22
REMARK                            x       y       z     vdW  Elec       q    Type
REMARK                         _______ _______ _______ _____ _____    ______ ____
ROOT
ATOM      1  N   UNL     1       0.007   1.424  -0.038  0.00  0.00    +0.391 N 
ATOM      2  H   UNL     1      -0.434   1.856   0.872  0.00  0.00    -0.080 HD
ENDROOT
BRANCH   1   3
ATOM      3  C   UNL     1      -0.718   1.970  -1.194  0.00  0.00    -0.067 C 
ATOM      4  C   UNL     1      -0.022   1.544  -2.503  0.00  0.00    -0.015 C 
ATOM      5  C   UNL     1      -0.163   2.780  -3.427  0.00  0.00    -0.002 C 
ATOM      6  C   UNL     1       0.030   3.963  -2.447  0.00  0.00    -0.002 C 
ATOM      7  C   UNL     1      -0.685   3.508  -1.158  0.00  0.00    -0.015 C 
ENDBRANCH   1   3
BRANCH   1   8
ATOM      8  C   UNL     1      -0.144  -0.035   0.036  0.00  0.00    -0.000 C 
BRANCH   8  14
ATOM      9  C   UNL     1      -5.101  -1.246   3.413  0.00  0.00    +0.132 C 
ATOM     10  N   UNL     1      -3.702  -0.913   3.132  0.00  0.00    -0.306 N 
ATOM     11  C   UNL     1      -2.762  -0.707   4.237  0.00  0.00    +0.132 C 
ATOM     12  C   UNL     1      -3.270  -0.793   1.827  0.00  0.00    +0.222 A 
ATOM     13  N   UNL     1      -1.998  -0.497   1.571  0.00  0.00    -0.201 NA
ATOM     14  C   UNL     1      -1.584  -0.377   0.322  0.00  0.00    +0.120 A 
ATOM     15  N   UNL     1      -2.428  -0.562  -0.678  0.00  0.00    -0.202 NA
ATOM     16  C   UNL     1      -3.700  -0.864  -0.430  0.00  0.00    +0.217 A 
ATOM     17  N   UNL     1      -4.122  -0.980   0.825  0.00  0.00    -0.181 NA
ATOM     18  N   UNL     1      -4.581  -1.057  -1.475  0.00  0.00    -0.327 N 
ATOM     19  H   UNL     1      -5.633  -1.306  -1.269  0.00  0.00    +0.145 HD
ATOM     20  H   UNL     1      -4.232  -0.960  -2.513  0.00  0.00    +0.145 HD
ENDBRANCH   8  14
ENDBRANCH   1   8
BRANCH   1  21
ATOM     21  C   UNL     1       1.425   1.805  -0.078  0.00  0.00    -0.000 C 
BRANCH  21  22
ATOM     22  C   UNL     1       2.020   1.671   1.300  0.00  0.00    +0.120 A 
ATOM     23  N   UNL     1       2.659   0.565   1.638  0.00  0.00    -0.202 NA
ATOM     24  C   UNL     1       3.186   0.443   2.854  0.00  0.00    +0.217 A 
ATOM     25  N   UNL     1       3.069   1.436   3.729  0.00  0.00    -0.181 NA
ATOM     26  C   UNL     1       2.426   2.547   3.385  0.00  0.00    +0.222 A 
ATOM     27  N   UNL     1       1.907   2.663   2.165  0.00  0.00    -0.201 NA
ATOM     28  N   UNL     1       2.303   3.582   4.290  0.00  0.00    -0.306 N 
ATOM     29  C   UNL     1       2.780   3.413   5.665  0.00  0.00    +0.132 C 
ATOM     30  C   UNL     1       1.693   4.848   3.877  0.00  0.00    +0.132 C 
ATOM     31  N   UNL     1       3.852  -0.713   3.206  0.00  0.00    -0.327 N 
ATOM     32  H   UNL     1       4.287  -0.812   4.211  0.00  0.00    +0.145 HD
ATOM     33  H   UNL     1       3.948  -1.535   2.481  0.00  0.00    +0.145 HD
ENDBRANCH  21  22
ENDBRANCH   1  21
TORSDOF 5
