REMARK  Name = ZINC09239772
REMARK  12 active torsions:
REMARK  status: ('A' for Active; 'I' for Inactive)
REMARK    1  A    between atoms: C_1  and  C_2
REMARK    2  A    between atoms: C_2  and  C_3
REMARK    3  A    between atoms: C_2  and  C_4
REMARK    4  A    between atoms: C_2  and  C_5
REMARK    5  A    between atoms: C_13  and  C_25
REMARK    6  A    between atoms: C_15  and  C_21
REMARK    7  A    between atoms: C_15  and  C_23
REMARK    8  A    between atoms: C_16  and  N_20
REMARK    9  A    between atoms: C_17  and  C_18
REMARK   10  A    between atoms: C_28  and  O_31
REMARK   11  A    between atoms: O_31  and  C_32
REMARK   12  A    between atoms: C_32  and  C_33
REMARK                            x       y       z     vdW  Elec       q    Type
REMARK                         _______ _______ _______ _____ _____    ______ ____
ROOT
ATOM      1  C   UNL     1       0.766  -0.988  -1.503  0.00  0.00    -0.001 C 
ATOM      2  C   UNL     1       0.913  -2.498  -1.736  0.00  0.00    +0.031 C 
ATOM      3  C   UNL     1       1.642  -2.691  -3.041  0.00  0.00    -0.021 C 
ATOM      4  C   UNL     1       2.556  -1.828  -3.439  0.00  0.00    -0.029 C 
ATOM      5  C   UNL     1       2.987  -0.637  -2.636  0.00  0.00    +0.031 C 
ATOM      6  C   UNL     1       2.163  -0.379  -1.398  0.00  0.00    +0.013 C 
ATOM      7  C   UNL     1       3.030   0.578  -3.564  0.00  0.00    +0.066 C 
ATOM      8  C   UNL     1       4.088   0.339  -4.643  0.00  0.00    +0.188 C 
ATOM      9  C   UNL     1       3.912  -0.994  -5.307  0.00  0.00    +0.054 C 
ATOM     10  C   UNL     1       3.213  -2.020  -4.759  0.00  0.00    +0.074 C 
ENDROOT
BRANCH   7  11
ATOM     11  C   UNL     1       1.682   0.768  -4.209  0.00  0.00    -0.041 A 
ATOM     12  C   UNL     1       0.766   1.639  -3.649  0.00  0.00    +0.007 A 
ATOM     13  C   UNL     1      -0.472   1.815  -4.238  0.00  0.00    +0.046 A 
ATOM     14  C   UNL     1      -0.794   1.117  -5.393  0.00  0.00    +0.121 A 
ATOM     15  C   UNL     1       0.127   0.244  -5.953  0.00  0.00    +0.046 A 
ATOM     16  C   UNL     1       1.364   0.075  -5.363  0.00  0.00    +0.007 A 
BRANCH  14  17
ATOM     17  O   UNL     1      -2.011   1.288  -5.974  0.00  0.00    -0.483 OA
BRANCH  17  18
ATOM     18  C   UNL     1      -2.275   0.537  -7.160  0.00  0.00    +0.324 C 
BRANCH  18  19
ATOM     19  C   UNL     1      -3.661   0.854  -7.658  0.00  0.00    +0.248 C 
ATOM     20  O   UNL     1      -4.355   1.646  -7.056  0.00  0.00    -0.272 OA
ATOM     21  N   UNL     1      -4.130   0.258  -8.773  0.00  0.00    -0.327 N 
ATOM     22  H   UNL     1      -3.575  -0.374  -9.254  0.00  0.00    +0.145 HD
ATOM     23  H   UNL     1      -5.022   0.463  -9.093  0.00  0.00    +0.145 HD
ENDBRANCH  18  19
ENDBRANCH  17  18
ENDBRANCH  14  17
ENDBRANCH   7  11
BRANCH   1  25
ATOM     24  C   UNL     1      -0.135   0.767   0.030  0.00  0.00    +0.011 C 
ATOM     25  C   UNL     1      -0.003  -0.739  -0.204  0.00  0.00    -0.035 C 
ATOM     26  C   UNL     1       0.752  -1.373   0.966  0.00  0.00    +0.011 C 
ATOM     27  C   UNL     1      -1.396  -1.363  -0.309  0.00  0.00    +0.011 C 
ENDBRANCH   1  25
BRANCH   9  28
ATOM     28  N   UNL     1       4.487  -1.186  -6.532  0.00  0.00    -0.358 N 
ATOM     29  H   UNL     1       4.992  -0.470  -6.948  0.00  0.00    +0.142 HD
ATOM     30  H   UNL     1       4.390  -2.038  -6.985  0.00  0.00    +0.142 HD
ENDBRANCH   9  28
BRANCH  10  31
ATOM     31  C   UNL     1       3.111  -3.273  -5.444  0.00  0.00    +0.101 C 
ATOM     32  N   UNL     1       3.030  -4.268  -5.987  0.00  0.00    -0.191 NA
ENDBRANCH  10  31
BRANCH   8  33
ATOM     33  C   UNL     1       3.984   1.398  -5.659  0.00  0.00    +0.091 C 
ATOM     34  N   UNL     1       3.905   2.216  -6.444  0.00  0.00    -0.194 NA
ENDBRANCH   8  33
BRANCH   8  35
ATOM     35  C   UNL     1       5.423   0.395  -4.027  0.00  0.00    +0.091 C 
ATOM     36  N   UNL     1       6.454   0.439  -3.551  0.00  0.00    -0.194 NA
ENDBRANCH   8  35
TORSDOF 9
