REMARK  Name = ZINC40708012
REMARK  3 active torsions:
REMARK  status: ('A' for Active; 'I' for Inactive)
REMARK    1  A    between atoms: C_5  and  C_7
REMARK    2  A    between atoms: C_12  and  N_22
REMARK    3  A    between atoms: C_13  and  C_15
REMARK                            x       y       z     vdW  Elec       q    Type
REMARK                         _______ _______ _______ _____ _____    ______ ____
ROOT
ATOM      1  C   UNL     1       1.382  -2.167   0.525  0.00  0.00    +0.082 A 
ATOM      2  C   UNL     1       0.271  -2.877   0.802  0.00  0.00    +0.077 A 
ATOM      3  S   UNL     1       0.806  -4.550   0.480  0.00  0.00    -0.057 S 
ATOM      4  C   UNL     1       2.478  -4.181  -0.002  0.00  0.00    +0.180 A 
ATOM      5  N   UNL     1       2.535  -2.812   0.103  0.00  0.00    -0.273 N 
ATOM      6  C   UNL     1       3.830  -2.472  -0.272  0.00  0.00    +0.129 A 
ATOM      7  C   UNL     1       4.483  -3.624  -0.585  0.00  0.00    +0.112 A 
ATOM      8  N   UNL     1       3.619  -4.657  -0.399  0.00  0.00    -0.219 NA
ENDROOT
BRANCH   7   9
ATOM      9  C   UNL     1       5.889  -3.734  -1.037  0.00  0.00    +0.004 A 
ATOM     10  C   UNL     1       6.445  -2.741  -1.843  0.00  0.00    +0.011 A 
ATOM     11  C   UNL     1       7.755  -2.848  -2.261  0.00  0.00    +0.020 A 
ATOM     12  C   UNL     1       8.518  -3.940  -1.883  0.00  0.00    +0.041 A 
ATOM     13  C   UNL     1       7.971  -4.930  -1.084  0.00  0.00    +0.020 A 
ATOM     14  C   UNL     1       6.664  -4.830  -0.654  0.00  0.00    +0.011 A 
ATOM     15 CL   UNL     1      10.166  -4.069  -2.414  0.00  0.00    -0.084 Cl
ENDBRANCH   7   9
BRANCH   1  20
ATOM     16  C   UNL     1       0.447   1.435   0.088  0.00  0.00    +0.004 A 
ATOM     17  C   UNL     1       1.374   2.012   0.946  0.00  0.00    +0.020 A 
ATOM     18  C   UNL     1       2.263   1.204   1.628  0.00  0.00    +0.111 A 
ATOM     19  N   UNL     1       2.241  -0.105   1.476  0.00  0.00    -0.253 NA
ATOM     20  C   UNL     1       1.370  -0.698   0.666  0.00  0.00    +0.088 A 
ATOM     21  C   UNL     1       0.444   0.060  -0.055  0.00  0.00    +0.030 A 
ENDBRANCH   1  20
BRANCH   6  22
ATOM     22  N   UNL     1       4.363  -1.182  -0.319  0.00  0.00    -0.342 N 
ATOM     23  H   UNL     1       3.786  -0.414  -0.187  0.00  0.00    +0.144 HD
ATOM     24  H   UNL     1       5.310  -1.054  -0.484  0.00  0.00    +0.144 HD
ENDBRANCH   6  22
TORSDOF 3
