REMARK  Name = ZINC18143224
REMARK  3 active torsions:
REMARK  status: ('A' for Active; 'I' for Inactive)
REMARK    1  A    between atoms: C_5  and  N_7
REMARK    2  A    between atoms: N_7  and  C_8
REMARK    3  A    between atoms: C_8  and  N_9
REMARK                            x       y       z     vdW  Elec       q    Type
REMARK                         _______ _______ _______ _____ _____    ______ ____
ROOT
ATOM      1  N   UNL     1      -0.391  -3.177  -1.388  0.00  0.00    -0.225 N 
ATOM      2  C   UNL     1      -1.146  -2.382  -2.155  0.00  0.00    +0.227 C 
ATOM      3  O   UNL     1      -1.604  -1.312  -1.817  0.00  0.00    -0.275 OA
ATOM      4  C   UNL     1      -1.342  -3.026  -3.509  0.00  0.00    +0.095 C 
ATOM      5  C   UNL     1      -2.833  -3.472  -3.628  0.00  0.00    +0.025 C 
ATOM      6  C   UNL     1      -2.842  -4.705  -2.653  0.00  0.00    +0.016 C 
ATOM      7  C   UNL     1      -1.699  -5.449  -3.435  0.00  0.00    +0.025 C 
ATOM      8  C   UNL     1      -0.550  -4.362  -3.386  0.00  0.00    +0.095 C 
ATOM      9  C   UNL     1       0.003  -4.310  -1.980  0.00  0.00    +0.227 C 
ATOM     10  O   UNL     1       0.694  -5.164  -1.468  0.00  0.00    -0.275 OA
ATOM     11  C   UNL     1      -2.246  -5.341  -4.864  0.00  0.00    -0.027 C 
ATOM     12  C   UNL     1      -2.905  -4.183  -4.985  0.00  0.00    -0.027 C 
ENDROOT
BRANCH   1  13
ATOM     13  C   UNL     1      -0.020  -2.831  -0.014  0.00  0.00    +0.221 C 
BRANCH  13  14
ATOM     14  N   UNL     1       1.237  -2.078  -0.022  0.00  0.00    -0.327 N 
ATOM     15  H   UNL     1       2.085  -2.549  -0.034  0.00  0.00    +0.148 HD
BRANCH  14  20
ATOM     16  C   UNL     1      -0.017   1.377   0.010  0.00  0.00    +0.002 A 
ATOM     17  C   UNL     1       1.170   2.087   0.002  0.00  0.00    +0.002 A 
ATOM     18  C   UNL     1       2.380   1.417  -0.013  0.00  0.00    +0.022 A 
ATOM     19  C   UNL     1       2.406   0.035  -0.022  0.00  0.00    +0.062 A 
ATOM     20  C   UNL     1       1.215  -0.681  -0.014  0.00  0.00    +0.047 A 
ATOM     21  C   UNL     1       0.002  -0.004   0.002  0.00  0.00    +0.024 A 
ATOM     22 CL   UNL     1       3.925  -0.805  -0.042  0.00  0.00    -0.082 Cl
ENDBRANCH  14  20
ENDBRANCH  13  14
ENDBRANCH   1  13
TORSDOF 3
