REMARK  Name = ZINC27836023
REMARK  10 active torsions:
REMARK  status: ('A' for Active; 'I' for Inactive)
REMARK    1  A    between atoms: C_1  and  C_2
REMARK    2  A    between atoms: C_2  and  O_4
REMARK    3  A    between atoms: O_4  and  C_5
REMARK    4  A    between atoms: C_7  and  N_15
REMARK    5  A    between atoms: C_9  and  O_11
REMARK    6  A    between atoms: O_11  and  C_12
REMARK    7  A    between atoms: C_12  and  C_14
REMARK    8  A    between atoms: C_16  and  C_18
REMARK    9  A    between atoms: C_18  and  C_19
REMARK   10  A    between atoms: N_25  and  C_26
REMARK                            x       y       z     vdW  Elec       q    Type
REMARK                         _______ _______ _______ _____ _____    ______ ____
ROOT
ATOM      1  N   UNL     1      -5.286   5.604   4.335  0.00  0.00    -0.285 N 
ATOM      2  C   UNL     1      -4.393   5.618   3.326  0.00  0.00    +0.219 C 
ATOM      3  O   UNL     1      -4.707   6.069   2.244  0.00  0.00    -0.275 OA
ATOM      4  H   UNL     1      -5.027   5.128   5.293  0.00  0.00    +0.155 HD
ENDROOT
BRANCH   1   7
ATOM      5  C   UNL     1      -8.422   6.721   2.764  0.00  0.00    +0.137 A 
ATOM      6  C   UNL     1      -7.176   6.136   2.931  0.00  0.00    +0.070 A 
ATOM      7  C   UNL     1      -6.543   6.194   4.165  0.00  0.00    +0.040 A 
ATOM      8  C   UNL     1      -7.161   6.831   5.232  0.00  0.00    +0.070 A 
ATOM      9  C   UNL     1      -8.405   7.420   5.062  0.00  0.00    +0.137 A 
ATOM     10  C   UNL     1      -9.036   7.363   3.829  0.00  0.00    +0.092 A 
BRANCH   5  11
ATOM     11  O   UNL     1      -9.042   6.665   1.555  0.00  0.00    -0.426 OA
BRANCH  11  13
ATOM     12  C   UNL     1     -10.390   5.381  -0.067  0.00  0.00    +0.136 C 
ATOM     13  C   UNL     1      -9.590   5.490   1.205  0.00  0.00    +0.309 C 
ATOM     14  O   UNL     1      -9.441   4.520   1.910  0.00  0.00    -0.251 OA
ENDBRANCH  11  13
ENDBRANCH   5  11
BRANCH   9  15
ATOM     15  O   UNL     1      -9.007   8.049   6.105  0.00  0.00    -0.426 OA
BRANCH  15  16
ATOM     16  C   UNL     1      -8.530   9.257   6.447  0.00  0.00    +0.309 C 
ATOM     17  O   UNL     1      -7.668   9.777   5.779  0.00  0.00    -0.251 OA
ATOM     18  C   UNL     1      -9.071   9.965   7.662  0.00  0.00    +0.136 C 
ENDBRANCH  15  16
ENDBRANCH   9  15
ENDBRANCH   1   7
BRANCH   2  19
ATOM     19  C   UNL     1      -3.004   5.075   3.541  0.00  0.00    +0.120 C 
BRANCH  19  20
ATOM     20  C   UNL     1      -2.198   5.209   2.248  0.00  0.00    +0.149 C 
ATOM     21  C   UNL     1      -0.807   4.614   2.401  0.00  0.00    +0.232 C 
ATOM     22  O   UNL     1      -0.004   5.050   3.198  0.00  0.00    -0.274 OA
ATOM     23  N   UNL     1      -0.530   3.588   1.614  0.00  0.00    -0.264 N 
ATOM     24  C   UNL     1      -1.437   3.092   0.702  0.00  0.00    +0.161 C 
ATOM     25  N   UNL     1      -1.283   2.090  -0.131  0.00  0.00    -0.226 NA
ATOM     26  S   UNL     1      -2.875   4.128   0.926  0.00  0.00    -0.077 S 
ATOM     27  H   UNL     1       0.453   3.099   1.674  0.00  0.00    +0.157 HD
BRANCH  25  28
ATOM     28  C   UNL     1      -0.098   1.403  -0.164  0.00  0.00    +0.066 A 
ATOM     29  C   UNL     1       1.114   2.096  -0.166  0.00  0.00    +0.028 A 
ATOM     30  C   UNL     1       2.304   1.398  -0.204  0.00  0.00    +0.002 A 
ATOM     31  C   UNL     1       2.297   0.015  -0.242  0.00  0.00    +0.000 A 
ATOM     32  C   UNL     1       1.099  -0.678  -0.241  0.00  0.00    +0.002 A 
ATOM     33  C   UNL     1      -0.097   0.007  -0.203  0.00  0.00    +0.028 A 
ENDBRANCH  25  28
ENDBRANCH  19  20
ENDBRANCH   2  19
TORSDOF 8
