REMARK  Name = ZINC03468634
REMARK  5 active torsions:
REMARK  status: ('A' for Active; 'I' for Inactive)
REMARK    1  A    between atoms: C_4  and  N_19
REMARK    2  A    between atoms: C_5  and  C_7
REMARK    3  A    between atoms: N_9  and  N_10
REMARK    4  A    between atoms: C_11  and  C_12
REMARK    5  A    between atoms: C_15  and  O_18
REMARK                            x       y       z     vdW  Elec       q    Type
REMARK                         _______ _______ _______ _____ _____    ______ ____
ROOT
ATOM      1  C   UNL     1       1.415  -2.149  -0.124  0.00  0.00    +0.265 C 
ATOM      2  O   UNL     1       2.506  -2.680  -0.039  0.00  0.00    -0.268 OA
ATOM      3  N   UNL     1       0.308  -2.904  -0.274  0.00  0.00    -0.203 N 
ATOM      4  H   UNL     1      -0.562  -2.480  -0.342  0.00  0.00    +0.178 HD
ENDROOT
BRANCH   1   9
ATOM      5  C   UNL     1      -0.026   1.315  -0.234  0.00  0.00    +0.001 A 
ATOM      6  C   UNL     1       1.091   2.084   0.051  0.00  0.00    +0.002 A 
ATOM      7  C   UNL     1       2.313   1.484   0.280  0.00  0.00    +0.027 A 
ATOM      8  C   UNL     1       2.430   0.103   0.226  0.00  0.00    +0.058 A 
ATOM      9  C   UNL     1       1.302  -0.679  -0.063  0.00  0.00    +0.062 A 
ATOM     10  C   UNL     1       0.072  -0.058  -0.293  0.00  0.00    +0.015 A 
BRANCH   8  11
ATOM     11  N   UNL     1       3.666  -0.506   0.457  0.00  0.00    -0.322 N 
ATOM     12  C   UNL     1       3.927  -1.438   1.422  0.00  0.00    +0.091 A 
ATOM     13  C   UNL     1       5.226  -1.785   1.331  0.00  0.00    +0.019 A 
ATOM     14  C   UNL     1       5.790  -1.043   0.272  0.00  0.00    +0.019 A 
ATOM     15  C   UNL     1       4.813  -0.274  -0.248  0.00  0.00    +0.091 A 
ENDBRANCH   8  11
ENDBRANCH   1   9
BRANCH   3  16
ATOM     16  N   UNL     1       0.414  -4.299  -0.332  0.00  0.00    -0.187 NA
ATOM     17  C   UNL     1      -0.651  -5.026  -0.477  0.00  0.00    +0.138 C 
BRANCH  17  18
ATOM     18  C   UNL     1      -0.539  -6.495  -0.538  0.00  0.00    -0.005 A 
ATOM     19  C   UNL     1       0.713  -7.107  -0.435  0.00  0.00    +0.013 A 
ATOM     20  C   UNL     1       0.812  -8.480  -0.492  0.00  0.00    +0.046 A 
ATOM     21  C   UNL     1      -0.329  -9.255  -0.652  0.00  0.00    +0.117 A 
ATOM     22  C   UNL     1      -1.575  -8.651  -0.755  0.00  0.00    +0.046 A 
ATOM     23  C   UNL     1      -1.685  -7.279  -0.694  0.00  0.00    +0.013 A 
BRANCH  21  24
ATOM     24  O   UNL     1      -0.226 -10.609  -0.708  0.00  0.00    -0.507 OA
ATOM     25  H   UNL     1      -0.289 -11.044   0.153  0.00  0.00    +0.292 HD
ENDBRANCH  21  24
ENDBRANCH  17  18
ENDBRANCH   3  16
TORSDOF 5
