REMARK  Name = ZINC39127234
REMARK  5 active torsions:
REMARK  status: ('A' for Active; 'I' for Inactive)
REMARK    1  A    between atoms: C_1  and  N_2
REMARK    2  A    between atoms: N_2  and  C_3
REMARK    3  A    between atoms: N_2  and  C_4
REMARK    4  A    between atoms: C_7  and  C_9
REMARK    5  A    between atoms: N_16  and  C_19
REMARK                            x       y       z     vdW  Elec       q    Type
REMARK                         _______ _______ _______ _____ _____    ______ ____
ROOT
ATOM      1  C   UNL     1       1.203  -4.185  -2.818  0.00  0.00    +0.064 C 
ATOM      2  C   UNL     1       0.537  -5.052  -1.942  0.00  0.00    +0.105 C 
ATOM      3  C   UNL     1      -0.126  -6.214  -2.419  0.00  0.00    +0.274 C 
ATOM      4  O   UNL     1      -0.127  -6.509  -3.737  0.00  0.00    -0.268 OA
ATOM      5  N   UNL     1      -0.742  -7.004  -1.556  0.00  0.00    -0.153 NA
ATOM      6  C   UNL     1      -0.761  -6.747  -0.251  0.00  0.00    +0.171 C 
ATOM      7  S   UNL     1      -1.586  -7.831   0.786  0.00  0.00    -0.016 S 
ATOM      8  N   UNL     1      -0.161  -5.673   0.288  0.00  0.00    -0.216 N 
ATOM      9  C   UNL     1       0.505  -4.796  -0.495  0.00  0.00    +0.262 C 
ATOM     10  O   UNL     1       1.057  -3.822  -0.017  0.00  0.00    -0.269 OA
ENDROOT
BRANCH   8  11
ATOM     11  C   UNL     1      -0.222  -5.463   1.671  0.00  0.00    +0.045 A 
ATOM     12  C   UNL     1      -1.301  -4.787   2.226  0.00  0.00    +0.024 A 
ATOM     13  C   UNL     1      -1.358  -4.582   3.591  0.00  0.00    +0.003 A 
ATOM     14  C   UNL     1      -0.343  -5.049   4.405  0.00  0.00    +0.020 A 
ATOM     15  C   UNL     1       0.734  -5.722   3.856  0.00  0.00    +0.043 A 
ATOM     16  C   UNL     1       0.794  -5.936   2.491  0.00  0.00    +0.044 A 
ATOM     17 CL   UNL     1       2.007  -6.306   4.882  0.00  0.00    -0.083 Cl
ENDBRANCH   8  11
BRANCH   1  21
ATOM     18  C   UNL     1       3.427  -2.053  -1.065  0.00  0.00    +0.203 A 
ATOM     19  C   UNL     1       2.942  -1.156  -2.000  0.00  0.00    +0.079 A 
ATOM     20  C   UNL     1       2.032  -1.844  -2.793  0.00  0.00    +0.066 A 
ATOM     21  C   UNL     1       1.989  -3.153  -2.312  0.00  0.00    +0.132 A 
ATOM     22  O   UNL     1       2.849  -3.245  -1.270  0.00  0.00    -0.441 OA
ATOM     23 BR   UNL     1       3.426   0.664  -2.168  0.00  0.00    -0.045 Br
BRANCH  18  25
ATOM     24  C   UNL     1       3.914  -1.270   1.215  0.00  0.00    +0.132 C 
ATOM     25  N   UNL     1       4.353  -1.769  -0.090  0.00  0.00    -0.307 N 
ATOM     26  C   UNL     1       5.780  -1.967  -0.356  0.00  0.00    +0.132 C 
ENDBRANCH  18  25
ENDBRANCH   1  21
TORSDOF 3
