REMARK  Name = ZINC41006776
REMARK  10 active torsions:
REMARK  status: ('A' for Active; 'I' for Inactive)
REMARK    1  A    between atoms: C_1  and  C_2
REMARK    2  A    between atoms: C_2  and  O_39
REMARK    3  A    between atoms: C_6  and  C_30
REMARK    4  A    between atoms: C_8  and  C_21
REMARK    5  A    between atoms: C_10  and  C_12
REMARK    6  A    between atoms: N_14  and  C_15
REMARK    7  A    between atoms: C_24  and  N_27
REMARK    8  A    between atoms: N_27  and  C_28
REMARK    9  A    between atoms: N_27  and  C_29
REMARK   10  A    between atoms: N_32  and  C_33
REMARK                            x       y       z     vdW  Elec       q    Type
REMARK                         _______ _______ _______ _____ _____    ______ ____
ROOT
ATOM      1  C   UNL     1       1.068   1.936  -0.453  0.00  0.00    +0.042 C 
ATOM      2  C   UNL     1       0.587   0.484  -0.430  0.00  0.00    +0.082 C 
ATOM      3  C   UNL     1      -0.943   0.453  -0.348  0.00  0.00    +0.110 C 
ATOM      4  C   UNL     1      -1.387  -0.984  -0.192  0.00  0.00    +0.148 C 
ATOM      5  O   UNL     1      -2.229  -1.455  -0.920  0.00  0.00    -0.296 OA
ATOM      6  C   UNL     1      -0.751  -1.818   0.898  0.00  0.00    +0.149 C 
ATOM      7  C   UNL     1       0.772  -1.705   0.771  0.00  0.00    +0.053 C 
ATOM      8  C   UNL     1       1.175  -0.230   0.788  0.00  0.00    +0.115 C 
ENDROOT
BRANCH   7   9
ATOM      9  C   UNL     1       1.427  -2.419   1.925  0.00  0.00    -0.042 A 
ATOM     10  C   UNL     1       0.866  -2.350   3.187  0.00  0.00    +0.006 A 
ATOM     11  C   UNL     1       1.464  -3.003   4.247  0.00  0.00    +0.023 A 
ATOM     12  C   UNL     1       2.629  -3.731   4.044  0.00  0.00    +0.029 A 
ATOM     13  C   UNL     1       3.190  -3.799   2.775  0.00  0.00    +0.023 A 
ATOM     14  C   UNL     1       2.584  -3.147   1.718  0.00  0.00    +0.006 A 
BRANCH  12  15
ATOM     15  N   UNL     1       3.237  -4.393   5.113  0.00  0.00    -0.336 N 
ATOM     16  C   UNL     1       2.644  -4.320   6.451  0.00  0.00    +0.129 C 
ATOM     17  C   UNL     1       4.466  -5.160   4.897  0.00  0.00    +0.129 C 
ENDBRANCH  12  15
ENDBRANCH   7   9
BRANCH   8  18
ATOM     18  C   UNL     1       0.656   0.417   2.047  0.00  0.00    +0.224 C 
ATOM     19  O   UNL     1      -0.539   0.514   2.229  0.00  0.00    -0.275 OA
ATOM     20  N   UNL     1       1.519   0.886   2.969  0.00  0.00    -0.285 N 
ATOM     21  H   UNL     1       2.469   0.716   2.876  0.00  0.00    +0.155 HD
BRANCH  20  22
ATOM     22  C   UNL     1       1.044   1.620   4.062  0.00  0.00    +0.033 A 
ATOM     23  C   UNL     1      -0.243   1.406   4.537  0.00  0.00    +0.023 A 
ATOM     24  C   UNL     1      -0.709   2.132   5.616  0.00  0.00    +0.002 A 
ATOM     25  C   UNL     1       0.105   3.070   6.223  0.00  0.00    +0.000 A 
ATOM     26  C   UNL     1       1.387   3.286   5.752  0.00  0.00    +0.002 A 
ATOM     27  C   UNL     1       1.861   2.559   4.677  0.00  0.00    +0.023 A 
ENDBRANCH  20  22
ENDBRANCH   8  18
BRANCH   6  28
ATOM     28  C   UNL     1      -1.170  -3.257   0.745  0.00  0.00    +0.228 C 
ATOM     29  O   UNL     1      -0.333  -4.117   0.568  0.00  0.00    -0.275 OA
ATOM     30  N   UNL     1      -2.475  -3.589   0.804  0.00  0.00    -0.285 N 
ATOM     31  H   UNL     1      -3.151  -2.894   0.832  0.00  0.00    +0.155 HD
BRANCH  30  32
ATOM     32  C   UNL     1      -2.854  -4.936   0.826  0.00  0.00    +0.033 A 
ATOM     33  C   UNL     1      -4.059  -5.329   0.259  0.00  0.00    +0.023 A 
ATOM     34  C   UNL     1      -4.431  -6.659   0.282  0.00  0.00    +0.002 A 
ATOM     35  C   UNL     1      -3.604  -7.598   0.870  0.00  0.00    +0.000 A 
ATOM     36  C   UNL     1      -2.404  -7.210   1.437  0.00  0.00    +0.002 A 
ATOM     37  C   UNL     1      -2.024  -5.883   1.411  0.00  0.00    +0.023 A 
ENDBRANCH  30  32
ENDBRANCH   6  28
BRANCH   2  38
ATOM     38  O   UNL     1       1.014  -0.179  -1.622  0.00  0.00    -0.388 OA
ATOM     39  H   UNL     1       0.677   0.221  -2.436  0.00  0.00    +0.210 HD
ENDBRANCH   2  38
TORSDOF 7
