REMARK  Name = ZINC20513568
REMARK  5 active torsions:
REMARK  status: ('A' for Active; 'I' for Inactive)
REMARK    1  A    between atoms: C_7  and  C_11
REMARK    2  A    between atoms: C_11  and  N_12
REMARK    3  A    between atoms: C_15  and  N_21
REMARK    4  A    between atoms: C_17  and  O_20
REMARK    5  A    between atoms: N_24  and  C_27
REMARK                            x       y       z     vdW  Elec       q    Type
REMARK                         _______ _______ _______ _____ _____    ______ ____
ROOT
ATOM      1  N   UNL     1      -3.418  -2.229   1.071  0.00  0.00    +0.384 N 
ATOM      2  C   UNL     1      -3.559  -0.784   1.288  0.00  0.00    -0.077 C 
ATOM      3  C   UNL     1      -2.173  -0.139   1.357  0.00  0.00    +0.003 C 
ATOM      4  C   UNL     1      -1.425  -0.407   0.048  0.00  0.00    +0.082 C 
ATOM      5  C   UNL     1      -1.334  -1.918  -0.179  0.00  0.00    +0.115 C 
ATOM      6  C   UNL     1      -2.745  -2.511  -0.204  0.00  0.00    -0.045 C 
ATOM      7  H   UNL     1      -2.788  -2.630   1.878  0.00  0.00    -0.081 HD
ENDROOT
BRANCH   4   8
ATOM      8  N   UNL     1      -0.072   0.160   0.131  0.00  0.00    -0.294 NA
ATOM      9  C   UNL     1      -0.120   1.625   0.238  0.00  0.00    +0.103 C 
ATOM     10  C   UNL     1       1.306   2.180   0.242  0.00  0.00    +0.120 C 
ATOM     11  N   UNL     1       2.053   1.597   1.365  0.00  0.00    -0.325 N 
ATOM     12  C   UNL     1       2.100   0.132   1.259  0.00  0.00    +0.120 C 
ATOM     13  C   UNL     1       0.674  -0.423   1.255  0.00  0.00    +0.103 C 
BRANCH  11  14
ATOM     14  C   UNL     1       3.341   2.136   1.444  0.00  0.00    +0.065 A 
ATOM     15  C   UNL     1       4.181   1.780   2.490  0.00  0.00    +0.026 A 
ATOM     16  C   UNL     1       5.455   2.310   2.563  0.00  0.00    +0.002 A 
ATOM     17  C   UNL     1       5.890   3.203   1.602  0.00  0.00    +0.003 A 
ATOM     18  C   UNL     1       5.055   3.566   0.561  0.00  0.00    +0.040 A 
ATOM     19  C   UNL     1       3.780   3.035   0.479  0.00  0.00    +0.144 A 
ATOM     20  F   UNL     1       2.964   3.389  -0.538  0.00  0.00    -0.204 F 
ENDBRANCH  11  14
ENDBRANCH   4   8
BRANCH   5  21
ATOM     21  O   UNL     1      -0.687  -2.175  -1.427  0.00  0.00    -0.392 OA
ATOM     22  H   UNL     1      -0.530  -3.211  -1.762  0.00  0.00    +0.210 HD
ENDBRANCH   5  21
BRANCH   1  23
ATOM     23  C   UNL     1      -4.723  -2.902   1.137  0.00  0.00    -0.042 C 
BRANCH  23  30
ATOM     24  C   UNL     1      -4.666  -4.659  -2.761  0.00  0.00    +0.001 A 
ATOM     25  C   UNL     1      -5.492  -4.178  -3.776  0.00  0.00    +0.002 A 
ATOM     26  C   UNL     1      -6.339  -3.136  -3.557  0.00  0.00    +0.028 A 
ATOM     27  C   UNL     1      -6.387  -2.530  -2.289  0.00  0.00    +0.071 A 
ATOM     28  C   UNL     1      -5.543  -3.017  -1.260  0.00  0.00    +0.002 A 
ATOM     29  C   UNL     1      -4.684  -4.098  -1.521  0.00  0.00    +0.010 A 
ATOM     30  C   UNL     1      -5.597  -2.414   0.010  0.00  0.00    -0.053 A 
ATOM     31  C   UNL     1      -6.460  -1.371   0.192  0.00  0.00    +0.022 A 
ATOM     32  C   UNL     1      -7.258  -0.937  -0.864  0.00  0.00    +0.111 A 
ATOM     33  N   UNL     1      -7.209  -1.505  -2.045  0.00  0.00    -0.255 NA
ENDBRANCH  23  30
ENDBRANCH   1  23
TORSDOF 5
