REMARK  Name = ZINC12475993
REMARK  8 active torsions:
REMARK  status: ('A' for Active; 'I' for Inactive)
REMARK    1  A    between atoms: C_1  and  C_2
REMARK    2  A    between atoms: C_7  and  C_8
REMARK    3  A    between atoms: C_8  and  N_9
REMARK    4  A    between atoms: C_15  and  C_17
REMARK    5  A    between atoms: C_17  and  C_18
REMARK    6  A    between atoms: N_20  and  C_21
REMARK    7  A    between atoms: C_21  and  C_22
REMARK    8  A    between atoms: C_22  and  N_23
REMARK                            x       y       z     vdW  Elec       q    Type
REMARK                         _______ _______ _______ _____ _____    ______ ____
ROOT
ATOM      1  N   UNL     1      -1.564   0.343   2.768  0.00  0.00    +0.391 N 
ATOM      2  C   UNL     1      -2.181   1.112   1.676  0.00  0.00    -0.058 C 
ATOM      3  C   UNL     1      -3.698   1.124   1.876  0.00  0.00    +0.085 C 
ATOM      4  N   UNL     1      -4.016   1.542   3.239  0.00  0.00    -0.318 N 
ATOM      5  C   UNL     1      -3.113   1.528   4.227  0.00  0.00    +0.200 C 
ATOM      6  O   UNL     1      -3.461   1.869   5.338  0.00  0.00    -0.278 OA
ATOM      7  C   UNL     1      -1.687   1.108   4.016  0.00  0.00    +0.028 C 
ATOM      8  H   UNL     1      -4.917   1.843   3.436  0.00  0.00    +0.149 HD
ATOM      9  H   UNL     1      -2.036  -0.543   2.868  0.00  0.00    -0.080 HD
ENDROOT
BRANCH   1  10
ATOM     10  C   UNL     1      -0.145   0.114   2.468  0.00  0.00    -0.042 C 
BRANCH  10  17
ATOM     11  C   UNL     1      -0.689  -2.712   2.713  0.00  0.00    +0.044 C 
ATOM     12  C   UNL     1      -0.284  -2.136   1.381  0.00  0.00    -0.049 A 
ATOM     13  C   UNL     1      -0.179  -2.958   0.275  0.00  0.00    +0.003 A 
ATOM     14  C   UNL     1       0.192  -2.429  -0.947  0.00  0.00    +0.000 A 
ATOM     15  C   UNL     1       0.458  -1.077  -1.063  0.00  0.00    +0.000 A 
ATOM     16  C   UNL     1       0.352  -0.255   0.043  0.00  0.00    +0.002 A 
ATOM     17  C   UNL     1      -0.024  -0.783   1.264  0.00  0.00    -0.061 A 
ENDBRANCH  10  17
ENDBRANCH   1  10
BRANCH   7  18
ATOM     18  C   UNL     1      -1.235   0.238   5.190  0.00  0.00    +0.089 C 
BRANCH  18  19
ATOM     19  C   UNL     1      -2.184  -0.922   5.350  0.00  0.00    +0.212 C 
ATOM     20  O   UNL     1      -3.080  -1.088   4.549  0.00  0.00    -0.276 OA
ATOM     21  N   UNL     1      -2.037  -1.776   6.382  0.00  0.00    -0.314 N 
ATOM     22  H   UNL     1      -1.321  -1.644   7.023  0.00  0.00    +0.149 HD
BRANCH  21  23
ATOM     23  C   UNL     1      -2.959  -2.904   6.537  0.00  0.00    +0.123 C 
BRANCH  23  24
ATOM     24  C   UNL     1      -2.574  -3.710   7.779  0.00  0.00    +0.126 C 
BRANCH  24  25
ATOM     25  N   UNL     1      -3.497  -4.838   7.934  0.00  0.00    -0.300 N 
ATOM     26  C   UNL     1      -4.707  -4.628   8.719  0.00  0.00    +0.108 C 
ATOM     27  C   UNL     1      -5.747  -5.700   8.396  0.00  0.00    +0.019 C 
ATOM     28  C   UNL     1      -5.084  -7.078   8.508  0.00  0.00    +0.011 C 
ATOM     29  C   UNL     1      -4.053  -7.211   7.385  0.00  0.00    +0.096 C 
ATOM     30  C   UNL     1      -3.179  -5.991   7.344  0.00  0.00    +0.216 C 
ATOM     31  O   UNL     1      -2.127  -6.058   6.745  0.00  0.00    -0.276 OA
ENDBRANCH  24  25
ENDBRANCH  23  24
ENDBRANCH  21  23
ENDBRANCH  18  19
ENDBRANCH   7  18
TORSDOF 7
