REMARK  Name = ZINC51095647
REMARK  5 active torsions:
REMARK  status: ('A' for Active; 'I' for Inactive)
REMARK    1  A    between atoms: C_1  and  N_2
REMARK    2  A    between atoms: C_3  and  C_5
REMARK    3  A    between atoms: C_7  and  N_13
REMARK    4  A    between atoms: C_10  and  N_11
REMARK    5  A    between atoms: N_11  and  N_12
REMARK                            x       y       z     vdW  Elec       q    Type
REMARK                         _______ _______ _______ _____ _____    ______ ____
ROOT
ATOM      1  C   UNL     1       0.628  -2.150   0.993  0.00  0.00    +0.061 A 
ATOM      2  C   UNL     1      -0.060  -2.857   0.003  0.00  0.00    +0.047 A 
ATOM      3  C   UNL     1      -0.041  -4.234   0.004  0.00  0.00    +0.127 A 
ATOM      4  C   UNL     1       0.658  -4.924   0.982  0.00  0.00    +0.034 A 
ATOM      5  C   UNL     1       1.341  -4.241   1.966  0.00  0.00    +0.027 A 
ATOM      6  C   UNL     1       1.339  -2.851   1.978  0.00  0.00    +0.053 A 
ENDROOT
BRANCH   1   9
ATOM      7  C   UNL     1       0.016   1.461  -0.011  0.00  0.00    +0.128 C 
ATOM      8  N   UNL     1       0.032  -0.004  -0.016  0.00  0.00    -0.314 N 
ATOM      9  C   UNL     1       0.612  -0.675   0.998  0.00  0.00    +0.246 C 
ATOM     10  O   UNL     1       1.122  -0.065   1.918  0.00  0.00    -0.270 OA
ATOM     11  H   UNL     1      -0.375  -0.491  -0.750  0.00  0.00    +0.149 HD
ENDBRANCH   1   9
BRANCH   3  12
ATOM     12  N   UNL     1      -0.771  -4.981  -1.046  0.00  0.00    +0.056 N 
ATOM     13  O   UNL     1      -1.381  -4.381  -1.900  0.00  0.00    -0.126 OA
ATOM     14  O   UNL     1      -0.756  -6.189  -1.048  0.00  0.00    -0.126 OA
ENDBRANCH   3  12
BRANCH   6  15
ATOM     15  N   UNL     1       2.032  -2.161   2.964  0.00  0.00    -0.282 N 
ATOM     16  H   UNL     1       1.964  -1.195   3.018  0.00  0.00    +0.166 HD
BRANCH  15  17
ATOM     17  N   UNL     1       2.809  -2.842   3.857  0.00  0.00    -0.256 NA
ATOM     18  H   UNL     1       3.497  -3.407   3.382  0.00  0.00    +0.140 HD
ATOM     19  H   UNL     1       3.248  -2.211   4.511  0.00  0.00    +0.140 HD
ENDBRANCH  15  17
ENDBRANCH   6  15
TORSDOF 4
