REMARK  Name = ZINC44571041
REMARK  7 active torsions:
REMARK  status: ('A' for Active; 'I' for Inactive)
REMARK    1  A    between atoms: C_1  and  C_2
REMARK    2  A    between atoms: C_2  and  C_3
REMARK    3  A    between atoms: C_2  and  C_4
REMARK    4  A    between atoms: C_2  and  C_16
REMARK    5  A    between atoms: C_4  and  N_5
REMARK    6  A    between atoms: C_6  and  C_8
REMARK    7  A    between atoms: C_11  and  N_13
REMARK                            x       y       z     vdW  Elec       q    Type
REMARK                         _______ _______ _______ _____ _____    ______ ____
ROOT
ATOM      1  C   UNL     1      -1.433  -0.534   0.013  0.00  0.00    +0.115 C 
ENDROOT
BRANCH   1   2
ATOM      2  N   UNL     1      -2.119  -0.061   1.218  0.00  0.00    -0.314 N 
ATOM      3  C   UNL     1      -3.403  -0.406   1.442  0.00  0.00    +0.218 C 
ATOM      4  O   UNL     1      -3.990  -1.106   0.645  0.00  0.00    -0.275 OA
ATOM      5  H   UNL     1      -1.649   0.499   1.855  0.00  0.00    +0.149 HD
BRANCH   3   6
ATOM      6  C   UNL     1      -4.108   0.081   2.682  0.00  0.00    +0.106 C 
ATOM      7  C   UNL     1      -4.462  -0.959   3.747  0.00  0.00    +0.047 C 
ATOM      8  C   UNL     1      -5.564  -0.346   2.880  0.00  0.00    +0.182 C 
BRANCH   8   9
ATOM      9  N   UNL     1      -6.470   0.613   3.515  0.00  0.00    +0.026 N 
ATOM     10  O   UNL     1      -7.447   1.007   2.922  0.00  0.00    -0.131 OA
ATOM     11  O   UNL     1      -6.240   1.012   4.633  0.00  0.00    -0.131 OA
ENDBRANCH   8   9
ENDBRANCH   3   6
ENDBRANCH   1   2
BRANCH   1  13
ATOM     12  C   UNL     1      -0.019   1.526   0.010  0.00  0.00    +0.017 C 
ATOM     13  C   UNL     1       0.002  -0.004   0.002  0.00  0.00    +0.006 C 
ATOM     14  C   UNL     1       0.742  -0.511   1.242  0.00  0.00    +0.017 C 
BRANCH  13  15
ATOM     15  C   UNL     1       0.707  -0.490  -1.238  0.00  0.00    -0.040 A 
ATOM     16  C   UNL     1       0.036  -1.284  -2.148  0.00  0.00    +0.005 A 
ATOM     17  C   UNL     1       0.682  -1.730  -3.286  0.00  0.00    +0.015 A 
ATOM     18  C   UNL     1       2.001  -1.381  -3.513  0.00  0.00    +0.018 A 
ATOM     19  C   UNL     1       2.673  -0.586  -2.602  0.00  0.00    +0.015 A 
ATOM     20  C   UNL     1       2.024  -0.137  -1.467  0.00  0.00    +0.005 A 
ATOM     21 BR   UNL     1       2.886  -1.991  -5.069  0.00  0.00    -0.050 Br
ENDBRANCH  13  15
ENDBRANCH   1  13
TORSDOF 5
