REMARK  Name = ZINC39450151
REMARK  5 active torsions:
REMARK  status: ('A' for Active; 'I' for Inactive)
REMARK    1  A    between atoms: C_4  and  C_7
REMARK    2  A    between atoms: C_7  and  N_8
REMARK    3  A    between atoms: C_16  and  C_19
REMARK    4  A    between atoms: C_24  and  O_25
REMARK    5  A    between atoms: C_27  and  O_32
REMARK                            x       y       z     vdW  Elec       q    Type
REMARK                         _______ _______ _______ _____ _____    ______ ____
ROOT
ATOM      1  N   UNL     1       4.090  -1.056   1.334  0.00  0.00    -0.299 N 
ATOM      2  C   UNL     1       4.822  -0.142   2.082  0.00  0.00    +0.111 A 
ATOM      3  C   UNL     1       5.196  -0.425   3.382  0.00  0.00    +0.083 A 
ATOM      4  C   UNL     1       4.827  -1.713   3.984  0.00  0.00    +0.099 A 
ATOM      5  C   UNL     1       4.085  -2.626   3.201  0.00  0.00    +0.067 A 
ATOM      6  C   UNL     1       3.713  -2.249   1.830  0.00  0.00    +0.261 A 
ATOM      7  O   UNL     1       3.068  -3.017   1.141  0.00  0.00    -0.267 OA
ATOM      8  C   UNL     1       3.720  -3.854   3.747  0.00  0.00    +0.025 A 
ATOM      9  C   UNL     1       4.111  -4.128   5.059  0.00  0.00    +0.004 A 
ATOM     10  C   UNL     1       4.845  -3.172   5.769  0.00  0.00    +0.120 A 
ATOM     11  N   UNL     1       5.174  -2.022   5.228  0.00  0.00    -0.252 NA
ATOM     12  N   UNL     1       5.911   0.506   4.112  0.00  0.00    -0.316 N 
ATOM     13  C   UNL     1       5.761   1.927   3.765  0.00  0.00    +0.207 C 
ATOM     14  C   UNL     1       6.026   2.084   2.263  0.00  0.00    +0.132 C 
ATOM     15  C   UNL     1       5.183   1.095   1.501  0.00  0.00    +0.185 C 
ATOM     16  O   UNL     1       4.809   1.364   0.377  0.00  0.00    -0.290 OA
ATOM     17  H   UNL     1       6.496   0.229   4.835  0.00  0.00    +0.149 HD
ENDROOT
BRANCH   9  18
ATOM     18  C   UNL     1       3.751  -5.419   5.693  0.00  0.00    +0.025 A 
ATOM     19  C   UNL     1       2.436  -5.878   5.650  0.00  0.00    +0.012 A 
ATOM     20  C   UNL     1       2.107  -7.080   6.241  0.00  0.00    +0.001 A 
ATOM     21  C   UNL     1       3.078  -7.833   6.878  0.00  0.00    +0.004 A 
ATOM     22  C   UNL     1       4.385  -7.388   6.927  0.00  0.00    +0.046 A 
ATOM     23  C   UNL     1       4.732  -6.185   6.332  0.00  0.00    +0.125 A 
BRANCH  23  24
ATOM     24  O   UNL     1       6.017  -5.749   6.375  0.00  0.00    -0.506 OA
ATOM     25  H   UNL     1       6.222  -5.203   7.147  0.00  0.00    +0.292 HD
ENDBRANCH  23  24
ENDBRANCH   9  18
BRANCH  13  26
ATOM     26  O   UNL     1       4.434   2.361   4.069  0.00  0.00    -0.374 OA
ATOM     27  H   UNL     1       4.195   2.271   5.002  0.00  0.00    +0.212 HD
ENDBRANCH  13  26
BRANCH   1  28
ATOM     28  C   UNL     1       3.711  -0.707  -0.038  0.00  0.00    +0.160 C 
BRANCH  28  32
ATOM     29  C   UNL     1       6.776  -1.974  -2.730  0.00  0.00    +0.000 A 
ATOM     30  C   UNL     1       5.823  -2.875  -2.294  0.00  0.00    +0.000 A 
ATOM     31  C   UNL     1       4.831  -2.465  -1.423  0.00  0.00    +0.005 A 
ATOM     32  C   UNL     1       4.793  -1.154  -0.987  0.00  0.00    -0.028 A 
ATOM     33  C   UNL     1       5.747  -0.253  -1.421  0.00  0.00    +0.005 A 
ATOM     34  C   UNL     1       6.738  -0.663  -2.294  0.00  0.00    +0.000 A 
ENDBRANCH  28  32
ENDBRANCH   1  28
TORSDOF 5
