REMARK  Name = ZINC44231485
REMARK  7 active torsions:
REMARK  status: ('A' for Active; 'I' for Inactive)
REMARK    1  A    between atoms: C_1  and  C_2
REMARK    2  A    between atoms: C_2  and  C_3
REMARK    3  A    between atoms: C_2  and  C_4
REMARK    4  A    between atoms: C_2  and  C_5
REMARK    5  A    between atoms: C_9  and  O_24
REMARK    6  A    between atoms: C_11  and  O_14
REMARK    7  A    between atoms: O_14  and  C_15
REMARK                            x       y       z     vdW  Elec       q    Type
REMARK                         _______ _______ _______ _____ _____    ______ ____
ROOT
ATOM      1  C   UNL     1       0.712  -0.495  -1.273  0.00  0.00    -0.002 C 
ATOM      2  C   UNL     1       0.745  -2.024  -1.245  0.00  0.00    +0.007 C 
ATOM      3  C   UNL     1       1.475  -2.542  -2.485  0.00  0.00    +0.035 C 
ATOM      4  C   UNL     1       2.906  -2.001  -2.497  0.00  0.00    +0.155 C 
ATOM      5  C   UNL     1       2.874  -0.472  -2.526  0.00  0.00    +0.202 C 
ATOM      6  C   UNL     1       2.143   0.046  -1.285  0.00  0.00    +0.051 C 
ENDROOT
BRANCH   1   8
ATOM      7  C   UNL     1      -0.051   1.552  -0.061  0.00  0.00    +0.011 C 
ATOM      8  C   UNL     1      -0.019   0.023  -0.032  0.00  0.00    -0.035 C 
ATOM      9  C   UNL     1       0.715  -0.448   1.225  0.00  0.00    +0.011 C 
ATOM     10  C   UNL     1      -1.450  -0.517  -0.021  0.00  0.00    +0.011 C 
ENDBRANCH   1   8
BRANCH   4  11
ATOM     11  O   UNL     1       3.589  -2.485  -3.656  0.00  0.00    -0.388 OA
ATOM     12  H   UNL     1       3.647  -3.449  -3.704  0.00  0.00    +0.210 HD
ENDBRANCH   4  11
BRANCH   5  13
ATOM     13  O   UNL     1       4.210   0.033  -2.537  0.00  0.00    -0.486 OA
BRANCH  13  14
ATOM     14  C   UNL     1       4.814   0.154  -3.749  0.00  0.00    +0.125 A 
ATOM     15  C   UNL     1       6.149   0.523  -3.824  0.00  0.00    +0.049 A 
ATOM     16  C   UNL     1       6.766   0.647  -5.055  0.00  0.00    +0.053 A 
ATOM     17  C   UNL     1       6.052   0.403  -6.217  0.00  0.00    +0.166 A 
ATOM     18  C   UNL     1       4.711   0.032  -6.144  0.00  0.00    +0.170 A 
ATOM     19  C   UNL     1       4.097  -0.097  -4.909  0.00  0.00    +0.095 A 
ATOM     20  O   UNL     1       4.239  -0.149  -7.412  0.00  0.00    -0.452 OA
ATOM     21  C   UNL     1       5.186   0.510  -8.273  0.00  0.00    +0.466 C 
ATOM     22  O   UNL     1       6.419   0.454  -7.532  0.00  0.00    -0.453 OA
ENDBRANCH  13  14
ENDBRANCH   5  13
TORSDOF 4
