REMARK  Name = ZINC09926783
REMARK  7 active torsions:
REMARK  status: ('A' for Active; 'I' for Inactive)
REMARK    1  A    between atoms: C_1  and  C_2
REMARK    2  A    between atoms: C_2  and  O_3
REMARK    3  A    between atoms: O_3  and  C_4
REMARK    4  A    between atoms: C_4  and  C_6
REMARK    5  A    between atoms: C_7  and  N_33
REMARK    6  A    between atoms: N_18  and  C_21
REMARK    7  A    between atoms: C_25  and  C_28
REMARK                            x       y       z     vdW  Elec       q    Type
REMARK                         _______ _______ _______ _____ _____    ______ ____
ROOT
ATOM      1  C   UNL     1      -1.204  -0.722   0.005  0.00  0.00    +0.117 C 
ATOM      2  C   UNL     1      -1.188  -2.077  -0.106  0.00  0.00    +0.195 C 
ATOM      3  O   UNL     1      -2.323  -2.790  -0.101  0.00  0.00    -0.446 OA
ATOM      4  C   UNL     1      -3.452  -2.267   0.414  0.00  0.00    +0.116 C 
ATOM      5  C   UNL     1      -3.606  -0.937   0.557  0.00  0.00    +0.057 C 
ATOM      6  C   UNL     1      -2.510   0.006   0.135  0.00  0.00    +0.141 C 
ATOM      7  C   UNL     1      -2.869   0.699  -1.143  0.00  0.00    -0.002 A 
ATOM      8  C   UNL     1      -3.113   0.212  -2.408  0.00  0.00    +0.007 A 
ATOM      9  C   UNL     1      -3.427   1.143  -3.393  0.00  0.00    +0.000 A 
ATOM     10  C   UNL     1      -3.491   2.492  -3.112  0.00  0.00    +0.002 A 
ATOM     11  C   UNL     1      -3.246   2.990  -1.842  0.00  0.00    +0.024 A 
ATOM     12  C   UNL     1      -2.929   2.066  -0.844  0.00  0.00    +0.041 A 
ATOM     13  N   UNL     1      -2.642   2.280   0.492  0.00  0.00    -0.273 N 
ATOM     14  C   UNL     1      -2.382   1.128   1.145  0.00  0.00    +0.240 C 
ATOM     15  O   UNL     1      -2.100   1.012   2.319  0.00  0.00    -0.274 OA
ATOM     16  C   UNL     1      -2.623   3.601   1.124  0.00  0.00    +0.138 C 
ATOM     17  C   UNL     1      -4.784  -0.392   1.102  0.00  0.00    +0.165 C 
ATOM     18  O   UNL     1      -4.893   0.814   1.199  0.00  0.00    -0.292 OA
ATOM     19  C   UNL     1      -5.910  -1.274   1.567  0.00  0.00    +0.091 C 
ATOM     20  C   UNL     1      -5.333  -2.626   1.999  0.00  0.00    +0.070 C 
ATOM     21  C   UNL     1      -4.552  -3.218   0.824  0.00  0.00    +0.086 C 
ENDROOT
BRANCH  20  22
ATOM     22  C   UNL     1      -6.452  -3.560   2.384  0.00  0.00    +0.109 A 
ATOM     23  C   UNL     1      -6.608  -4.148   3.584  0.00  0.00    +0.045 A 
ATOM     24  C   UNL     1      -7.782  -4.931   3.507  0.00  0.00    +0.041 A 
ATOM     25  C   UNL     1      -8.269  -4.782   2.262  0.00  0.00    +0.195 A 
ATOM     26  O   UNL     1      -7.459  -3.950   1.587  0.00  0.00    -0.468 OA
ENDBRANCH  20  22
BRANCH   2  27
ATOM     27  N   UNL     1       0.012  -2.727  -0.220  0.00  0.00    -0.329 N 
ATOM     28  H   UNL     1       0.841  -2.230  -0.145  0.00  0.00    +0.145 HD
ATOM     29  H   UNL     1       0.032  -3.684  -0.376  0.00  0.00    +0.145 HD
ENDBRANCH   2  27
BRANCH   1  30
ATOM     30  C   UNL     1       0.002  -0.003  -0.007  0.00  0.00    +0.342 C 
ATOM     31  O   UNL     1       0.361   0.566  -1.022  0.00  0.00    -0.245 OA
BRANCH  30  32
ATOM     32  O   UNL     1       0.763   0.057   1.106  0.00  0.00    -0.462 OA
BRANCH  32  34
ATOM     33  C   UNL     1       2.700   0.759   2.370  0.00  0.00    +0.048 C 
ATOM     34  C   UNL     1       1.978   0.805   1.022  0.00  0.00    +0.229 C 
ENDBRANCH  32  34
ENDBRANCH  30  32
ENDBRANCH   1  30
TORSDOF 5
