REMARK  Name = ZINC04978749
REMARK  7 active torsions:
REMARK  status: ('A' for Active; 'I' for Inactive)
REMARK    1  A    between atoms: C_1  and  C_2
REMARK    2  A    between atoms: N_7  and  C_8
REMARK    3  A    between atoms: C_8  and  C_10
REMARK    4  A    between atoms: C_8  and  C_19
REMARK    5  A    between atoms: C_15  and  N_16
REMARK    6  A    between atoms: C_25  and  C_30
REMARK    7  A    between atoms: C_28  and  O_29
REMARK                            x       y       z     vdW  Elec       q    Type
REMARK                         _______ _______ _______ _____ _____    ______ ____
ROOT
ATOM      1  C   UNL     1       4.886   4.152  -0.048  0.00  0.00    +0.138 C 
ENDROOT
BRANCH   1   2
ATOM      2  C   UNL     1       3.512   3.561   0.135  0.00  0.00    +0.021 A 
ATOM      3  C   UNL     1       2.788   3.153  -0.983  0.00  0.00    +0.010 A 
ATOM      4  C   UNL     1       1.544   2.614  -0.852  0.00  0.00    +0.010 A 
ATOM      5  C   UNL     1       0.980   2.466   0.425  0.00  0.00    +0.004 A 
ATOM      6  C   UNL     1      -0.303   1.913   0.600  0.00  0.00    +0.012 A 
ATOM      7  C   UNL     1      -0.790   1.804   1.871  0.00  0.00    +0.023 A 
ATOM      8  C   UNL     1      -0.017   2.226   2.950  0.00  0.00    +0.039 A 
ATOM      9  N   UNL     1       1.178   2.740   2.784  0.00  0.00    -0.248 NA
ATOM     10  C   UNL     1       1.710   2.878   1.566  0.00  0.00    +0.113 A 
ATOM     11  C   UNL     1       2.997   3.432   1.393  0.00  0.00    +0.148 A 
ATOM     12  C   UNL     1      -0.570   2.094   4.346  0.00  0.00    +0.065 C 
BRANCH  11  13
ATOM     13  O   UNL     1       3.719   3.833   2.471  0.00  0.00    -0.504 OA
ATOM     14  H   UNL     1       3.516   4.731   2.767  0.00  0.00    +0.292 HD
ENDBRANCH  11  13
ENDBRANCH   1   2
BRANCH   1  21
ATOM     15  C   UNL     1       9.174   6.754   1.005  0.00  0.00    +0.044 C 
ATOM     16  C   UNL     1       8.788   5.297   0.987  0.00  0.00    -0.046 A 
ATOM     17  C   UNL     1       9.713   4.313   1.310  0.00  0.00    +0.021 A 
ATOM     18  C   UNL     1       9.327   2.988   1.284  0.00  0.00    +0.084 A 
ATOM     19  C   UNL     1       7.185   3.556   0.641  0.00  0.00    +0.097 A 
ATOM     20  C   UNL     1       7.504   4.910   0.647  0.00  0.00    +0.045 A 
ATOM     21  N   UNL     1       5.898   3.153   0.302  0.00  0.00    -0.319 N 
ATOM     22  H   UNL     1       5.671   2.210   0.297  0.00  0.00    +0.148 HD
ATOM     23  N   UNL     1       8.074   2.572   0.961  0.00  0.00    -0.350 N 
ATOM     24  H   UNL     1       7.812   1.579   0.959  0.00  0.00    +0.166 HD
ENDBRANCH   1  21
BRANCH   1  25
ATOM     25  C   UNL     1       5.067   4.570  -1.484  0.00  0.00    +0.007 A 
ATOM     26  C   UNL     1       5.797   3.775  -2.348  0.00  0.00    +0.008 A 
ATOM     27  C   UNL     1       5.959   4.155  -3.667  0.00  0.00    +0.000 A 
ATOM     28  C   UNL     1       5.400   5.336  -4.120  0.00  0.00    +0.002 A 
ATOM     29  C   UNL     1       4.674   6.133  -3.255  0.00  0.00    +0.033 A 
ATOM     30  C   UNL     1       4.508   5.750  -1.937  0.00  0.00    +0.131 A 
BRANCH  30  31
ATOM     31  N   UNL     1       3.731   6.604  -1.010  0.00  0.00    +0.057 N 
ATOM     32  O   UNL     1       3.192   7.615  -1.422  0.00  0.00    -0.126 OA
ATOM     33  O   UNL     1       3.632   6.296   0.164  0.00  0.00    -0.126 OA
ENDBRANCH  30  31
ENDBRANCH   1  25
TORSDOF 5
