REMARK  Name = ZINC08187419
REMARK  6 active torsions:
REMARK  status: ('A' for Active; 'I' for Inactive)
REMARK    1  A    between atoms: C_3  and  C_6
REMARK    2  A    between atoms: C_8  and  C_11
REMARK    3  A    between atoms: C_11  and  S_12
REMARK    4  A    between atoms: S_12  and  C_13
REMARK    5  A    between atoms: C_16  and  C_20
REMARK    6  A    between atoms: C_17  and  N_19
REMARK                            x       y       z     vdW  Elec       q    Type
REMARK                         _______ _______ _______ _____ _____    ______ ____
ROOT
ATOM      1  S   UNL     1       3.784   2.342  -0.021  0.00  0.00    -0.080 S 
ENDROOT
BRANCH   1   2
ATOM      2  C   UNL     1       2.289   1.408  -0.012  0.00  0.00    +0.190 A 
ATOM      3  N   UNL     1       1.128   2.053   0.002  0.00  0.00    -0.229 NA
ATOM      4  C   UNL     1      -0.017   1.395   0.010  0.00  0.00    +0.136 A 
ATOM      5  C   UNL     1       0.002  -0.004   0.002  0.00  0.00    +0.109 A 
ATOM      6  C   UNL     1       1.256  -0.654  -0.013  0.00  0.00    +0.138 A 
ATOM      7  N   UNL     1       2.359   0.085  -0.020  0.00  0.00    -0.206 NA
BRANCH   6   8
ATOM      8  N   UNL     1       1.333  -2.031  -0.022  0.00  0.00    -0.342 N 
ATOM      9  H   UNL     1       0.521  -2.563  -0.018  0.00  0.00    +0.144 HD
ATOM     10  H   UNL     1       2.199  -2.469  -0.033  0.00  0.00    +0.144 HD
ENDBRANCH   6   8
BRANCH   5  11
ATOM     11  C   UNL     1      -1.216  -0.756   0.009  0.00  0.00    +0.104 C 
ATOM     12  N   UNL     1      -2.183  -1.353   0.015  0.00  0.00    -0.191 NA
ENDBRANCH   5  11
ENDBRANCH   1   2
BRANCH   1  13
ATOM     13  C   UNL     1       3.106   4.020  -0.006  0.00  0.00    +0.136 C 
BRANCH  13  16
ATOM     14  C   UNL     1       5.818   6.411   0.578  0.00  0.00    +0.202 A 
ATOM     15  C   UNL     1       4.872   5.573   1.115  0.00  0.00    +0.080 A 
ATOM     16  C   UNL     1       4.235   5.018  -0.011  0.00  0.00    +0.094 A 
ATOM     17  N   UNL     1       4.808   5.540  -1.060  0.00  0.00    -0.082 NA
ATOM     18  O   UNL     1       5.687   6.313  -0.758  0.00  0.00    -0.351 OA
BRANCH  14  21
ATOM     19  C   UNL     1       8.400   8.678   1.825  0.00  0.00    +0.042 A 
ATOM     20  C   UNL     1       7.709   8.073   0.759  0.00  0.00    +0.053 A 
ATOM     21  C   UNL     1       6.776   7.248   1.314  0.00  0.00    +0.172 A 
ATOM     22  O   UNL     1       6.890   7.330   2.654  0.00  0.00    -0.460 OA
ATOM     23  C   UNL     1       7.870   8.193   2.966  0.00  0.00    +0.196 A 
ENDBRANCH  14  21
ENDBRANCH  13  16
ENDBRANCH   1  13
TORSDOF 6
