REMARK  Name = ZINC39362378
REMARK  9 active torsions:
REMARK  status: ('A' for Active; 'I' for Inactive)
REMARK    1  A    between atoms: C_1  and  C_2
REMARK    2  A    between atoms: C_8  and  C_10
REMARK    3  A    between atoms: C_10  and  S_11
REMARK    4  A    between atoms: S_11  and  C_12
REMARK    5  A    between atoms: C_16  and  C_27
REMARK    6  A    between atoms: N_18  and  C_19
REMARK    7  A    between atoms: C_22  and  O_25
REMARK    8  A    between atoms: O_25  and  C_26
REMARK    9  A    between atoms: C_27  and  C_28
REMARK                            x       y       z     vdW  Elec       q    Type
REMARK                         _______ _______ _______ _____ _____    ______ ____
ROOT
ATOM      1  C   UNL     1       0.130  -9.088  -0.319  0.00  0.00    +0.276 C 
ATOM      2  N   UNL     1       1.298  -9.245   0.549  0.00  0.00    -0.156 NA
ATOM      3  N   UNL     1       0.976  -9.495   1.709  0.00  0.00    -0.166 NA
ATOM      4  C   UNL     1      -0.477  -9.557   1.868  0.00  0.00    +0.222 C 
ATOM      5  N   UNL     1      -1.053  -9.291   0.537  0.00  0.00    -0.274 N 
ENDROOT
BRANCH   5   6
ATOM      6  C   UNL     1      -2.403  -9.243   0.171  0.00  0.00    +0.034 A 
ATOM      7  C   UNL     1      -3.389  -9.457   1.125  0.00  0.00    +0.027 A 
ATOM      8  C   UNL     1      -4.721  -9.408   0.763  0.00  0.00    +0.047 A 
ATOM      9  C   UNL     1      -5.074  -9.146  -0.552  0.00  0.00    +0.120 A 
ATOM     10  C   UNL     1      -4.090  -8.933  -1.506  0.00  0.00    +0.047 A 
ATOM     11  C   UNL     1      -2.757  -8.976  -1.145  0.00  0.00    +0.027 A 
BRANCH   9  12
ATOM     12  O   UNL     1      -6.386  -9.099  -0.908  0.00  0.00    -0.495 OA
ATOM     13  C   UNL     1      -6.677  -8.824  -2.280  0.00  0.00    +0.277 C 
ENDBRANCH   9  12
ENDBRANCH   5   6
BRANCH   1  14
ATOM     14  S   UNL     1       0.103  -7.420  -1.031  0.00  0.00    -0.104 S 
BRANCH  14  15
ATOM     15  C   UNL     1       0.093  -6.325   0.415  0.00  0.00    +0.168 C 
BRANCH  15  23
ATOM     16  C   UNL     1      -0.018   1.503   0.010  0.00  0.00    +0.075 C 
ATOM     17  C   UNL     1       0.002  -0.004   0.002  0.00  0.00    +0.101 A 
ATOM     18  N   UNL     1       0.010  -0.844  -1.014  0.00  0.00    -0.145 NA
ATOM     19  N   UNL     1       0.028  -2.086  -0.784  0.00  0.00    -0.126 NA
ATOM     20  C   UNL     1       0.040  -2.568   0.443  0.00  0.00    +0.188 A 
ATOM     21  S   UNL     1       0.031  -1.158   1.367  0.00  0.00    -0.036 S 
ATOM     22  N   UNL     1       0.060  -3.893   0.865  0.00  0.00    -0.263 N 
ATOM     23  C   UNL     1       0.071  -4.889  -0.043  0.00  0.00    +0.229 C 
ATOM     24  O   UNL     1       0.063  -4.630  -1.227  0.00  0.00    -0.275 OA
ATOM     25  H   UNL     1       0.067  -4.100   1.813  0.00  0.00    +0.157 HD
ENDBRANCH  15  23
ENDBRANCH  14  15
ENDBRANCH   1  14
BRANCH   4  26
ATOM     26  C   UNL     1      -0.943  -8.495   2.865  0.00  0.00    +0.102 C 
BRANCH  26  27
ATOM     27  C   UNL     1      -0.316  -8.758   4.210  0.00  0.00    +0.029 A 
ATOM     28  N   UNL     1      -0.895  -9.644   5.077  0.00  0.00    -0.311 N 
ATOM     29  C   UNL     1      -0.343  -9.887   6.280  0.00  0.00    +0.327 A 
ATOM     30  O   UNL     1      -0.875 -10.677   7.035  0.00  0.00    -0.247 OA
ATOM     31  N   UNL     1       0.790  -9.267   6.659  0.00  0.00    -0.275 N 
ATOM     32  C   UNL     1       1.392  -8.387   5.833  0.00  0.00    +0.254 A 
ATOM     33  O   UNL     1       2.418  -7.826   6.175  0.00  0.00    -0.268 OA
ATOM     34  C   UNL     1       0.824  -8.126   4.562  0.00  0.00    +0.091 A 
ATOM     35  H   UNL     1       1.175  -9.454   7.529  0.00  0.00    +0.173 HD
ATOM     36  H   UNL     1      -1.713 -10.101   4.823  0.00  0.00    +0.170 HD
ENDBRANCH  26  27
ENDBRANCH   4  26
TORSDOF 7
