REMARK  Name = ZINC00690864
REMARK  5 active torsions:
REMARK  status: ('A' for Active; 'I' for Inactive)
REMARK    1  A    between atoms: C_4  and  C_7
REMARK    2  A    between atoms: C_12  and  C_26
REMARK    3  A    between atoms: C_14  and  C_24
REMARK    4  A    between atoms: C_15  and  N_23
REMARK    5  A    between atoms: N_16  and  N_17
REMARK                            x       y       z     vdW  Elec       q    Type
REMARK                         _______ _______ _______ _____ _____    ______ ____
ROOT
ATOM      1  C   UNL     1       2.252  -2.896   0.501  0.00  0.00    +0.032 C 
ATOM      2  C   UNL     1       0.970  -2.126   0.825  0.00  0.00    +0.061 C 
ATOM      3  C   UNL     1       1.121  -0.687   0.397  0.00  0.00    +0.037 C 
ATOM      4  C   UNL     1       2.328  -0.083   0.407  0.00  0.00    +0.026 C 
ATOM      5  C   UNL     1       2.478   1.355  -0.021  0.00  0.00    +0.097 C 
ATOM      6  C   UNL     1       1.156   2.064  -0.012  0.00  0.00    +0.078 C 
ATOM      7  C   UNL     1      -0.012   1.370  -0.005  0.00  0.00    +0.117 C 
ATOM      8  N   UNL     1       0.003  -0.005   0.002  0.00  0.00    -0.223 N 
ATOM      9  C   UNL     1       3.483  -0.775   0.812  0.00  0.00    +0.162 C 
ATOM     10  O   UNL     1       4.551  -0.196   0.827  0.00  0.00    -0.292 OA
ATOM     11  C   UNL     1       3.420  -2.220   1.226  0.00  0.00    +0.088 C 
ENDROOT
BRANCH   5  12
ATOM     12  C   UNL     1       3.051   1.399  -1.414  0.00  0.00    -0.035 A 
ATOM     13  C   UNL     1       2.375   0.798  -2.459  0.00  0.00    +0.007 A 
ATOM     14  C   UNL     1       2.897   0.841  -3.738  0.00  0.00    +0.038 A 
ATOM     15  C   UNL     1       4.104   1.478  -3.970  0.00  0.00    +0.123 A 
ATOM     16  C   UNL     1       4.784   2.075  -2.922  0.00  0.00    +0.038 A 
ATOM     17  C   UNL     1       4.257   2.035  -1.646  0.00  0.00    +0.007 A 
ATOM     18  F   UNL     1       4.618   1.517  -5.219  0.00  0.00    -0.205 F 
ENDBRANCH   5  12
BRANCH   1  22
ATOM     19  C   UNL     1       1.878  -6.936   1.838  0.00  0.00    +0.000 A 
ATOM     20  C   UNL     1       2.116  -6.669   0.502  0.00  0.00    +0.000 A 
ATOM     21  C   UNL     1       2.238  -5.362   0.070  0.00  0.00    +0.004 A 
ATOM     22  C   UNL     1       2.119  -4.321   0.972  0.00  0.00    -0.044 A 
ATOM     23  C   UNL     1       1.885  -4.588   2.308  0.00  0.00    +0.004 A 
ATOM     24  C   UNL     1       1.760  -5.896   2.740  0.00  0.00    +0.000 A 
ENDBRANCH   1  22
BRANCH   8  25
ATOM     25  N   UNL     1      -1.109  -0.696  -0.389  0.00  0.00    -0.217 NA
ATOM     26  C   UNL     1      -1.715  -1.406   0.746  0.00  0.00    +0.134 C 
ATOM     27  C   UNL     1      -2.987  -2.116   0.277  0.00  0.00    +0.177 C 
ATOM     28  O   UNL     1      -2.665  -2.997  -0.803  0.00  0.00    -0.377 OA
ATOM     29  C   UNL     1      -2.073  -2.339  -1.926  0.00  0.00    +0.177 C 
ATOM     30  C   UNL     1      -0.792  -1.631  -1.479  0.00  0.00    +0.134 C 
ENDBRANCH   8  25
BRANCH   7  31
ATOM     31  N   UNL     1      -1.210   2.043  -0.011  0.00  0.00    -0.344 N 
ATOM     32  H   UNL     1      -2.042   1.550  -0.083  0.00  0.00    +0.144 HD
ATOM     33  H   UNL     1      -1.223   3.010   0.058  0.00  0.00    +0.144 HD
ENDBRANCH   7  31
BRANCH   6  34
ATOM     34  C   UNL     1       1.124   3.495  -0.010  0.00  0.00    +0.099 C 
ATOM     35  N   UNL     1       1.099   4.631  -0.009  0.00  0.00    -0.191 NA
ENDBRANCH   6  34
TORSDOF 5
