REMARK  Name = ZINC41006559
REMARK  12 active torsions:
REMARK  status: ('A' for Active; 'I' for Inactive)
REMARK    1  A    between atoms: C_1  and  C_2
REMARK    2  A    between atoms: C_7  and  N_8
REMARK    3  A    between atoms: C_9  and  C_11
REMARK    4  A    between atoms: C_13  and  C_33
REMARK    5  A    between atoms: C_15  and  C_23
REMARK    6  A    between atoms: C_17  and  C_21
REMARK    7  A    between atoms: C_17  and  O_22
REMARK    8  A    between atoms: N_25  and  C_26
REMARK    9  A    between atoms: C_31  and  C_32
REMARK   10  A    between atoms: C_36  and  O_41
REMARK   11  A    between atoms: C_37  and  O_39
REMARK   12  A    between atoms: O_39  and  C_40
REMARK                            x       y       z     vdW  Elec       q    Type
REMARK                         _______ _______ _______ _____ _____    ______ ____
ROOT
ATOM      1  C   UNL     1       1.133  -0.324   5.418  0.00  0.00    +0.149 C 
ATOM      2  C   UNL     1       0.657  -1.491   6.290  0.00  0.00    +0.053 C 
ATOM      3  C   UNL     1      -0.719  -1.957   5.811  0.00  0.00    +0.115 C 
ATOM      4  C   UNL     1      -1.740  -0.834   5.998  0.00  0.00    +0.082 C 
ATOM      5  C   UNL     1      -1.355   0.357   5.115  0.00  0.00    +0.110 C 
ATOM      6  C   UNL     1       0.073   0.755   5.433  0.00  0.00    +0.148 C 
ATOM      7  O   UNL     1       0.358   1.899   5.695  0.00  0.00    -0.296 OA
ATOM      8  C   UNL     1      -3.130  -1.337   5.600  0.00  0.00    +0.042 C 
ENDROOT
BRANCH   2   9
ATOM      9  C   UNL     1       1.639  -2.630   6.185  0.00  0.00    -0.039 A 
ATOM     10  C   UNL     1       1.673  -3.407   5.042  0.00  0.00    +0.008 A 
ATOM     11  C   UNL     1       2.571  -4.453   4.940  0.00  0.00    +0.049 A 
ATOM     12  C   UNL     1       3.440  -4.724   5.985  0.00  0.00    +0.158 A 
ATOM     13  C   UNL     1       3.406  -3.942   7.135  0.00  0.00    +0.162 A 
ATOM     14  C   UNL     1       2.506  -2.892   7.229  0.00  0.00    +0.053 A 
BRANCH  13  15
ATOM     15  O   UNL     1       4.256  -4.204   8.163  0.00  0.00    -0.491 OA
ATOM     16  C   UNL     1       4.165  -3.360   9.313  0.00  0.00    +0.277 C 
ENDBRANCH  13  15
BRANCH  12  17
ATOM     17  O   UNL     1       4.324  -5.753   5.886  0.00  0.00    -0.503 OA
ATOM     18  H   UNL     1       5.177  -5.503   5.504  0.00  0.00    +0.292 HD
ENDBRANCH  12  17
ENDBRANCH   2   9
BRANCH   1  20
ATOM     19  N   UNL     1       0.828  -0.110   2.973  0.00  0.00    -0.285 N 
ATOM     20  C   UNL     1       1.347  -0.803   4.005  0.00  0.00    +0.228 C 
ATOM     21  O   UNL     1       1.987  -1.812   3.798  0.00  0.00    -0.275 OA
ATOM     22  H   UNL     1       0.371   0.731   3.134  0.00  0.00    +0.155 HD
BRANCH  19  29
ATOM     23  C   UNL     1      -1.075   0.739   1.035  0.00  0.00    +0.045 C 
ATOM     24  C   UNL     1       0.040  -0.214   0.692  0.00  0.00    -0.029 A 
ATOM     25  C   UNL     1       0.165  -0.698  -0.596  0.00  0.00    +0.005 A 
ATOM     26  C   UNL     1       1.188  -1.573  -0.911  0.00  0.00    +0.000 A 
ATOM     27  C   UNL     1       2.090  -1.966   0.060  0.00  0.00    +0.002 A 
ATOM     28  C   UNL     1       1.971  -1.485   1.349  0.00  0.00    +0.023 A 
ATOM     29  C   UNL     1       0.948  -0.603   1.669  0.00  0.00    +0.036 A 
ENDBRANCH  19  29
ENDBRANCH   1  20
BRANCH   3  30
ATOM     30  C   UNL     1      -0.642  -2.324   4.351  0.00  0.00    +0.224 C 
ATOM     31  O   UNL     1      -0.597  -1.453   3.508  0.00  0.00    -0.275 OA
ATOM     32  N   UNL     1      -0.624  -3.620   3.982  0.00  0.00    -0.285 N 
ATOM     33  H   UNL     1      -0.718  -4.316   4.652  0.00  0.00    +0.155 HD
BRANCH  32  34
ATOM     34  C   UNL     1      -0.470  -3.962   2.634  0.00  0.00    +0.036 A 
ATOM     35  C   UNL     1      -0.749  -3.030   1.644  0.00  0.00    +0.023 A 
ATOM     36  C   UNL     1      -0.597  -3.370   0.314  0.00  0.00    +0.002 A 
ATOM     37  C   UNL     1      -0.167  -4.639  -0.031  0.00  0.00    +0.000 A 
ATOM     38  C   UNL     1       0.111  -5.569   0.953  0.00  0.00    +0.005 A 
ATOM     39  C   UNL     1      -0.033  -5.233   2.284  0.00  0.00    -0.029 A 
ATOM     40  C   UNL     1       0.277  -6.246   3.356  0.00  0.00    +0.045 C 
ENDBRANCH  32  34
ENDBRANCH   3  30
BRANCH   4  41
ATOM     41  O   UNL     1      -1.755  -0.427   7.368  0.00  0.00    -0.388 OA
ATOM     42  H   UNL     1      -2.382   0.284   7.560  0.00  0.00    +0.210 HD
ENDBRANCH   4  41
TORSDOF 8
