REMARK  Name = ZINC64713835
REMARK  8 active torsions:
REMARK  status: ('A' for Active; 'I' for Inactive)
REMARK    1  A    between atoms: C_1  and  C_2
REMARK    2  A    between atoms: C_2  and  N_3
REMARK    3  A    between atoms: N_3  and  C_4
REMARK    4  A    between atoms: C_4  and  C_5
REMARK    5  A    between atoms: C_14  and  C_16
REMARK    6  A    between atoms: C_16  and  N_17
REMARK    7  A    between atoms: C_20  and  C_25
REMARK    8  A    between atoms: C_25  and  C_26
REMARK                            x       y       z     vdW  Elec       q    Type
REMARK                         _______ _______ _______ _____ _____    ______ ____
ROOT
ATOM      1  N   UNL     1      -2.026  -0.790  -3.684  0.00  0.00    -0.216 N 
ATOM      2  C   UNL     1      -2.123   0.100  -4.692  0.00  0.00    +0.244 C 
ATOM      3  O   UNL     1      -1.806   1.270  -4.668  0.00  0.00    -0.273 OA
ATOM      4  C   UNL     1      -2.711  -0.666  -5.860  0.00  0.00    +0.165 C 
ATOM      5  N   UNL     1      -2.894  -2.027  -5.325  0.00  0.00    -0.287 N 
ATOM      6  C   UNL     1      -2.462  -2.001  -4.052  0.00  0.00    +0.310 C 
ATOM      7  O   UNL     1      -2.469  -2.968  -3.316  0.00  0.00    -0.252 OA
ATOM      8  H   UNL     1      -3.254  -2.793  -5.800  0.00  0.00    +0.151 HD
ENDROOT
BRANCH   1   9
ATOM      9  C   UNL     1      -1.502  -0.473  -2.354  0.00  0.00    +0.213 C 
BRANCH   9  11
ATOM     10  N   UNL     1       0.688  -0.476  -1.203  0.00  0.00    -0.296 N 
ATOM     11  C   UNL     1      -0.013  -0.705  -2.332  0.00  0.00    +0.234 C 
ATOM     12  O   UNL     1       0.555  -1.096  -3.330  0.00  0.00    -0.274 OA
BRANCH  10  14
ATOM     13  C   UNL     1      -0.019   1.526   0.010  0.00  0.00    +0.024 C 
ATOM     14  C   UNL     1       0.002  -0.004   0.002  0.00  0.00    +0.105 C 
ENDBRANCH  10  14
BRANCH  10  15
ATOM     15  C   UNL     1       2.135  -0.701  -1.182  0.00  0.00    +0.143 C 
BRANCH  15  16
ATOM     16  C   UNL     1       2.417  -2.123  -0.770  0.00  0.00    -0.026 A 
ATOM     17  C   UNL     1       2.576  -2.435   0.568  0.00  0.00    +0.009 A 
ATOM     18  C   UNL     1       2.834  -3.738   0.951  0.00  0.00    +0.050 A 
ATOM     19  C   UNL     1       2.934  -4.735  -0.006  0.00  0.00    +0.166 A 
ATOM     20  C   UNL     1       2.774  -4.421  -1.353  0.00  0.00    +0.167 A 
ATOM     21  C   UNL     1       2.510  -3.114  -1.729  0.00  0.00    +0.054 A 
ATOM     22  O   UNL     1       2.917  -5.563  -2.087  0.00  0.00    -0.453 OA
ATOM     23  C   UNL     1       3.570  -6.503  -1.213  0.00  0.00    +0.466 C 
ATOM     24  O   UNL     1       3.178  -6.074   0.104  0.00  0.00    -0.453 OA
ENDBRANCH  15  16
ENDBRANCH  10  15
ENDBRANCH   9  11
ENDBRANCH   1   9
BRANCH   4  25
ATOM     25  C   UNL     1      -1.740  -0.675  -7.042  0.00  0.00    +0.065 C 
BRANCH  25  26
ATOM     26  C   UNL     1      -2.396  -1.335  -8.227  0.00  0.00    -0.039 C 
ATOM     27  C   UNL     1      -3.049  -0.721  -9.241  0.00  0.00    -0.001 A 
ATOM     28  C   UNL     1      -3.333   0.689  -9.531  0.00  0.00    +0.010 A 
ATOM     29  C   UNL     1      -4.025   1.002 -10.650  0.00  0.00    +0.001 A 
ATOM     30  C   UNL     1      -4.478   0.015 -11.537  0.00  0.00    +0.002 A 
ATOM     31  C   UNL     1      -4.256  -1.301 -11.338  0.00  0.00    +0.026 A 
ATOM     32  C   UNL     1      -3.537  -1.744 -10.193  0.00  0.00    +0.043 A 
ATOM     33  N   UNL     1      -3.200  -2.943  -9.784  0.00  0.00    -0.380 N 
ATOM     34  C   UNL     1      -2.453  -2.816  -8.528  0.00  0.00    +0.144 C 
ATOM     35  H   UNL     1      -3.406  -3.775 -10.238  0.00  0.00    +0.160 HD
ENDBRANCH  25  26
ENDBRANCH   4  25
TORSDOF 7
