REMARK  Name = ZINC17079533
REMARK  10 active torsions:
REMARK  status: ('A' for Active; 'I' for Inactive)
REMARK    1  A    between atoms: C_1  and  C_2
REMARK    2  A    between atoms: C_3  and  C_8
REMARK    3  A    between atoms: N_6  and  C_7
REMARK    4  A    between atoms: C_8  and  N_54
REMARK    5  A    between atoms: C_9  and  N_54
REMARK    6  A    between atoms: C_10  and  C_11
REMARK    7  A    between atoms: C_10  and  N_54
REMARK    8  A    between atoms: N_13  and  C_14
REMARK    9  A    between atoms: C_15  and  C_25
REMARK   10  A    between atoms: C_20  and  C_24
REMARK                            x       y       z     vdW  Elec       q    Type
REMARK                         _______ _______ _______ _____ _____    ______ ____
ROOT
ATOM      1  C   UNL     1       2.652   1.361  -4.511  0.00  0.00    +0.201 C 
ATOM      2  O   UNL     1       3.547   1.238  -3.701  0.00  0.00    -0.278 OA
ATOM      3  N   UNL     1       2.867   2.041  -5.655  0.00  0.00    -0.281 N 
ATOM      4  H   UNL     1       2.151   2.139  -6.302  0.00  0.00    +0.155 HD
ENDROOT
BRANCH   3   5
ATOM      5  C   UNL     1       4.111   2.600  -5.906  0.00  0.00    +0.084 A 
ATOM      6  C   UNL     1       4.521   3.328  -7.014  0.00  0.00    +0.068 A 
ATOM      7  C   UNL     1       5.892   3.808  -7.032  0.00  0.00    -0.023 A 
ATOM      8  C   UNL     1       6.629   3.485  -5.947  0.00  0.00    -0.004 A 
ATOM      9  S   UNL     1       5.528   2.566  -4.909  0.00  0.00    -0.077 S 
ATOM     10  C   UNL     1       8.061   3.840  -5.689  0.00  0.00    +0.046 C 
ATOM     11  C   UNL     1       8.689   4.307  -7.010  0.00  0.00    -0.009 C 
ATOM     12  C   UNL     1       7.752   5.324  -7.669  0.00  0.00    +0.008 C 
ATOM     13  C   UNL     1       6.492   4.619  -8.174  0.00  0.00    +0.037 C 
ATOM     14  C   UNL     1      10.044   4.960  -6.732  0.00  0.00    +0.008 C 
BRANCH   6  15
ATOM     15  C   UNL     1       3.605   3.602  -8.125  0.00  0.00    +0.244 C 
ATOM     16  O   UNL     1       2.919   4.607  -8.114  0.00  0.00    -0.270 OA
ATOM     17  N   UNL     1       3.522   2.742  -9.159  0.00  0.00    -0.325 N 
ATOM     18  H   UNL     1       4.069   1.940  -9.168  0.00  0.00    +0.145 HD
ATOM     19  H   UNL     1       2.916   2.923  -9.894  0.00  0.00    +0.145 HD
ENDBRANCH   6  15
ENDBRANCH   3   5
BRANCH   1  20
ATOM     20  C   UNL     1       1.300   0.753  -4.238  0.00  0.00    +0.019 C 
BRANCH  20  22
ATOM     21  C   UNL     1       2.228  -1.085  -2.965  0.00  0.00    -0.095 C 
ATOM     22  N   UNL     1       1.334   0.090  -2.917  0.00  0.00    +0.386 N 
ATOM     23  H   UNL     1       1.692   0.754  -2.220  0.00  0.00    -0.081 HD
BRANCH  22  24
ATOM     24  C   UNL     1      -0.029  -0.327  -2.527  0.00  0.00    -0.039 C 
BRANCH  24  27
ATOM     25  C   UNL     1      -0.018   1.503   0.010  0.00  0.00    +0.065 C 
ATOM     26  C   UNL     1       0.002  -0.004   0.002  0.00  0.00    +0.037 A 
ATOM     27  C   UNL     1      -0.003  -0.796  -1.095  0.00  0.00    -0.024 A 
ATOM     28  C   UNL     1       0.024  -2.127  -0.666  0.00  0.00    +0.136 A 
ATOM     29  N   UNL     1       0.036  -2.134   0.643  0.00  0.00    -0.179 NA
ATOM     30  N   UNL     1       0.023  -0.805   1.088  0.00  0.00    -0.271 N 
ATOM     31  C   UNL     1       0.030  -0.364   2.485  0.00  0.00    +0.172 C 
ENDBRANCH  24  27
ENDBRANCH  22  24
ENDBRANCH  20  22
ENDBRANCH   1  20
TORSDOF 6
