REMARK  Name = ZINC63683763
REMARK  9 active torsions:
REMARK  status: ('A' for Active; 'I' for Inactive)
REMARK    1  A    between atoms: C_1  and  C_2
REMARK    2  A    between atoms: C_4  and  C_29
REMARK    3  A    between atoms: C_9  and  C_10
REMARK    4  A    between atoms: C_10  and  N_11
REMARK    5  A    between atoms: C_12  and  C_14
REMARK    6  A    between atoms: C_14  and  C_15
REMARK    7  A    between atoms: C_14  and  N_18
REMARK    8  A    between atoms: C_15  and  C_16
REMARK    9  A    between atoms: C_15  and  C_17
REMARK                            x       y       z     vdW  Elec       q    Type
REMARK                         _______ _______ _______ _____ _____    ______ ____
ROOT
ATOM      1  N   UNL     1      -1.295  -0.318   3.375  0.00  0.00    -0.309 N 
ATOM      2  C   UNL     1      -1.606   0.729   4.165  0.00  0.00    +0.235 C 
ATOM      3  O   UNL     1      -0.738   1.494   4.529  0.00  0.00    -0.274 OA
ATOM      4  H   UNL     1      -1.975  -0.968   3.141  0.00  0.00    +0.149 HD
ENDROOT
BRANCH   1   5
ATOM      5  C   UNL     1       0.072  -0.472   2.870  0.00  0.00    +0.145 C 
BRANCH   5  14
ATOM      6  C   UNL     1      -0.227  -0.296   0.003  0.00  0.00    +0.044 C 
ATOM      7  C   UNL     1       0.014  -1.629   0.663  0.00  0.00    -0.039 A 
ATOM      8  C   UNL     1       0.100  -2.796  -0.108  0.00  0.00    +0.024 A 
ATOM      9  C   UNL     1       0.316  -3.989   0.494  0.00  0.00    +0.016 A 
ATOM     10  N   UNL     1       0.452  -4.071   1.842  0.00  0.00    -0.326 N 
ATOM     11  H   UNL     1       0.606  -4.934   2.257  0.00  0.00    +0.169 HD
ATOM     12  C   UNL     1       0.374  -2.968   2.610  0.00  0.00    +0.254 A 
ATOM     13  O   UNL     1       0.498  -3.058   3.821  0.00  0.00    -0.268 OA
ATOM     14  C   UNL     1       0.155  -1.712   2.018  0.00  0.00    +0.037 A 
ATOM     15  C   UNL     1       0.408  -5.240  -0.342  0.00  0.00    +0.063 C 
ENDBRANCH   5  14
ENDBRANCH   1   5
BRANCH   2  16
ATOM     16  C   UNL     1      -3.033   0.948   4.597  0.00  0.00    +0.173 C 
BRANCH  16  17
ATOM     17  N   UNL     1      -3.055   1.747   5.825  0.00  0.00    -0.222 N 
ATOM     18  C   UNL     1      -2.552   2.990   5.933  0.00  0.00    +0.255 C 
ATOM     19  O   UNL     1      -2.016   3.618   5.042  0.00  0.00    -0.270 OA
ATOM     20  C   UNL     1      -2.761   3.464   7.317  0.00  0.00    +0.049 A 
ATOM     21  C   UNL     1      -2.460   4.635   7.995  0.00  0.00    +0.014 A 
ATOM     22  C   UNL     1      -2.804   4.762   9.332  0.00  0.00    +0.001 A 
ATOM     23  C   UNL     1      -3.445   3.731   9.992  0.00  0.00    +0.001 A 
ATOM     24  C   UNL     1      -3.752   2.554   9.327  0.00  0.00    +0.014 A 
ATOM     25  C   UNL     1      -3.415   2.413   7.990  0.00  0.00    +0.049 A 
ATOM     26  C   UNL     1      -3.585   1.337   6.991  0.00  0.00    +0.255 C 
ATOM     27  O   UNL     1      -4.114   0.262   7.190  0.00  0.00    -0.270 OA
ENDBRANCH  16  17
BRANCH  16  28
ATOM     28  C   UNL     1      -3.792   1.688   3.494  0.00  0.00    +0.013 C 
ATOM     29  C   UNL     1      -3.859   0.809   2.243  0.00  0.00    +0.009 C 
ATOM     30  C   UNL     1      -5.211   2.002   3.972  0.00  0.00    +0.009 C 
ENDBRANCH  16  28
ENDBRANCH   2  16
TORSDOF 5
