REMARK  Name = ZINC06564182
REMARK  7 active torsions:
REMARK  status: ('A' for Active; 'I' for Inactive)
REMARK    1  A    between atoms: C_1  and  C_2
REMARK    2  A    between atoms: C_2  and  C_3
REMARK    3  A    between atoms: C_2  and  C_4
REMARK    4  A    between atoms: C_4  and  C_6
REMARK    5  A    between atoms: C_4  and  C_15
REMARK    6  A    between atoms: C_9  and  N_12
REMARK    7  A    between atoms: N_17  and  C_18
REMARK                            x       y       z     vdW  Elec       q    Type
REMARK                         _______ _______ _______ _____ _____    ______ ____
ROOT
ATOM      1  C   UNL     1       2.423  -4.238  -0.258  0.00  0.00    +0.108 C 
ENDROOT
BRANCH   1   2
ATOM      2  C   UNL     1       3.880  -4.622  -0.300  0.00  0.00    -0.035 A 
ATOM      3  C   UNL     1       4.703  -4.104  -1.282  0.00  0.00    +0.006 A 
ATOM      4  C   UNL     1       6.040  -4.452  -1.318  0.00  0.00    +0.033 A 
ATOM      5  C   UNL     1       6.552  -5.327  -0.379  0.00  0.00    +0.126 A 
ATOM      6  C   UNL     1       5.728  -5.850   0.600  0.00  0.00    +0.033 A 
ATOM      7  C   UNL     1       4.392  -5.497   0.639  0.00  0.00    +0.006 A 
BRANCH   5   8
ATOM      8  N   UNL     1       7.983  -5.704  -0.420  0.00  0.00    +0.056 N 
ATOM      9  O   UNL     1       8.434  -6.475   0.408  0.00  0.00    -0.126 OA
ATOM     10  O   UNL     1       8.709  -5.243  -1.282  0.00  0.00    -0.126 OA
ENDBRANCH   5   8
ENDBRANCH   1   2
BRANCH   1  11
ATOM     11  C   UNL     1       2.302  -2.747  -0.077  0.00  0.00    +0.225 C 
ATOM     12  O   UNL     1       3.198  -2.017  -0.444  0.00  0.00    -0.275 OA
ATOM     13  N   UNL     1       1.197  -2.225   0.492  0.00  0.00    -0.285 N 
ATOM     14  H   UNL     1       0.502  -2.811   0.830  0.00  0.00    +0.155 HD
BRANCH  13  15
ATOM     15  C   UNL     1       1.053  -0.837   0.595  0.00  0.00    +0.033 A 
ATOM     16  C   UNL     1       1.578  -0.007  -0.387  0.00  0.00    +0.025 A 
ATOM     17  C   UNL     1       1.434   1.362  -0.283  0.00  0.00    +0.022 A 
ATOM     18  C   UNL     1       0.767   1.908   0.800  0.00  0.00    +0.041 A 
ATOM     19  C   UNL     1       0.243   1.085   1.780  0.00  0.00    +0.022 A 
ATOM     20  C   UNL     1       0.384  -0.286   1.681  0.00  0.00    +0.025 A 
ATOM     21 CL   UNL     1       0.588   3.630   0.928  0.00  0.00    -0.084 Cl
ENDBRANCH  13  15
ENDBRANCH   1  11
BRANCH   1  23
ATOM     22  C   UNL     1       1.874  -6.164  -1.752  0.00  0.00    +0.008 C 
ATOM     23  C   UNL     1       1.749  -4.650  -1.568  0.00  0.00    -0.001 C 
ATOM     24  C   UNL     1       0.269  -4.262  -1.524  0.00  0.00    +0.008 C 
ENDBRANCH   1  23
TORSDOF 5
