REMARK  Name = ZINC28060477
REMARK  6 active torsions:
REMARK  status: ('A' for Active; 'I' for Inactive)
REMARK    1  A    between atoms: C_1  and  O_2
REMARK    2  A    between atoms: O_2  and  C_3
REMARK    3  A    between atoms: C_7  and  C_11
REMARK    4  A    between atoms: C_8  and  O_9
REMARK    5  A    between atoms: O_9  and  C_10
REMARK    6  A    between atoms: C_28  and  C_30
REMARK                            x       y       z     vdW  Elec       q    Type
REMARK                         _______ _______ _______ _____ _____    ______ ____
ROOT
ATOM      1  C   UNL     1      -1.032  -1.777  -0.689  0.00  0.00    +0.238 C 
ATOM      2  C   UNL     1      -0.331  -3.089  -0.422  0.00  0.00    +0.026 C 
ATOM      3  C   UNL     1       0.978  -3.086  -0.163  0.00  0.00    +0.050 C 
ATOM      4  C   UNL     1       1.687  -1.784  -0.127  0.00  0.00    +0.038 A 
ATOM      5  C   UNL     1       3.071  -1.707  -0.204  0.00  0.00    +0.013 A 
ATOM      6  C   UNL     1       3.689  -0.471  -0.161  0.00  0.00    +0.001 A 
ATOM      7  C   UNL     1       2.934   0.683  -0.042  0.00  0.00    +0.004 A 
ATOM      8  C   UNL     1       1.554   0.615   0.035  0.00  0.00    +0.046 A 
ATOM      9  C   UNL     1       0.924  -0.614  -0.009  0.00  0.00    +0.131 A 
ATOM     10  O   UNL     1      -0.427  -0.723   0.059  0.00  0.00    -0.479 OA
ATOM     11  N   UNL     1       1.696  -4.263   0.082  0.00  0.00    -0.282 N 
ATOM     12  C   UNL     1       0.964  -5.412   0.329  0.00  0.00    +0.240 A 
ATOM     13  N   UNL     1       1.319  -6.571   0.804  0.00  0.00    -0.092 NA
ATOM     14  N   UNL     1       0.297  -7.354   0.879  0.00  0.00    -0.021 NA
ATOM     15  N   UNL     1      -0.766  -6.750   0.458  0.00  0.00    -0.042 NA
ATOM     16  N   UNL     1      -0.371  -5.468   0.080  0.00  0.00    -0.201 N 
ATOM     17  C   UNL     1      -1.141  -4.361  -0.471  0.00  0.00    +0.181 C 
ATOM     18  H   UNL     1       2.796  -4.248   0.074  0.00  0.00    +0.155 HD
ENDROOT
BRANCH   1  23
ATOM     19  C   UNL     1      -1.935  -1.428  -4.349  0.00  0.00    +0.162 A 
ATOM     20  C   UNL     1      -0.777  -0.865  -4.861  0.00  0.00    +0.049 A 
ATOM     21  C   UNL     1       0.291  -0.600  -4.025  0.00  0.00    +0.004 A 
ATOM     22  C   UNL     1       0.208  -0.895  -2.677  0.00  0.00    +0.011 A 
ATOM     23  C   UNL     1      -0.945  -1.457  -2.159  0.00  0.00    +0.042 A 
ATOM     24  C   UNL     1      -2.017  -1.730  -2.993  0.00  0.00    +0.168 A 
BRANCH  19  26
ATOM     25  C   UNL     1      -2.829  -1.358  -6.551  0.00  0.00    +0.277 C 
ATOM     26  O   UNL     1      -2.987  -1.689  -5.170  0.00  0.00    -0.491 OA
ENDBRANCH  19  26
BRANCH  24  27
ATOM     27  O   UNL     1      -3.149  -2.288  -2.486  0.00  0.00    -0.491 OA
ATOM     28  C   UNL     1      -4.161  -1.393  -2.020  0.00  0.00    +0.277 C 
ENDBRANCH  24  27
ENDBRANCH   1  23
BRANCH  17  29
ATOM     29  C   UNL     1      -1.499  -4.670  -1.902  0.00  0.00    +0.019 A 
ATOM     30  C   UNL     1      -2.715  -4.935  -2.440  0.00  0.00    +0.013 A 
ATOM     31  C   UNL     1      -2.807  -5.190  -3.795  0.00  0.00    +0.008 A 
ATOM     32  C   UNL     1      -1.678  -5.178  -4.545  0.00  0.00    +0.045 A 
ATOM     33  S   UNL     1      -0.431  -4.790  -3.328  0.00  0.00    -0.099 S 
ENDBRANCH  17  29
TORSDOF 4
