REMARK  Name = ZINC26919695
REMARK  5 active torsions:
REMARK  status: ('A' for Active; 'I' for Inactive)
REMARK    1  A    between atoms: C_1  and  C_2
REMARK    2  A    between atoms: C_5  and  C_13
REMARK    3  A    between atoms: C_6  and  C_7
REMARK    4  A    between atoms: C_6  and  C_8
REMARK    5  A    between atoms: C_10  and  O_12
REMARK                            x       y       z     vdW  Elec       q    Type
REMARK                         _______ _______ _______ _____ _____    ______ ____
ROOT
ATOM      1  C   UNL     1      -0.019   1.526   0.010  0.00  0.00    +0.014 C 
ATOM      2  C   UNL     1       0.002  -0.004   0.002  0.00  0.00    +0.000 C 
ATOM      3  C   UNL     1      -1.389  -0.705   0.062  0.00  0.00    +0.011 C 
ATOM      4  C   UNL     1      -1.084  -2.139   0.552  0.00  0.00    +0.017 C 
ATOM      5  C   UNL     1       0.463  -2.169   0.743  0.00  0.00    +0.055 C 
ATOM      6  C   UNL     1       0.727  -0.695   1.211  0.00  0.00    -0.013 C 
ATOM      7  C   UNL     1       0.042  -0.385   2.543  0.00  0.00    +0.012 C 
ATOM      8  C   UNL     1       2.220  -0.363   1.250  0.00  0.00    +0.012 C 
ATOM      9  C   UNL     1       1.036  -2.118  -0.707  0.00  0.00    +0.048 C 
ATOM     10  C   UNL     1       0.744  -0.669  -1.197  0.00  0.00    +0.122 C 
ENDROOT
BRANCH   5  11
ATOM     11  C   UNL     1       0.996  -3.258   1.638  0.00  0.00    +0.225 C 
ATOM     12  O   UNL     1       1.606  -2.969   2.646  0.00  0.00    -0.275 OA
ATOM     13  N   UNL     1       0.794  -4.552   1.320  0.00  0.00    -0.269 N 
ATOM     14  C   UNL     1       1.286  -5.559   2.149  0.00  0.00    +0.145 A 
ATOM     15  C   UNL     1       1.079  -6.892   1.811  0.00  0.00    +0.081 A 
ATOM     16  C   UNL     1       1.574  -7.883   2.643  0.00  0.00    +0.026 A 
ATOM     17  C   UNL     1       2.261  -7.504   3.787  0.00  0.00    +0.042 A 
ATOM     18  C   UNL     1       2.430  -6.160   4.061  0.00  0.00    +0.131 A 
ATOM     19  N   UNL     1       1.952  -5.237   3.247  0.00  0.00    -0.219 NA
ATOM     20 CL   UNL     1       3.288  -5.678   5.492  0.00  0.00    -0.062 Cl
ATOM     21 CL   UNL     1       0.211  -7.309   0.366  0.00  0.00    -0.080 Cl
ATOM     22  H   UNL     1       0.305  -4.782   0.514  0.00  0.00    +0.156 HD
ENDBRANCH   5  11
BRANCH  10  23
ATOM     23  O   UNL     1       1.952   0.037  -1.489  0.00  0.00    -0.391 OA
ATOM     24  H   UNL     1       2.455  -0.333  -2.227  0.00  0.00    +0.210 HD
ENDBRANCH  10  23
TORSDOF 2
