REMARK  Name = ZINC12150014
REMARK  7 active torsions:
REMARK  status: ('A' for Active; 'I' for Inactive)
REMARK    1  A    between atoms: C_1  and  C_2
REMARK    2  A    between atoms: C_10  and  C_11
REMARK    3  A    between atoms: N_13  and  C_14
REMARK    4  A    between atoms: C_14  and  C_16
REMARK    5  A    between atoms: C_14  and  C_17
REMARK    6  A    between atoms: C_17  and  O_18
REMARK    7  A    between atoms: O_18  and  C_19
REMARK                            x       y       z     vdW  Elec       q    Type
REMARK                         _______ _______ _______ _____ _____    ______ ____
ROOT
ATOM      1  C   UNL     1       1.250   2.495   5.113  0.00  0.00    +0.046 C 
ATOM      2  C   UNL     1      -0.203   2.783   4.839  0.00  0.00    -0.019 A 
ATOM      3  C   UNL     1      -1.056   3.151   5.889  0.00  0.00    +0.051 A 
ATOM      4  C   UNL     1      -0.764   3.311   7.276  0.00  0.00    +0.133 A 
ATOM      5  N   UNL     1      -1.734   3.662   8.104  0.00  0.00    -0.220 NA
ATOM      6  C   UNL     1      -2.972   3.870   7.691  0.00  0.00    +0.224 A 
ATOM      7  N   UNL     1      -3.306   3.739   6.422  0.00  0.00    -0.228 NA
ATOM      8  C   UNL     1      -2.404   3.392   5.526  0.00  0.00    +0.114 A 
ATOM      9  S   UNL     1      -2.413   3.109   3.775  0.00  0.00    -0.064 S 
ATOM     10  C   UNL     1      -0.690   2.692   3.571  0.00  0.00    +0.079 A 
ATOM     11  N   UNL     1       0.516   3.103   7.749  0.00  0.00    -0.315 N 
ATOM     12  C   UNL     1       0.537   2.038   8.760  0.00  0.00    +0.106 C 
ATOM     13  C   UNL     1       1.985   1.736   9.154  0.00  0.00    +0.019 C 
ATOM     14  C   UNL     1       2.633   3.006   9.710  0.00  0.00    +0.003 C 
ATOM     15  C   UNL     1       2.555   4.114   8.656  0.00  0.00    +0.019 C 
ATOM     16  C   UNL     1       1.091   4.347   8.276  0.00  0.00    +0.106 C 
ENDROOT
BRANCH  10  17
ATOM     17  C   UNL     1       0.025   2.332   2.341  0.00  0.00    +0.251 C 
ATOM     18  O   UNL     1       1.213   2.073   2.381  0.00  0.00    -0.270 OA
ATOM     19  N   UNL     1      -0.635   2.288   1.166  0.00  0.00    -0.306 N 
ATOM     20  H   UNL     1      -1.582   2.495   1.134  0.00  0.00    +0.149 HD
BRANCH  19  21
ATOM     21  C   UNL     1       0.079   1.929  -0.062  0.00  0.00    +0.096 C 
ATOM     22  C   UNL     1       0.124   0.406  -0.199  0.00  0.00    +0.030 C 
BRANCH  21  23
ATOM     23  C   UNL     1      -0.648   2.528  -1.268  0.00  0.00    +0.181 C 
BRANCH  23  24
ATOM     24  O   UNL     1      -1.939   1.929  -1.392  0.00  0.00    -0.381 OA
ATOM     25  C   UNL     1      -2.705   2.420  -2.493  0.00  0.00    +0.194 C 
ENDBRANCH  23  24
ENDBRANCH  21  23
ENDBRANCH  19  21
ENDBRANCH  10  17
TORSDOF 4
