REMARK  Name = ZINC16320848
REMARK  11 active torsions:
REMARK  status: ('A' for Active; 'I' for Inactive)
REMARK    1  A    between atoms: C_1  and  C_2
REMARK    2  A    between atoms: N_4  and  C_5
REMARK    3  A    between atoms: C_5  and  N_7
REMARK    4  A    between atoms: N_7  and  C_8
REMARK    5  A    between atoms: C_11  and  N_14
REMARK    6  A    between atoms: N_14  and  C_15
REMARK    7  A    between atoms: C_15  and  N_17
REMARK    8  A    between atoms: C_18  and  C_20
REMARK    9  A    between atoms: C_21  and  C_22
REMARK   10  A    between atoms: C_27  and  O_28
REMARK   11  A    between atoms: O_28  and  C_29
REMARK                            x       y       z     vdW  Elec       q    Type
REMARK                         _______ _______ _______ _____ _____    ______ ____
ROOT
ATOM      1  N   UNL     1      -4.798   3.446  -0.881  0.00  0.00    -0.297 N 
ATOM      2  H   UNL     1      -5.591   2.920  -0.692  0.00  0.00    +0.154 HD
ENDROOT
BRANCH   1   6
ATOM      3  C   UNL     1      -1.014   1.821  -0.226  0.00  0.00    +0.033 A 
ATOM      4  C   UNL     1      -1.988   1.073  -0.875  0.00  0.00    +0.025 A 
ATOM      5  C   UNL     1      -3.242   1.609  -1.087  0.00  0.00    +0.025 A 
ATOM      6  C   UNL     1      -3.527   2.900  -0.661  0.00  0.00    +0.033 A 
ATOM      7  C   UNL     1      -2.551   3.649  -0.017  0.00  0.00    +0.025 A 
ATOM      8  C   UNL     1      -1.299   3.111   0.200  0.00  0.00    +0.025 A 
BRANCH   3   9
ATOM      9  N   UNL     1       0.257   1.275  -0.006  0.00  0.00    -0.297 N 
ATOM     10  H   UNL     1       0.713   0.804  -0.722  0.00  0.00    +0.154 HD
BRANCH   9  11
ATOM     11  C   UNL     1       0.849   1.409   1.197  0.00  0.00    +0.141 C 
ATOM     12  S   UNL     1       0.093   2.333   2.425  0.00  0.00    -0.018 S 
BRANCH  11  16
ATOM     13  C   UNL     1       3.956   0.289   2.901  0.00  0.00    +0.109 C 
ATOM     14  C   UNL     1       2.629   0.951   2.636  0.00  0.00    +0.215 C 
ATOM     15  O   UNL     1       2.093   1.605   3.506  0.00  0.00    -0.276 OA
ATOM     16  N   UNL     1       2.036   0.817   1.433  0.00  0.00    -0.268 N 
ATOM     17  H   UNL     1       2.465   0.294   0.738  0.00  0.00    +0.156 HD
ENDBRANCH  11  16
ENDBRANCH   9  11
ENDBRANCH   3   9
ENDBRANCH   1   6
BRANCH   1  18
ATOM     18  C   UNL     1      -4.919   4.701  -1.356  0.00  0.00    +0.141 C 
ATOM     19  S   UNL     1      -3.525   5.667  -1.588  0.00  0.00    -0.018 S 
BRANCH  18  20
ATOM     20  N   UNL     1      -6.138   5.196  -1.649  0.00  0.00    -0.264 N 
ATOM     21  C   UNL     1      -6.259   6.452  -2.123  0.00  0.00    +0.242 C 
ATOM     22  O   UNL     1      -5.268   7.138  -2.288  0.00  0.00    -0.270 OA
ATOM     23  H   UNL     1      -6.928   4.649  -1.517  0.00  0.00    +0.157 HD
BRANCH  21  24
ATOM     24  C   UNL     1      -7.581   6.989  -2.440  0.00  0.00    +0.068 C 
ATOM     25  C   UNL     1      -7.702   8.247  -2.916  0.00  0.00    +0.016 C 
BRANCH  25  26
ATOM     26  C   UNL     1      -9.031   8.787  -3.235  0.00  0.00    +0.018 A 
ATOM     27  C   UNL     1     -10.173   7.999  -3.052  0.00  0.00    +0.026 A 
ATOM     28  C   UNL     1     -11.417   8.514  -3.349  0.00  0.00    +0.019 A 
ATOM     29  C   UNL     1     -11.540   9.806  -3.838  0.00  0.00    +0.019 A 
ATOM     30  C   UNL     1     -10.421  10.592  -4.027  0.00  0.00    +0.047 A 
ATOM     31  C   UNL     1      -9.162  10.094  -3.729  0.00  0.00    +0.127 A 
ATOM     32 BR   UNL     1     -12.960   7.452  -3.096  0.00  0.00    -0.050 Br
BRANCH  31  33
ATOM     33  O   UNL     1      -8.062  10.867  -3.915  0.00  0.00    -0.495 OA
ATOM     34  C   UNL     1      -8.274  12.186  -4.422  0.00  0.00    +0.277 C 
ENDBRANCH  31  33
ENDBRANCH  25  26
ENDBRANCH  21  24
ENDBRANCH  18  20
ENDBRANCH   1  18
TORSDOF 9
