REMARK  Name = ZINC20503092
REMARK  6 active torsions:
REMARK  status: ('A' for Active; 'I' for Inactive)
REMARK    1  A    between atoms: C_1  and  C_2
REMARK    2  A    between atoms: C_5  and  C_8
REMARK    3  A    between atoms: C_18  and  C_20
REMARK    4  A    between atoms: N_21  and  C_22
REMARK    5  A    between atoms: C_22  and  C_23
REMARK    6  A    between atoms: C_23  and  C_24
REMARK                            x       y       z     vdW  Elec       q    Type
REMARK                         _______ _______ _______ _____ _____    ______ ____
ROOT
ATOM      1  C   UNL     1       0.059  -4.275  -0.021  0.00  0.00    +0.211 C 
ATOM      2  N   UNL     1      -0.675  -4.735  -1.215  0.00  0.00    -0.335 N 
ATOM      3  C   UNL     1      -1.753  -5.553  -1.025  0.00  0.00    +0.194 C 
ATOM      4  N   UNL     1      -2.142  -5.930   0.171  0.00  0.00    -0.183 NA
ATOM      5  C   UNL     1      -1.538  -5.563   1.307  0.00  0.00    +0.229 C 
ATOM      6  N   UNL     1      -0.441  -4.744   1.278  0.00  0.00    -0.211 N 
ATOM      7  C   UNL     1       0.174  -4.371   2.442  0.00  0.00    +0.249 C 
ATOM      8  O   UNL     1       1.152  -3.641   2.427  0.00  0.00    -0.270 OA
ATOM      9  C   UNL     1      -0.350  -4.851   3.656  0.00  0.00    +0.091 C 
ATOM     10  C   UNL     1      -1.446  -5.665   3.622  0.00  0.00    +0.047 C 
ATOM     11  N   UNL     1      -2.009  -6.000   2.471  0.00  0.00    -0.219 NA
ATOM     12  C   UNL     1      -2.023  -6.190   4.912  0.00  0.00    +0.066 C 
ATOM     13  N   UNL     1      -2.450  -5.991  -2.114  0.00  0.00    -0.315 N 
ATOM     14  H   UNL     1      -2.176  -5.721  -3.005  0.00  0.00    +0.149 HD
ATOM     15  H   UNL     1      -0.402  -4.465  -2.105  0.00  0.00    +0.164 HD
ENDROOT
BRANCH   1  20
ATOM     16  C   UNL     1      -0.014   1.503   0.013  0.00  0.00    +0.044 C 
ATOM     17  C   UNL     1       0.005  -0.004   0.004  0.00  0.00    -0.050 A 
ATOM     18  C   UNL     1      -1.156  -0.712   0.256  0.00  0.00    +0.004 A 
ATOM     19  C   UNL     1      -1.138  -2.094   0.247  0.00  0.00    +0.007 A 
ATOM     20  C   UNL     1       0.040  -2.768  -0.013  0.00  0.00    -0.007 A 
ATOM     21  C   UNL     1       1.200  -2.061  -0.266  0.00  0.00    +0.007 A 
ATOM     22  C   UNL     1       1.182  -0.679  -0.261  0.00  0.00    +0.004 A 
ENDBRANCH   1  20
BRANCH  13  23
ATOM     23  C   UNL     1      -3.609  -6.868  -1.938  0.00  0.00    +0.109 C 
BRANCH  23  24
ATOM     24  C   UNL     1      -4.203  -7.210  -3.306  0.00  0.00    +0.056 C 
BRANCH  24  25
ATOM     25  C   UNL     1      -5.396  -8.113  -3.125  0.00  0.00    -0.021 A 
ATOM     26  C   UNL     1      -5.398  -9.454  -3.180  0.00  0.00    +0.087 A 
ATOM     27  N   UNL     1      -6.664  -9.927  -2.968  0.00  0.00    -0.360 N 
ATOM     28  H   UNL     1      -6.915 -10.864  -2.961  0.00  0.00    +0.165 HD
ATOM     29  C   UNL     1      -7.530  -8.876  -2.766  0.00  0.00    +0.047 A 
ATOM     30  C   UNL     1      -6.772  -7.693  -2.849  0.00  0.00    +0.003 A 
ATOM     31  C   UNL     1      -7.393  -6.455  -2.677  0.00  0.00    +0.010 A 
ATOM     32  C   UNL     1      -8.735  -6.398  -2.425  0.00  0.00    +0.001 A 
ATOM     33  C   UNL     1      -9.486  -7.562  -2.338  0.00  0.00    +0.002 A 
ATOM     34  C   UNL     1      -8.895  -8.794  -2.513  0.00  0.00    +0.026 A 
ENDBRANCH  24  25
ENDBRANCH  23  24
ENDBRANCH  13  23
TORSDOF 4
