REMARK  Name = ZINC49499288
REMARK  4 active torsions:
REMARK  status: ('A' for Active; 'I' for Inactive)
REMARK    1  A    between atoms: C_5  and  C_6
REMARK    2  A    between atoms: N_8  and  C_9
REMARK    3  A    between atoms: C_9  and  C_10
REMARK    4  A    between atoms: N_12  and  C_13
REMARK                            x       y       z     vdW  Elec       q    Type
REMARK                         _______ _______ _______ _____ _____    ______ ____
ROOT
ATOM      1  C   UNL     1      -1.739  -4.535  -0.005  0.00  0.00    +0.231 C 
ATOM      2  O   UNL     1      -0.556  -4.802  -0.018  0.00  0.00    -0.274 OA
ATOM      3  N   UNL     1      -2.654  -5.525  -0.001  0.00  0.00    -0.303 N 
ATOM      4  H   UNL     1      -3.600  -5.312   0.009  0.00  0.00    +0.149 HD
ENDROOT
BRANCH   3   5
ATOM      5  C   UNL     1      -2.218  -6.924  -0.013  0.00  0.00    +0.159 C 
ATOM      6  C   UNL     1      -3.321  -7.795  -0.621  0.00  0.00    +0.033 C 
ATOM      7  C   UNL     1      -2.968  -9.267  -0.374  0.00  0.00    +0.021 C 
ATOM      8  C   UNL     1      -3.059  -9.547   1.126  0.00  0.00    +0.104 C 
ATOM      9  N   UNL     1      -2.299  -8.556   1.877  0.00  0.00    -0.314 N 
ATOM     10  C   UNL     1      -1.934  -7.370   1.393  0.00  0.00    +0.233 C 
ATOM     11  O   UNL     1      -1.339  -6.610   2.126  0.00  0.00    -0.274 OA
ATOM     12  H   UNL     1      -2.044  -8.774   2.788  0.00  0.00    +0.149 HD
ENDBRANCH   3   5
BRANCH   1  13
ATOM     13  C   UNL     1      -2.187  -3.096   0.007  0.00  0.00    +0.200 C 
BRANCH  13  16
ATOM     14  C   UNL     1      -1.172  -0.881   0.009  0.00  0.00    +0.280 C 
ATOM     15  O   UNL     1      -2.290  -0.401   0.023  0.00  0.00    -0.267 OA
ATOM     16  N   UNL     1      -1.014  -2.220   0.000  0.00  0.00    -0.300 N 
ATOM     17  H   UNL     1      -0.122  -2.602  -0.011  0.00  0.00    +0.150 HD
BRANCH  14  22
ATOM     18  C   UNL     1      -0.016   1.362   0.009  0.00  0.00    +0.056 A 
ATOM     19  C   UNL     1       1.321   1.784  -0.001  0.00  0.00    +0.058 A 
ATOM     20  C   UNL     1       2.090   0.670  -0.014  0.00  0.00    +0.171 A 
ATOM     21  O   UNL     1       1.291  -0.405  -0.012  0.00  0.00    -0.444 OA
ATOM     22  C   UNL     1       0.002  -0.004   0.002  0.00  0.00    +0.191 A 
ATOM     23 BR   UNL     1       3.981   0.637  -0.033  0.00  0.00    -0.008 Br
ENDBRANCH  14  22
ENDBRANCH  13  16
ENDBRANCH   1  13
TORSDOF 4
