REMARK  Name = ZINC64684345
REMARK  8 active torsions:
REMARK  status: ('A' for Active; 'I' for Inactive)
REMARK    1  A    between atoms: CG_7  and  CB_10
REMARK    2  A    between atoms: CB_10  and  CA_11
REMARK    3  A    between atoms: CA_11  and  C_13
REMARK    4  A    between atoms: CA_11  and  N_16
REMARK    5  A    between atoms: C_17  and  C_19
REMARK    6  A    between atoms: C_19  and  S_20
REMARK    7  A    between atoms: S_20  and  C_21
REMARK    8  A    between atoms: C_25  and  C_28
REMARK                            x       y       z     vdW  Elec       q    Type
REMARK                         _______ _______ _______ _____ _____    ______ ____
ROOT
ATOM      1  N   TRP A   1      -0.295  -2.510  -2.083  0.00  0.00    -0.301 N 
ATOM      2  C   UNK A   0      -0.108  -2.449  -3.416  0.00  0.00    +0.224 C 
ATOM      3  O   UNK A   0       0.632  -3.240  -3.961  0.00  0.00    -0.275 OA
ATOM      4  H   TRP A   1      -0.887  -1.877  -1.647  0.00  0.00    +0.150 HD
ENDROOT
BRANCH   1   5
ATOM      5  CA  TRP A   1       0.396  -3.531  -1.292  0.00  0.00    +0.190 C 
BRANCH   5   6
ATOM      6  C   TRP A   1      -0.401  -4.809  -1.316  0.00  0.00    +0.376 C 
ATOM      7  O   TRP A   1      -1.529  -4.816  -1.778  0.00  0.00    -0.244 OA
ATOM      8  OXT TRP A   1       0.083  -5.838  -0.874  0.00  0.00    -0.244 OA
ENDBRANCH   5   6
BRANCH   5   9
ATOM      9  CB  TRP A   1       0.539  -3.047   0.152  0.00  0.00    +0.067 C 
BRANCH   9  16
ATOM     10  CZ3 TRP A   1      -0.325   1.460   0.115  0.00  0.00    +0.001 A 
ATOM     11  CH2 TRP A   1       0.829   2.254   0.163  0.00  0.00    +0.002 A 
ATOM     12  CZ2 TRP A   1       2.072   1.731   0.215  0.00  0.00    +0.026 A 
ATOM     13  CE2 TRP A   1       2.259   0.321   0.224  0.00  0.00    +0.043 A 
ATOM     14  NE1 TRP A   1       3.343  -0.416   0.269  0.00  0.00    -0.380 N 
ATOM     15  CD1 TRP A   1       2.949  -1.829   0.253  0.00  0.00    +0.144 C 
ATOM     16  CG  TRP A   1       1.438  -1.837   0.190  0.00  0.00    -0.039 C 
ATOM     17  CD2 TRP A   1       1.056  -0.540   0.174  0.00  0.00    -0.001 A 
ATOM     18  CE3 TRP A   1      -0.260   0.109   0.119  0.00  0.00    +0.010 A 
ATOM     19  HE1 TRP A   1       4.253  -0.082   0.306  0.00  0.00    +0.160 HD
ENDBRANCH   9  16
ENDBRANCH   5   9
ENDBRANCH   1   5
BRANCH   2  20
ATOM     20  C   UNK A   0      -0.819  -1.398  -4.230  0.00  0.00    +0.168 C 
BRANCH  20  21
ATOM     21  S   UNK A   0      -0.364  -1.576  -5.977  0.00  0.00    -0.104 S 
BRANCH  21  22
ATOM     22  C   UNK A   0      -1.291  -0.257  -6.808  0.00  0.00    +0.263 C 
ATOM     23  N   UNK A   0      -2.749  -0.416  -6.566  0.00  0.00    -0.218 NA
ATOM     24  N   UNK A   0      -3.249   0.957  -6.755  0.00  0.00    -0.222 NA
ATOM     25  C   UNK A   0      -2.168   1.803  -6.200  0.00  0.00    +0.234 C 
ATOM     26  O   UNK A   0      -0.962   1.023  -6.238  0.00  0.00    -0.328 OA
ATOM     27  H   UNK A   0      -3.160  -1.046  -7.237  0.00  0.00    +0.144 HD
ATOM     28  H   UNK A   0      -3.399   1.155  -7.732  0.00  0.00    +0.144 HD
BRANCH  25  29
ATOM     29  C   UNK A   0      -2.006   3.044  -7.039  0.00  0.00    -0.003 A 
ATOM     30  C   UNK A   0      -3.121   3.682  -7.552  0.00  0.00    +0.009 A 
ATOM     31  C   UNK A   0      -2.973   4.821  -8.321  0.00  0.00    +0.020 A 
ATOM     32  C   UNK A   0      -1.710   5.322  -8.578  0.00  0.00    +0.041 A 
ATOM     33  C   UNK A   0      -0.595   4.684  -8.065  0.00  0.00    +0.020 A 
ATOM     34  C   UNK A   0      -0.744   3.548  -7.291  0.00  0.00    +0.009 A 
ATOM     35 CL   UNK A   0      -1.523   6.752  -9.545  0.00  0.00    -0.084 Cl
ENDBRANCH  25  29
ENDBRANCH  21  22
ENDBRANCH  20  21
ENDBRANCH   2  20
TORSDOF 8
