REMARK  Name = ZINC20518996
REMARK  5 active torsions:
REMARK  status: ('A' for Active; 'I' for Inactive)
REMARK    1  A    between atoms: N_9  and  N_18
REMARK    2  A    between atoms: C_10  and  C_13
REMARK    3  A    between atoms: C_19  and  C_21
REMARK    4  A    between atoms: C_21  and  C_22
REMARK    5  A    between atoms: C_22  and  C_23
REMARK                            x       y       z     vdW  Elec       q    Type
REMARK                         _______ _______ _______ _____ _____    ______ ____
ROOT
ATOM      1  C   UNL     1      -0.017   1.375   0.010  0.00  0.00    +0.001 A 
ATOM      2  C   UNL     1       1.168   2.095   0.002  0.00  0.00    +0.002 A 
ATOM      3  C   UNL     1       2.386   1.443  -0.018  0.00  0.00    +0.024 A 
ATOM      4  C   UNL     1       2.422   0.059  -0.028  0.00  0.00    +0.041 A 
ATOM      5  C   UNL     1       1.223  -0.675  -0.012  0.00  0.00    +0.059 A 
ATOM      6  C   UNL     1       0.002  -0.004   0.002  0.00  0.00    +0.015 A 
ATOM      7  C   UNL     1       1.296  -2.146   0.004  0.00  0.00    +0.267 C 
ATOM      8  O   UNL     1       0.290  -2.812  -0.146  0.00  0.00    -0.268 OA
ATOM      9  N   UNL     1       2.489  -2.748   0.187  0.00  0.00    -0.188 N 
ATOM     10  C   UNL     1       3.679  -1.977   0.544  0.00  0.00    +0.247 C 
ATOM     11  N   UNL     1       3.623  -0.642  -0.062  0.00  0.00    -0.318 N 
ATOM     12  H   UNL     1       4.408  -0.255  -0.480  0.00  0.00    +0.148 HD
ENDROOT
BRANCH  10  13
ATOM     13  C   UNL     1       3.751  -1.837   2.043  0.00  0.00    +0.145 A 
ATOM     14  C   UNL     1       4.293  -0.803   2.712  0.00  0.00    +0.048 A 
ATOM     15  C   UNL     1       4.145  -1.083   4.090  0.00  0.00    +0.041 A 
ATOM     16  C   UNL     1       3.521  -2.272   4.181  0.00  0.00    +0.195 A 
ATOM     17  O   UNL     1       3.280  -2.721   2.938  0.00  0.00    -0.464 OA
ENDBRANCH  10  13
BRANCH   9  18
ATOM     18  N   UNL     1       2.589  -4.137   0.031  0.00  0.00    -0.229 N 
ATOM     19  C   UNL     1       2.581  -4.679  -1.203  0.00  0.00    +0.230 C 
ATOM     20  O   UNL     1       2.486  -3.965  -2.179  0.00  0.00    -0.274 OA
ATOM     21  H   UNL     1       2.665  -4.708   0.811  0.00  0.00    +0.173 HD
BRANCH  19  22
ATOM     22  C   UNL     1       2.689  -6.173  -1.370  0.00  0.00    +0.108 C 
BRANCH  22  23
ATOM     23  C   UNL     1       2.656  -6.523  -2.859  0.00  0.00    +0.134 C 
BRANCH  23  24
ATOM     24  C   UNL     1       2.764  -8.017  -3.027  0.00  0.00    +0.356 C 
ATOM     25  O   UNL     1       2.860  -8.735  -2.046  0.00  0.00    -0.246 OA
ATOM     26  O   UNL     1       2.757  -8.507  -4.143  0.00  0.00    -0.246 OA
ENDBRANCH  23  24
ENDBRANCH  22  23
ENDBRANCH  19  22
ENDBRANCH   9  18
TORSDOF 5
