REMARK  Name = ZINC09129833
REMARK  10 active torsions:
REMARK  status: ('A' for Active; 'I' for Inactive)
REMARK    1  A    between atoms: C_1  and  C_2
REMARK    2  A    between atoms: C_2  and  C_3
REMARK    3  A    between atoms: C_2  and  C_4
REMARK    4  A    between atoms: C_16  and  C_18
REMARK    5  A    between atoms: C_21  and  O_26
REMARK    6  A    between atoms: C_22  and  O_24
REMARK    7  A    between atoms: O_24  and  C_25
REMARK    8  A    between atoms: O_26  and  C_27
REMARK    9  A    between atoms: C_31  and  C_33
REMARK   10  A    between atoms: C_31  and  C_34
REMARK                            x       y       z     vdW  Elec       q    Type
REMARK                         _______ _______ _______ _____ _____    ______ ____
ROOT
ATOM      1  C   UNL     1      -2.340   4.227  -3.785  0.00  0.00    +0.223 C 
ATOM      2  O   UNL     1      -1.598   4.743  -4.594  0.00  0.00    -0.275 OA
ATOM      3  N   UNL     1      -2.402   2.884  -3.688  0.00  0.00    -0.258 N 
ATOM      4  C   UNL     1      -1.548   2.100  -4.462  0.00  0.00    +0.058 A 
ATOM      5  C   UNL     1      -1.652   2.069  -5.844  0.00  0.00    +0.025 A 
ATOM      6  C   UNL     1      -0.817   1.240  -6.571  0.00  0.00    +0.002 A 
ATOM      7  C   UNL     1       0.116   0.446  -5.929  0.00  0.00    +0.002 A 
ATOM      8  C   UNL     1       0.235   0.487  -4.551  0.00  0.00    +0.025 A 
ATOM      9  C   UNL     1      -0.585   1.332  -3.824  0.00  0.00    +0.053 A 
ATOM     10  N   UNL     1      -0.466   1.482  -2.447  0.00  0.00    -0.316 N 
ATOM     11  C   UNL     1      -1.432   1.162  -1.548  0.00  0.00    +0.017 C 
ATOM     12  C   UNL     1      -2.726   1.504  -1.646  0.00  0.00    +0.037 C 
ATOM     13  C   UNL     1      -3.355   2.279  -2.781  0.00  0.00    +0.147 C 
ATOM     14  C   UNL     1      -3.641   1.140  -0.629  0.00  0.00    +0.163 C 
ATOM     15  O   UNL     1      -4.811   1.444  -0.758  0.00  0.00    -0.292 OA
ATOM     16  C   UNL     1      -3.219   0.394   0.601  0.00  0.00    +0.086 C 
ATOM     17  C   UNL     1      -1.749   0.717   0.886  0.00  0.00    -0.023 C 
ATOM     18  C   UNL     1      -0.941   0.352  -0.358  0.00  0.00    +0.058 C 
ATOM     19  C   UNL     1      -1.263  -0.107   2.080  0.00  0.00    +0.011 C 
ATOM     20  C   UNL     1      -1.594   2.209   1.186  0.00  0.00    +0.011 C 
ATOM     21  H   UNL     1       0.367   1.842  -2.104  0.00  0.00    +0.152 HD
ENDROOT
BRANCH  13  22
ATOM     22  C   UNL     1      -4.237   1.344  -3.568  0.00  0.00    -0.018 A 
ATOM     23  C   UNL     1      -3.680   0.268  -4.234  0.00  0.00    +0.009 A 
ATOM     24  C   UNL     1      -4.486  -0.596  -4.952  0.00  0.00    +0.050 A 
ATOM     25  C   UNL     1      -5.853  -0.378  -5.015  0.00  0.00    +0.162 A 
ATOM     26  C   UNL     1      -6.412   0.708  -4.349  0.00  0.00    +0.162 A 
ATOM     27  C   UNL     1      -5.600   1.567  -3.626  0.00  0.00    +0.055 A 
BRANCH  26  28
ATOM     28  O   UNL     1      -7.753   0.926  -4.407  0.00  0.00    -0.491 OA
ATOM     29  C   UNL     1      -8.257   2.061  -3.700  0.00  0.00    +0.277 C 
ENDBRANCH  26  28
BRANCH  25  30
ATOM     30  O   UNL     1      -6.646  -1.224  -5.726  0.00  0.00    -0.491 OA
ATOM     31  C   UNL     1      -6.003  -2.317  -6.383  0.00  0.00    +0.277 C 
ENDBRANCH  25  30
ENDBRANCH  13  22
BRANCH   1  33
ATOM     32  C   UNL     1      -2.568   5.145  -1.493  0.00  0.00    +0.017 C 
ATOM     33  C   UNL     1      -3.192   5.087  -2.888  0.00  0.00    +0.069 C 
ATOM     34  C   UNL     1      -3.277   6.501  -3.468  0.00  0.00    +0.017 C 
ENDBRANCH   1  33
TORSDOF 4
