REMARK  Name = ZINC05587831
REMARK  7 active torsions:
REMARK  status: ('A' for Active; 'I' for Inactive)
REMARK    1  A    between atoms: C_1  and  C_2
REMARK    2  A    between atoms: C_5  and  N_8
REMARK    3  A    between atoms: N_15  and  C_23
REMARK    4  A    between atoms: C_16  and  S_18
REMARK    5  A    between atoms: S_18  and  C_19
REMARK    6  A    between atoms: C_19  and  C_20
REMARK    7  A    between atoms: C_26  and  C_29
REMARK                            x       y       z     vdW  Elec       q    Type
REMARK                         _______ _______ _______ _____ _____    ______ ____
ROOT
ATOM      1  N   UNL     1      -0.306  -4.043   0.618  0.00  0.00    -0.343 N 
ATOM      2  C   UNL     1       0.703  -4.744   1.075  0.00  0.00    +0.111 C 
ATOM      3  C   UNL     1       0.694  -6.187   1.495  0.00  0.00    +0.097 C 
ATOM      4  C   UNL     1       0.244  -7.114   0.357  0.00  0.00    +0.034 C 
ATOM      5  C   UNL     1      -0.255  -8.384   1.081  0.00  0.00    +0.003 C 
ATOM      6  C   UNL     1      -0.611  -7.962   2.519  0.00  0.00    +0.003 C 
ATOM      7  C   UNL     1      -0.316  -6.449   2.622  0.00  0.00    +0.034 C 
ATOM      8  N   UNL     1       2.065  -6.459   1.915  0.00  0.00    -0.268 N 
ATOM      9  C   UNL     1       2.740  -5.278   1.737  0.00  0.00    +0.141 C 
ATOM     10  N   UNL     1       1.965  -4.328   1.260  0.00  0.00    -0.326 N 
ATOM     11  H   UNL     1       2.270  -3.428   1.067  0.00  0.00    +0.169 HD
ATOM     12  H   UNL     1      -1.180  -4.453   0.525  0.00  0.00    +0.167 HD
ENDROOT
BRANCH   1  17
ATOM     13  C   UNL     1       0.434   1.368  -0.811  0.00  0.00    +0.044 C 
ATOM     14  C   UNL     1       0.236  -0.076  -0.429  0.00  0.00    -0.050 A 
ATOM     15  C   UNL     1      -0.477  -0.917  -1.265  0.00  0.00    +0.005 A 
ATOM     16  C   UNL     1      -0.662  -2.241  -0.922  0.00  0.00    +0.026 A 
ATOM     17  C   UNL     1      -0.126  -2.731   0.271  0.00  0.00    +0.040 A 
ATOM     18  C   UNL     1       0.593  -1.876   1.109  0.00  0.00    +0.026 A 
ATOM     19  C   UNL     1       0.774  -0.556   0.751  0.00  0.00    +0.005 A 
ENDBRANCH   1  17
BRANCH   8  20
ATOM     20  C   UNL     1       2.581  -7.667   2.397  0.00  0.00    +0.037 A 
ATOM     21  C   UNL     1       3.118  -8.595   1.515  0.00  0.00    +0.024 A 
ATOM     22  C   UNL     1       3.627  -9.787   1.994  0.00  0.00    +0.005 A 
ATOM     23  C   UNL     1       3.602 -10.055   3.350  0.00  0.00    -0.050 A 
ATOM     24  C   UNL     1       3.068  -9.133   4.231  0.00  0.00    +0.005 A 
ATOM     25  C   UNL     1       2.563  -7.937   3.759  0.00  0.00    +0.024 A 
ATOM     26  C   UNL     1       4.158 -11.356   3.869  0.00  0.00    +0.044 C 
ENDBRANCH   8  20
BRANCH   9  27
ATOM     27  S   UNL     1       4.451  -5.060   2.098  0.00  0.00    -0.080 S 
BRANCH  27  28
ATOM     28  C   UNL     1       4.773  -3.327   1.670  0.00  0.00    +0.202 C 
BRANCH  28  29
ATOM     29  C   UNL     1       6.221  -3.004   1.935  0.00  0.00    +0.366 C 
ATOM     30  O   UNL     1       6.967  -3.864   2.372  0.00  0.00    -0.245 OA
ATOM     31  O   UNL     1       6.646  -1.884   1.712  0.00  0.00    -0.245 OA
ENDBRANCH  28  29
ENDBRANCH  27  28
ENDBRANCH   9  27
TORSDOF 5
