REMARK  Name = ZINC55313292
REMARK  6 active torsions:
REMARK  status: ('A' for Active; 'I' for Inactive)
REMARK    1  A    between atoms: C_1  and  C_2
REMARK    2  A    between atoms: C_7  and  C_8
REMARK    3  A    between atoms: C_8  and  N_9
REMARK    4  A    between atoms: N_9  and  S_10
REMARK    5  A    between atoms: S_10  and  C_13
REMARK    6  A    between atoms: C_15  and  C_19
REMARK                            x       y       z     vdW  Elec       q    Type
REMARK                         _______ _______ _______ _____ _____    ______ ____
ROOT
ATOM      1  S   UNL     1      -1.709   0.986   4.354  0.00  0.00    +0.063 S 
ATOM      2  O   UNL     1      -3.080   1.358   4.338  0.00  0.00    -0.153 OA
ATOM      3  O   UNL     1      -1.197   0.003   5.244  0.00  0.00    -0.153 OA
ENDROOT
BRANCH   1   4
ATOM      4  C   UNL     1      -0.791   2.460   4.650  0.00  0.00    +0.158 A 
ATOM      5  C   UNL     1      -1.319   3.740   4.859  0.00  0.00    +0.086 A 
ATOM      6  C   UNL     1      -0.244   4.583   5.049  0.00  0.00    +0.219 A 
ATOM      7  O   UNL     1       0.882   3.844   4.957  0.00  0.00    -0.439 OA
ATOM      8  C   UNL     1       0.557   2.566   4.722  0.00  0.00    +0.197 A 
ATOM      9 BR   UNL     1       1.784   1.141   4.521  0.00  0.00    -0.006 Br
BRANCH   6  10
ATOM     10  C   UNL     1      -0.310   5.977   5.295  0.00  0.00    +0.421 C 
ATOM     11  O   UNL     1      -1.397   6.538   5.357  0.00  0.00    -0.237 OA
ATOM     12  O   UNL     1       0.721   6.622   5.448  0.00  0.00    -0.237 OA
ENDBRANCH   6  10
ENDBRANCH   1   4
BRANCH   1  13
ATOM     13  N   UNL     1      -1.338   0.477   2.823  0.00  0.00    -0.185 NA
ATOM     14  H   UNL     1      -2.023   0.464   2.136  0.00  0.00    +0.148 HD
BRANCH  13  15
ATOM     15  C   UNL     1       0.025   0.045   2.504  0.00  0.00    +0.141 C 
BRANCH  15  22
ATOM     16  C   UNL     1      -0.018   1.503   0.010  0.00  0.00    +0.044 C 
ATOM     17  C   UNL     1       0.002  -0.004   0.002  0.00  0.00    -0.046 A 
ATOM     18  C   UNL     1       0.006  -0.689  -1.199  0.00  0.00    +0.003 A 
ATOM     19  C   UNL     1       0.025  -2.071  -1.207  0.00  0.00    +0.000 A 
ATOM     20  C   UNL     1       0.040  -2.768  -0.013  0.00  0.00    +0.000 A 
ATOM     21  C   UNL     1       0.037  -2.084   1.188  0.00  0.00    +0.005 A 
ATOM     22  C   UNL     1       0.023  -0.702   1.195  0.00  0.00    -0.029 A 
ENDBRANCH  15  22
ENDBRANCH  13  15
ENDBRANCH   1  13
TORSDOF 5
