REMARK  Name = ZINC13431685
REMARK  5 active torsions:
REMARK  status: ('A' for Active; 'I' for Inactive)
REMARK    1  A    between atoms: C_1  and  C_2
REMARK    2  A    between atoms: C_8  and  C_14
REMARK    3  A    between atoms: C_11  and  C_13
REMARK    4  A    between atoms: N_16  and  C_17
REMARK    5  A    between atoms: C_22  and  C_23
REMARK                            x       y       z     vdW  Elec       q    Type
REMARK                         _______ _______ _______ _____ _____    ______ ____
ROOT
ATOM      1  C   UNL     1      -1.204   3.382   0.124  0.00  0.00    +0.252 C 
ATOM      2  O   UNL     1      -0.157   4.000   0.109  0.00  0.00    -0.270 OA
ATOM      3  N   UNL     1      -1.195   2.038   0.026  0.00  0.00    -0.281 N 
ATOM      4  H   UNL     1      -2.032   1.550  -0.026  0.00  0.00    +0.155 HD
ENDROOT
BRANCH   1  11
ATOM      5  C   UNL     1      -3.545   8.162   1.969  0.00  0.00    +0.016 C 
ATOM      6  C   UNL     1      -3.419   7.646   0.534  0.00  0.00    +0.060 C 
ATOM      7  C   UNL     1      -3.715   6.160   0.465  0.00  0.00    +0.001 A 
ATOM      8  C   UNL     1      -4.896   5.451   0.485  0.00  0.00    +0.007 A 
ATOM      9  C   UNL     1      -4.884   4.068   0.388  0.00  0.00    +0.001 A 
ATOM     10  C   UNL     1      -3.686   3.397   0.270  0.00  0.00    +0.017 A 
ATOM     11  C   UNL     1      -2.484   4.104   0.251  0.00  0.00    +0.079 A 
ATOM     12  C   UNL     1      -2.494   5.507   0.360  0.00  0.00    +0.137 A 
ATOM     13  O   UNL     1      -1.460   6.387   0.388  0.00  0.00    -0.487 OA
ATOM     14  C   UNL     1      -1.947   7.701   0.069  0.00  0.00    +0.178 C 
ATOM     15  C   UNL     1      -1.165   8.771   0.835  0.00  0.00    +0.052 C 
ENDBRANCH   1  11
BRANCH   3  16
ATOM     16  C   UNL     1       0.016   1.350  -0.001  0.00  0.00    +0.052 A 
ATOM     17  C   UNL     1       1.116   1.903  -0.637  0.00  0.00    +0.073 A 
ATOM     18  C   UNL     1       2.321   1.217  -0.670  0.00  0.00    +0.164 A 
ATOM     19  C   UNL     1       2.433  -0.034  -0.061  0.00  0.00    +0.163 A 
ATOM     20  C   UNL     1       1.344  -0.595   0.574  0.00  0.00    +0.066 A 
ATOM     21  C   UNL     1       0.124   0.090   0.610  0.00  0.00    +0.088 A 
ATOM     22  O   UNL     1       3.613  -0.714  -0.082  0.00  0.00    -0.485 OA
ATOM     23  C   UNL     1       4.583  -0.291  -1.046  0.00  0.00    +0.270 C 
ATOM     24  C   UNL     1       4.676   1.240  -0.994  0.00  0.00    +0.270 C 
ATOM     25  O   UNL     1       3.386   1.778  -1.303  0.00  0.00    -0.485 OA
BRANCH  21  26
ATOM     26  C   UNL     1      -1.039  -0.506   1.285  0.00  0.00    +0.388 C 
ATOM     27  O   UNL     1      -2.119   0.049   1.238  0.00  0.00    -0.241 OA
ATOM     28  O   UNL     1      -0.906  -1.668   1.956  0.00  0.00    -0.241 OA
ENDBRANCH  21  26
ENDBRANCH   3  16
TORSDOF 3
