REMARK  Name = ZINC67039453
REMARK  5 active torsions:
REMARK  status: ('A' for Active; 'I' for Inactive)
REMARK    1  A    between atoms: C_8  and  C_11
REMARK    2  A    between atoms: C_11  and  N_12
REMARK    3  A    between atoms: C_13  and  C_15
REMARK    4  A    between atoms: N_18  and  C_20
REMARK    5  A    between atoms: C_23  and  N_26
REMARK                            x       y       z     vdW  Elec       q    Type
REMARK                         _______ _______ _______ _____ _____    ______ ____
ROOT
ATOM      1  N   UNL     1       5.193  -3.271   0.115  0.00  0.00    -0.307 N 
ATOM      2  C   UNL     1       6.058  -4.168  -0.397  0.00  0.00    +0.264 C 
ATOM      3  O   UNL     1       5.688  -4.949  -1.252  0.00  0.00    -0.268 OA
ATOM      4  H   UNL     1       5.488  -2.647   0.798  0.00  0.00    +0.149 HD
ENDROOT
BRANCH   2   5
ATOM      5  C   UNL     1       7.455  -4.203   0.080  0.00  0.00    +0.147 A 
ATOM      6  C   UNL     1       8.474  -5.079  -0.365  0.00  0.00    +0.054 A 
ATOM      7  C   UNL     1       9.576  -4.745   0.346  0.00  0.00    +0.115 A 
ATOM      8  N   UNL     1       9.226  -3.723   1.170  0.00  0.00    -0.239 N 
ATOM      9  N   UNL     1       7.989  -3.420   0.996  0.00  0.00    -0.162 NA
BRANCH   8  10
ATOM     10  C   UNL     1      10.088  -3.090   2.075  0.00  0.00    +0.065 A 
ATOM     11  C   UNL     1      11.413  -3.494   2.173  0.00  0.00    +0.030 A 
ATOM     12  C   UNL     1      12.260  -2.868   3.065  0.00  0.00    +0.035 A 
ATOM     13  C   UNL     1      11.791  -1.839   3.861  0.00  0.00    +0.126 A 
ATOM     14  C   UNL     1      10.472  -1.434   3.766  0.00  0.00    +0.035 A 
ATOM     15  C   UNL     1       9.621  -2.052   2.871  0.00  0.00    +0.030 A 
BRANCH  13  16
ATOM     16  N   UNL     1      12.702  -1.169   4.816  0.00  0.00    +0.056 N 
ATOM     17  O   UNL     1      13.855  -1.523   4.901  0.00  0.00    -0.126 OA
ATOM     18  O   UNL     1      12.293  -0.270   5.513  0.00  0.00    -0.126 OA
ENDBRANCH  13  16
ENDBRANCH   8  10
ENDBRANCH   2   5
BRANCH   1  19
ATOM     19  C   UNL     1       3.807  -3.236  -0.358  0.00  0.00    +0.149 C 
BRANCH  19  27
ATOM     20  C   UNL     1      -0.017   1.379   0.010  0.00  0.00    +0.000 A 
ATOM     21  C   UNL     1       1.174   2.082   0.002  0.00  0.00    +0.004 A 
ATOM     22  C   UNL     1       2.379   1.411  -0.017  0.00  0.00    +0.046 A 
ATOM     23  C   UNL     1       2.407   0.019  -0.028  0.00  0.00    +0.124 A 
ATOM     24  C   UNL     1       1.204  -0.676  -0.013  0.00  0.00    -0.002 A 
ATOM     25  C   UNL     1       0.002  -0.004   0.002  0.00  0.00    +0.007 A 
ATOM     26  C   UNL     1       1.545  -2.154  -0.005  0.00  0.00    +0.085 C 
ATOM     27  C   UNL     1       3.043  -2.135   0.380  0.00  0.00    +0.195 C 
ATOM     28  O   UNL     1       3.468  -0.833  -0.059  0.00  0.00    -0.487 OA
ENDBRANCH  19  27
ENDBRANCH   1  19
TORSDOF 5
