REMARK  Name = ZINC45748218
REMARK  4 active torsions:
REMARK  status: ('A' for Active; 'I' for Inactive)
REMARK    1  A    between atoms: C_1  and  C_2
REMARK    2  A    between atoms: C_4  and  C_14
REMARK    3  A    between atoms: N_16  and  C_17
REMARK    4  A    between atoms: C_17  and  C_18
REMARK                            x       y       z     vdW  Elec       q    Type
REMARK                         _______ _______ _______ _____ _____    ______ ____
ROOT
ATOM      1  C   UNL     1      -2.019  -0.054   1.450  0.00  0.00    +0.258 C 
ATOM      2  O   UNL     1      -2.214  -0.833   2.359  0.00  0.00    -0.272 OA
ATOM      3  N   UNL     1      -2.334   1.248   1.600  0.00  0.00    -0.308 N 
ATOM      4  H   UNL     1      -2.247   1.857   0.850  0.00  0.00    +0.149 HD
ENDROOT
BRANCH   1   7
ATOM      5  C   UNL     1      -0.003   1.516   0.022  0.00  0.00    +0.056 C 
ATOM      6  C   UNL     1       0.007  -0.013   0.009  0.00  0.00    +0.220 C 
ATOM      7  C   UNL     1      -1.426  -0.542   0.154  0.00  0.00    +0.299 C 
ATOM      8  O   UNL     1      -1.379  -1.973   0.151  0.00  0.00    -0.472 OA
ATOM      9  C   UNL     1      -0.435  -2.554   0.941  0.00  0.00    +0.163 A 
ATOM     10  C   UNL     1      -0.557  -3.896   1.271  0.00  0.00    +0.049 A 
ATOM     11  C   UNL     1       0.395  -4.502   2.069  0.00  0.00    +0.004 A 
ATOM     12  C   UNL     1       1.472  -3.773   2.539  0.00  0.00    +0.004 A 
ATOM     13  C   UNL     1       1.598  -2.435   2.215  0.00  0.00    +0.049 A 
ATOM     14  C   UNL     1       0.645  -1.821   1.417  0.00  0.00    +0.163 A 
ATOM     15  O   UNL     1       0.779  -0.501   1.112  0.00  0.00    -0.481 OA
ENDBRANCH   1   7
BRANCH   3  16
ATOM     16  C   UNL     1      -2.806   1.744   2.895  0.00  0.00    +0.141 C 
BRANCH  16  17
ATOM     17  C   UNL     1      -3.087   3.221   2.796  0.00  0.00    -0.012 A 
ATOM     18  C   UNL     1      -2.159   4.133   3.262  0.00  0.00    +0.006 A 
ATOM     19  C   UNL     1      -2.416   5.489   3.171  0.00  0.00    +0.000 A 
ATOM     20  C   UNL     1      -3.601   5.932   2.614  0.00  0.00    +0.001 A 
ATOM     21  C   UNL     1      -4.529   5.021   2.148  0.00  0.00    +0.020 A 
ATOM     22  C   UNL     1      -4.270   3.664   2.234  0.00  0.00    +0.046 A 
ATOM     23 CL   UNL     1      -5.433   2.519   1.643  0.00  0.00    -0.083 Cl
ENDBRANCH  16  17
ENDBRANCH   3  16
TORSDOF 3
