REMARK  Name = ZINC66618059
REMARK  8 active torsions:
REMARK  status: ('A' for Active; 'I' for Inactive)
REMARK    1  A    between atoms: C_1  and  C_2
REMARK    2  A    between atoms: C_5  and  C_9
REMARK    3  A    between atoms: C_6  and  C_8
REMARK    4  A    between atoms: C_9  and  C_10
REMARK    5  A    between atoms: C_10  and  C_12
REMARK    6  A    between atoms: C_10  and  N_13
REMARK    7  A    between atoms: C_20  and  C_22
REMARK    8  A    between atoms: C_24  and  C_27
REMARK                            x       y       z     vdW  Elec       q    Type
REMARK                         _______ _______ _______ _____ _____    ______ ____
ROOT
ATOM      1  N   UNL     1      -2.143  -4.420  -1.074  0.00  0.00    -0.296 N 
ATOM      2  C   UNL     1      -3.484  -4.311  -0.997  0.00  0.00    +0.303 C 
ATOM      3  O   UNL     1      -4.053  -4.532   0.055  0.00  0.00    -0.253 OA
ATOM      4  N   UNL     1      -4.196  -3.958  -2.086  0.00  0.00    -0.275 N 
ATOM      5  C   UNL     1      -3.638  -3.669  -3.420  0.00  0.00    +0.110 C 
ATOM      6  C   UNL     1      -4.806  -3.933  -4.403  0.00  0.00    +0.021 C 
ATOM      7  C   UNL     1      -6.021  -3.414  -3.590  0.00  0.00    +0.032 C 
ATOM      8  C   UNL     1      -5.657  -3.802  -2.142  0.00  0.00    +0.146 C 
ATOM      9  H   UNL     1      -1.690  -4.245  -1.914  0.00  0.00    +0.151 HD
ENDROOT
BRANCH   8  10
ATOM     10  C   UNL     1      -6.092  -2.712  -1.197  0.00  0.00    +0.158 A 
ATOM     11  C   UNL     1      -7.198  -2.727  -0.427  0.00  0.00    +0.072 A 
ATOM     12  C   UNL     1      -7.237  -1.526   0.304  0.00  0.00    +0.081 A 
ATOM     13  N   UNL     1      -6.191  -0.821  -0.019  0.00  0.00    -0.083 NA
ATOM     14  O   UNL     1      -5.444  -1.560  -0.970  0.00  0.00    -0.357 OA
ATOM     15  C   UNL     1      -8.305  -1.126   1.290  0.00  0.00    +0.069 C 
ENDBRANCH   8  10
BRANCH   1  16
ATOM     16  C   UNL     1      -1.370  -4.804   0.109  0.00  0.00    +0.076 C 
ATOM     17  C   UNL     1      -1.341  -6.330   0.226  0.00  0.00    +0.028 C 
BRANCH  16  18
ATOM     18  C   UNL     1       0.059  -4.275  -0.021  0.00  0.00    +0.057 C 
BRANCH  18  23
ATOM     19  C   UNL     1      -0.018   1.503   0.010  0.00  0.00    +0.044 C 
ATOM     20  C   UNL     1       0.002  -0.004   0.002  0.00  0.00    -0.050 A 
ATOM     21  C   UNL     1       0.006  -0.689  -1.199  0.00  0.00    +0.003 A 
ATOM     22  C   UNL     1       0.025  -2.071  -1.207  0.00  0.00    +0.004 A 
ATOM     23  C   UNL     1       0.040  -2.768  -0.013  0.00  0.00    -0.043 A 
ATOM     24  C   UNL     1       0.037  -2.084   1.188  0.00  0.00    -0.047 A 
ATOM     25  C   UNL     1       0.023  -0.702   1.195  0.00  0.00    +0.007 A 
ATOM     26  C   UNL     1       0.054  -2.845   2.489  0.00  0.00    +0.044 C 
ENDBRANCH  18  23
ENDBRANCH  16  18
ENDBRANCH   1  16
TORSDOF 4
