REMARK  Name = ZINC04578224
REMARK  1 active torsions:
REMARK  status: ('A' for Active; 'I' for Inactive)
REMARK    1  A    between atoms: C_1  and  C_2
REMARK                            x       y       z     vdW  Elec       q    Type
REMARK                         _______ _______ _______ _____ _____    ______ ____
ROOT
ATOM      1  C   UNL     1      -1.623   3.605   2.431  0.00  0.00    +0.039 C 
ATOM      2  C   UNL     1      -0.827   3.108   1.222  0.00  0.00    +0.138 C 
ATOM      3  C   UNL     1      -0.731   1.581   1.266  0.00  0.00    +0.062 C 
ATOM      4  C   UNL     1      -0.013   1.086   0.008  0.00  0.00    +0.184 C 
ATOM      5  O   UNL     1      -0.706   1.560  -1.149  0.00  0.00    -0.268 OA
ATOM      6  S   UNL     1      -0.770   3.078  -1.252  0.00  0.00    +0.306 S 
ATOM      7  O   UNL     1      -1.721   3.312  -2.281  0.00  0.00    -0.196 OA
ATOM      8  O   UNL     1      -1.489   3.505   0.019  0.00  0.00    -0.265 OA
ENDROOT
TORSDOF 0
