REMARK  Name = ZINC32416845
REMARK  9 active torsions:
REMARK  status: ('A' for Active; 'I' for Inactive)
REMARK    1  A    between atoms: C_1  and  C_2
REMARK    2  A    between atoms: C_2  and  C_3
REMARK    3  A    between atoms: C_3  and  N_4
REMARK    4  A    between atoms: C_9  and  C_11
REMARK    5  A    between atoms: N_13  and  C_14
REMARK    6  A    between atoms: C_20  and  C_22
REMARK    7  A    between atoms: C_22  and  C_23
REMARK    8  A    between atoms: C_22  and  C_24
REMARK    9  A    between atoms: C_22  and  C_25
REMARK                            x       y       z     vdW  Elec       q    Type
REMARK                         _______ _______ _______ _____ _____    ______ ____
ROOT
ATOM      1  C   UNL     1       3.290  -4.835   0.086  0.00  0.00    +0.264 C 
ATOM      2  O   UNL     1       3.527  -6.014   0.266  0.00  0.00    -0.268 OA
ATOM      3  N   UNL     1       4.168  -3.901   0.503  0.00  0.00    -0.307 N 
ATOM      4  H   UNL     1       3.979  -2.960   0.360  0.00  0.00    +0.149 HD
ENDROOT
BRANCH   1  10
ATOM      5  N   UNL     1       0.715  -2.745  -1.362  0.00  0.00    -0.229 N 
ATOM      6  C   UNL     1      -0.217  -3.606  -1.811  0.00  0.00    +0.267 A 
ATOM      7  O   UNL     1      -1.224  -3.189  -2.359  0.00  0.00    -0.266 OA
ATOM      8  C   UNL     1      -0.022  -4.995  -1.644  0.00  0.00    +0.074 A 
ATOM      9  C   UNL     1       1.120  -5.409  -1.026  0.00  0.00    +0.040 A 
ATOM     10  C   UNL     1       2.040  -4.426  -0.589  0.00  0.00    +0.146 A 
ATOM     11  N   UNL     1       1.789  -3.151  -0.786  0.00  0.00    -0.164 NA
BRANCH   5  12
ATOM     12  C   UNL     1       0.503  -1.307  -1.540  0.00  0.00    +0.147 C 
BRANCH  12  14
ATOM     13  C   UNL     1      -0.457   0.757  -0.509  0.00  0.00    +0.005 C 
ATOM     14  C   UNL     1      -0.235  -0.746  -0.323  0.00  0.00    +0.020 C 
ENDBRANCH  12  14
ENDBRANCH   5  12
ENDBRANCH   1  10
BRANCH   3  15
ATOM     15  C   UNL     1       5.406  -4.306   1.173  0.00  0.00    +0.077 C 
ATOM     16  C   UNL     1       6.508  -4.505   0.130  0.00  0.00    +0.022 C 
ATOM     17  C   UNL     1       6.740  -3.194  -0.624  0.00  0.00    +0.002 C 
ATOM     18  C   UNL     1       7.165  -2.106   0.365  0.00  0.00    +0.000 C 
ATOM     19  C   UNL     1       6.063  -1.907   1.408  0.00  0.00    +0.006 C 
ATOM     20  C   UNL     1       5.831  -3.218   2.161  0.00  0.00    +0.015 C 
BRANCH  20  21
ATOM     21  C   UNL     1       4.729  -3.019   3.204  0.00  0.00    -0.033 C 
ATOM     22  C   UNL     1       4.395  -4.362   3.856  0.00  0.00    +0.011 C 
ATOM     23  C   UNL     1       5.212  -2.039   4.275  0.00  0.00    +0.011 C 
ATOM     24  C   UNL     1       3.479  -2.457   2.525  0.00  0.00    +0.011 C 
ENDBRANCH  20  21
ENDBRANCH   3  15
TORSDOF 5
