REMARK  Name = ZINC12600472
REMARK  4 active torsions:
REMARK  status: ('A' for Active; 'I' for Inactive)
REMARK    1  A    between atoms: N_7  and  C_12
REMARK    2  A    between atoms: C_12  and  C_13
REMARK    3  A    between atoms: C_13  and  C_14
REMARK    4  A    between atoms: N_16  and  C_17
REMARK                            x       y       z     vdW  Elec       q    Type
REMARK                         _______ _______ _______ _____ _____    ______ ____
ROOT
ATOM      1  C   UNL     1      -3.601   1.693   0.129  0.00  0.00    +0.219 C 
ATOM      2  O   UNL     1      -3.621   2.905   0.137  0.00  0.00    -0.275 OA
ATOM      3  N   UNL     1      -2.428   1.038   0.018  0.00  0.00    -0.285 N 
ATOM      4  H   UNL     1      -2.418   0.072  -0.065  0.00  0.00    +0.155 HD
ENDROOT
BRANCH   3   5
ATOM      5  C   UNL     1      -1.224   1.754   0.023  0.00  0.00    +0.037 A 
ATOM      6  C   UNL     1      -0.148   1.309  -0.734  0.00  0.00    +0.027 A 
ATOM      7  C   UNL     1       1.043   2.009  -0.725  0.00  0.00    +0.051 A 
ATOM      8  C   UNL     1       1.165   3.160   0.034  0.00  0.00    +0.167 A 
ATOM      9  C   UNL     1       0.084   3.614   0.790  0.00  0.00    +0.169 A 
ATOM     10  C   UNL     1      -1.108   2.912   0.781  0.00  0.00    +0.072 A 
ATOM     11  O   UNL     1       0.465   4.759   1.440  0.00  0.00    -0.447 OA
ATOM     12  C   UNL     1       1.581   5.232   0.672  0.00  0.00    +0.254 C 
ATOM     13  O   UNL     1       2.212   4.027   0.216  0.00  0.00    -0.448 OA
ATOM     14  C   UNL     1       2.533   6.069   1.533  0.00  0.00    +0.093 C 
ATOM     15  C   UNL     1       3.061   7.155   0.559  0.00  0.00    +0.008 C 
ATOM     16  C   UNL     1       1.818   7.473  -0.310  0.00  0.00    +0.008 C 
ATOM     17  C   UNL     1       1.126   6.104  -0.498  0.00  0.00    +0.093 C 
ENDBRANCH   3   5
BRANCH   1  18
ATOM     18  C   UNL     1      -4.888   0.917   0.243  0.00  0.00    +0.115 C 
BRANCH  18  19
ATOM     19  C   UNL     1      -6.062   1.892   0.356  0.00  0.00    +0.123 C 
BRANCH  19  26
ATOM     20  C   UNL     1      -8.177   0.492  -3.055  0.00  0.00    +0.002 A 
ATOM     21  C   UNL     1      -9.489   0.077  -2.928  0.00  0.00    +0.004 A 
ATOM     22  C   UNL     1     -10.077   0.003  -1.682  0.00  0.00    +0.047 A 
ATOM     23  C   UNL     1      -9.356   0.359  -0.555  0.00  0.00    +0.142 A 
ATOM     24  C   UNL     1      -8.035   0.783  -0.682  0.00  0.00    +0.078 A 
ATOM     25  C   UNL     1      -7.447   0.846  -1.935  0.00  0.00    +0.027 A 
ATOM     26  N   UNL     1      -7.314   1.138   0.467  0.00  0.00    -0.265 N 
ATOM     27  C   UNL     1      -7.793   0.780   1.677  0.00  0.00    +0.258 C 
ATOM     28  O   UNL     1      -7.204   1.106   2.687  0.00  0.00    -0.272 OA
ATOM     29  C   UNL     1      -9.063  -0.028   1.770  0.00  0.00    +0.325 C 
ATOM     30  O   UNL     1      -9.925   0.305   0.678  0.00  0.00    -0.481 OA
ENDBRANCH  19  26
ENDBRANCH  18  19
ENDBRANCH   1  18
TORSDOF 4
