REMARK  Name = ZINC52808189
REMARK  10 active torsions:
REMARK  status: ('A' for Active; 'I' for Inactive)
REMARK    1  A    between atoms: C_1  and  O_2
REMARK    2  A    between atoms: O_2  and  C_3
REMARK    3  A    between atoms: C_3  and  C_4
REMARK    4  A    between atoms: C_4  and  C_5
REMARK    5  A    between atoms: C_5  and  C_7
REMARK    6  A    between atoms: C_5  and  N_22
REMARK    7  A    between atoms: N_9  and  C_10
REMARK    8  A    between atoms: C_11  and  C_18
REMARK    9  A    between atoms: C_18  and  O_20
REMARK   10  A    between atoms: O_20  and  C_21
REMARK                            x       y       z     vdW  Elec       q    Type
REMARK                         _______ _______ _______ _____ _____    ______ ____
ROOT
ATOM      1  C   UNL     1      -2.970  -4.239   0.436  0.00  0.00    +0.203 C 
ATOM      2  O   UNL     1      -3.620  -4.918  -0.331  0.00  0.00    -0.277 OA
ATOM      3  N   UNL     1      -2.152  -4.829   1.331  0.00  0.00    -0.285 N 
ATOM      4  H   UNL     1      -1.573  -4.287   1.889  0.00  0.00    +0.155 HD
ENDROOT
BRANCH   3   5
ATOM      5  C   UNL     1      -2.138  -6.216   1.453  0.00  0.00    +0.062 A 
ATOM      6  C   UNL     1      -2.333  -6.816   2.706  0.00  0.00    +0.082 A 
ATOM      7  C   UNL     1      -2.317  -8.209   2.816  0.00  0.00    +0.032 A 
ATOM      8  C   UNL     1      -2.109  -8.984   1.695  0.00  0.00    +0.020 A 
ATOM      9  C   UNL     1      -1.916  -8.389   0.458  0.00  0.00    +0.032 A 
ATOM     10  C   UNL     1      -1.936  -7.014   0.333  0.00  0.00    +0.041 A 
ATOM     11 BR   UNL     1      -1.680  -6.215  -1.361  0.00  0.00    -0.048 Br
ATOM     12 BR   UNL     1      -2.087 -10.869   1.845  0.00  0.00    -0.050 Br
BRANCH   6  13
ATOM     13  C   UNL     1      -2.554  -5.981   3.901  0.00  0.00    +0.341 C 
ATOM     14  O   UNL     1      -2.667  -4.776   3.788  0.00  0.00    -0.245 OA
BRANCH  13  15
ATOM     15  O   UNL     1      -2.631  -6.554   5.118  0.00  0.00    -0.464 OA
ATOM     16  C   UNL     1      -2.846  -5.684   6.232  0.00  0.00    +0.280 C 
ENDBRANCH  13  15
ENDBRANCH   6  13
ENDBRANCH   3   5
BRANCH   1  17
ATOM     17  C   UNL     1      -3.078  -2.737   0.389  0.00  0.00    +0.015 C 
BRANCH  17  18
ATOM     18  N   UNL     1      -4.325  -2.356  -0.286  0.00  0.00    +0.386 N 
ATOM     19  H   UNL     1      -4.397  -1.350  -0.317  0.00  0.00    -0.089 HD
ATOM     20  H   UNL     1      -4.325  -2.723  -1.226  0.00  0.00    -0.089 HD
ATOM     21  H   UNL     1      -5.111  -2.734   0.222  0.00  0.00    -0.089 HD
ENDBRANCH  17  18
BRANCH  17  22
ATOM     22  C   UNL     1      -1.886  -2.164  -0.381  0.00  0.00    +0.021 C 
BRANCH  22  23
ATOM     23  C   UNL     1      -1.928  -0.636  -0.322  0.00  0.00    +0.158 C 
BRANCH  23  25
ATOM     24  C   UNL     1      -0.759   1.327  -1.049  0.00  0.00    +0.193 C 
ATOM     25  O   UNL     1      -0.815  -0.101  -1.042  0.00  0.00    -0.383 OA
ENDBRANCH  23  25
ENDBRANCH  22  23
ENDBRANCH  17  22
ENDBRANCH   1  17
TORSDOF 8
