REMARK  Name = ZINC08963169
REMARK  9 active torsions:
REMARK  status: ('A' for Active; 'I' for Inactive)
REMARK    1  A    between atoms: C_1  and  N_2
REMARK    2  A    between atoms: C_9  and  C_11
REMARK    3  A    between atoms: C_11  and  C_13
REMARK    4  A    between atoms: C_11  and  N_51
REMARK    5  A    between atoms: C_13  and  N_14
REMARK    6  A    between atoms: C_15  and  C_17
REMARK    7  A    between atoms: C_21  and  N_23
REMARK    8  A    between atoms: C_27  and  N_51
REMARK    9  A    between atoms: C_28  and  N_51
REMARK                            x       y       z     vdW  Elec       q    Type
REMARK                         _______ _______ _______ _____ _____    ______ ____
ROOT
ATOM      1  C   UNL     1      -0.088   1.449   0.012  0.00  0.00    -0.021 C 
ENDROOT
BRANCH   1  10
ATOM      2  C   UNL     1      -2.163   6.060  -4.015  0.00  0.00    +0.129 C 
ATOM      3  N   UNL     1      -2.615   4.665  -3.915  0.00  0.00    -0.332 N 
ATOM      4  C   UNL     1      -2.294   3.915  -5.148  0.00  0.00    +0.109 C 
ATOM      5  C   UNL     1      -2.069   2.479  -4.621  0.00  0.00    +0.056 C 
ATOM      6  C   UNL     1      -1.653   2.710  -3.182  0.00  0.00    -0.025 A 
ATOM      7  C   UNL     1      -1.996   4.013  -2.841  0.00  0.00    +0.033 A 
ATOM      8  C   UNL     1      -1.705   4.477  -1.560  0.00  0.00    +0.023 A 
ATOM      9  C   UNL     1      -1.095   3.646  -0.643  0.00  0.00    +0.004 A 
ATOM     10  C   UNL     1      -0.757   2.352  -0.992  0.00  0.00    -0.059 A 
ATOM     11  C   UNL     1      -1.039   1.885  -2.264  0.00  0.00    +0.007 A 
ENDBRANCH   1  10
BRANCH   1  14
ATOM     12  C   UNL     1      -0.895   2.282   2.138  0.00  0.00    -0.096 C 
ATOM     13  C   UNL     1      -2.384   1.058   0.673  0.00  0.00    -0.096 C 
ATOM     14  N   UNL     1      -0.992   1.185   1.151  0.00  0.00    +0.382 N 
ATOM     15  H   UNL     1      -0.712   0.306   1.602  0.00  0.00    -0.082 HD
ENDBRANCH   1  14
BRANCH   1  16
ATOM     16  C   UNL     1       1.191   2.115   0.524  0.00  0.00    +0.094 C 
BRANCH  16  17
ATOM     17  N   UNL     1       1.778   1.293   1.585  0.00  0.00    -0.313 N 
ATOM     18  C   UNL     1       2.918   1.685   2.189  0.00  0.00    +0.244 C 
ATOM     19  O   UNL     1       3.459   2.720   1.852  0.00  0.00    -0.270 OA
ATOM     20  H   UNL     1       1.346   0.467   1.855  0.00  0.00    +0.149 HD
BRANCH  18  21
ATOM     21  C   UNL     1       3.510   0.857   3.260  0.00  0.00    +0.039 A 
ATOM     22  C   UNL     1       2.887  -0.330   3.653  0.00  0.00    +0.014 A 
ATOM     23  C   UNL     1       3.447  -1.101   4.650  0.00  0.00    +0.023 A 
ATOM     24  C   UNL     1       4.618  -0.695   5.268  0.00  0.00    +0.071 A 
ATOM     25  C   UNL     1       5.237   0.483   4.886  0.00  0.00    +0.145 A 
ATOM     26  C   UNL     1       4.690   1.260   3.886  0.00  0.00    +0.047 A 
ATOM     27 CL   UNL     1       5.313  -1.668   6.527  0.00  0.00    -0.081 Cl
BRANCH  25  28
ATOM     28  N   UNL     1       6.489   0.909   5.551  0.00  0.00    +0.058 N 
ATOM     29  O   UNL     1       7.035   1.945   5.215  0.00  0.00    -0.126 OA
ATOM     30  O   UNL     1       6.973   0.224   6.434  0.00  0.00    -0.126 OA
ENDBRANCH  25  28
ENDBRANCH  18  21
ENDBRANCH  16  17
ENDBRANCH   1  16
TORSDOF 6
