REMARK  Name = ZINC08030187
REMARK  7 active torsions:
REMARK  status: ('A' for Active; 'I' for Inactive)
REMARK    1  A    between atoms: C_1  and  C_2
REMARK    2  A    between atoms: C_5  and  N_9
REMARK    3  A    between atoms: C_6  and  C_8
REMARK    4  A    between atoms: C_10  and  C_12
REMARK    5  A    between atoms: C_12  and  C_14
REMARK    6  A    between atoms: C_12  and  S_15
REMARK    7  A    between atoms: S_15  and  C_16
REMARK                            x       y       z     vdW  Elec       q    Type
REMARK                         _______ _______ _______ _____ _____    ______ ____
ROOT
ATOM      1  N   UNL     1      -1.268  -5.048   0.627  0.00  0.00    -0.284 N 
ATOM      2  C   UNL     1      -1.597  -3.841   0.123  0.00  0.00    +0.230 C 
ATOM      3  O   UNL     1      -2.735  -3.624  -0.235  0.00  0.00    -0.274 OA
ATOM      4  H   UNL     1      -0.343  -5.249   0.839  0.00  0.00    +0.155 HD
ENDROOT
BRANCH   1   9
ATOM      5  C   UNL     1      -5.294  -8.948   1.505  0.00  0.00    +0.044 C 
ATOM      6  C   UNL     1      -4.224  -7.912   1.272  0.00  0.00    -0.050 A 
ATOM      7  C   UNL     1      -4.555  -6.569   1.260  0.00  0.00    +0.005 A 
ATOM      8  C   UNL     1      -3.578  -5.617   1.046  0.00  0.00    +0.024 A 
ATOM      9  C   UNL     1      -2.261  -6.010   0.844  0.00  0.00    +0.036 A 
ATOM     10  C   UNL     1      -1.933  -7.359   0.851  0.00  0.00    -0.029 A 
ATOM     11  C   UNL     1      -2.914  -8.306   1.070  0.00  0.00    +0.008 A 
ATOM     12  C   UNL     1      -0.506  -7.789   0.625  0.00  0.00    +0.045 C 
ENDBRANCH   1   9
BRANCH   2  13
ATOM     13  C   UNL     1      -0.550  -2.763   0.006  0.00  0.00    +0.136 C 
ATOM     14  C   UNL     1       0.218  -2.938  -1.305  0.00  0.00    +0.029 C 
BRANCH  13  15
ATOM     15  S   UNL     1      -1.353  -1.137   0.025  0.00  0.00    -0.084 S 
BRANCH  15  16
ATOM     16  C   UNL     1      -0.009   0.002   0.031  0.00  0.00    +0.161 A 
ATOM     17  N   UNL     1       1.288  -0.236   0.024  0.00  0.00    -0.133 NA
ATOM     18  N   UNL     1       2.177   0.815   0.031  0.00  0.00    -0.125 NA
ATOM     19  C   UNL     1       1.728   2.054   0.045  0.00  0.00    +0.180 A 
ATOM     20  S   UNL     1      -0.039   1.788   0.048  0.00  0.00    -0.025 S 
ATOM     21  N   UNL     1       2.438   3.248   0.054  0.00  0.00    -0.336 N 
ATOM     22  H   UNL     1       1.965   4.095   0.063  0.00  0.00    +0.144 HD
ATOM     23  H   UNL     1       3.408   3.236   0.050  0.00  0.00    +0.144 HD
ENDBRANCH  15  16
ENDBRANCH  13  15
ENDBRANCH   2  13
TORSDOF 4
