REMARK  Name = ZINC36024161
REMARK  4 active torsions:
REMARK  status: ('A' for Active; 'I' for Inactive)
REMARK    1  A    between atoms: C_1  and  C_2
REMARK    2  A    between atoms: N_6  and  C_23
REMARK    3  A    between atoms: C_14  and  C_16
REMARK    4  A    between atoms: C_23  and  C_24
REMARK                            x       y       z     vdW  Elec       q    Type
REMARK                         _______ _______ _______ _____ _____    ______ ____
ROOT
ATOM      1  C   UNL     1       0.165   0.570   0.595  0.00  0.00    -0.004 C 
ATOM      2  C   UNL     1       0.648  -0.882   0.607  0.00  0.00    +0.016 C 
ATOM      3  C   UNL     1       1.179  -1.271  -0.756  0.00  0.00    +0.200 C 
ATOM      4  O   UNL     1       0.654  -1.019  -1.820  0.00  0.00    -0.277 OA
ATOM      5  N   UNL     1       2.337  -1.944  -0.588  0.00  0.00    -0.309 N 
ATOM      6  C   UNL     1       2.638  -2.050   0.843  0.00  0.00    +0.006 C 
ATOM      7  N   UNL     1       1.803  -1.035   1.524  0.00  0.00    +0.401 N 
ATOM      8  C   UNL     1       4.115  -1.758   1.095  0.00  0.00    +0.025 C 
ATOM      9  C   UNL     1       4.971  -2.793   0.356  0.00  0.00    +0.108 C 
ATOM     10  N   UNL     1       4.535  -4.138   0.755  0.00  0.00    -0.297 N 
ATOM     11  C   UNL     1       3.115  -4.490   0.620  0.00  0.00    +0.108 C 
ATOM     12  C   UNL     1       2.276  -3.442   1.357  0.00  0.00    +0.025 C 
ATOM     13  C   UNL     1       5.422  -5.032   1.235  0.00  0.00    +0.248 C 
ATOM     14  O   UNL     1       6.575  -4.701   1.429  0.00  0.00    -0.270 OA
ATOM     15  H   UNL     1       2.305  -0.164   1.614  0.00  0.00    -0.082 HD
ATOM     16  H   UNL     1       1.500  -1.368   2.426  0.00  0.00    -0.082 HD
ENDROOT
BRANCH  13  17
ATOM     17  C   UNL     1       4.992  -6.415   1.527  0.00  0.00    +0.055 A 
ATOM     18  C   UNL     1       4.410  -7.195   0.525  0.00  0.00    +0.014 A 
ATOM     19  C   UNL     1       4.011  -8.485   0.804  0.00  0.00    +0.001 A 
ATOM     20  C   UNL     1       4.186  -9.009   2.074  0.00  0.00    +0.001 A 
ATOM     21  C   UNL     1       4.760  -8.243   3.071  0.00  0.00    +0.021 A 
ATOM     22  C   UNL     1       5.170  -6.951   2.805  0.00  0.00    +0.053 A 
ATOM     23 CL   UNL     1       5.899  -5.994   4.056  0.00  0.00    -0.083 Cl
ENDBRANCH  13  17
BRANCH   5  24
ATOM     24  C   UNL     1       3.165  -2.486  -1.668  0.00  0.00    +0.141 C 
BRANCH  24  25
ATOM     25  C   UNL     1       3.959  -1.372  -2.300  0.00  0.00    -0.026 A 
ATOM     26  C   UNL     1       3.665  -0.958  -3.586  0.00  0.00    +0.009 A 
ATOM     27  C   UNL     1       4.391   0.064  -4.169  0.00  0.00    +0.050 A 
ATOM     28  C   UNL     1       5.415   0.676  -3.465  0.00  0.00    +0.166 A 
ATOM     29  C   UNL     1       5.711   0.260  -2.169  0.00  0.00    +0.167 A 
ATOM     30  C   UNL     1       4.976  -0.761  -1.589  0.00  0.00    +0.054 A 
ATOM     31  O   UNL     1       6.748   1.010  -1.696  0.00  0.00    -0.453 OA
ATOM     32  C   UNL     1       7.350   1.610  -2.858  0.00  0.00    +0.466 C 
ATOM     33  O   UNL     1       6.267   1.688  -3.803  0.00  0.00    -0.453 OA
ENDBRANCH  24  25
ENDBRANCH   5  24
TORSDOF 3
