REMARK  Name = ZINC24567246
REMARK  6 active torsions:
REMARK  status: ('A' for Active; 'I' for Inactive)
REMARK    1  A    between atoms: C_1  and  C_2
REMARK    2  A    between atoms: C_3  and  C_22
REMARK    3  A    between atoms: C_5  and  N_9
REMARK    4  A    between atoms: C_6  and  C_7
REMARK    5  A    between atoms: N_12  and  C_13
REMARK    6  A    between atoms: C_19  and  C_21
REMARK                            x       y       z     vdW  Elec       q    Type
REMARK                         _______ _______ _______ _____ _____    ______ ____
ROOT
ATOM      1  N   UNL     1      -1.920   3.647   2.335  0.00  0.00    -0.263 N 
ATOM      2  C   UNL     1      -1.290   3.212   1.226  0.00  0.00    +0.304 C 
ATOM      3  O   UNL     1      -1.248   3.916   0.235  0.00  0.00    -0.252 OA
ATOM      4  N   UNL     1      -0.704   1.998   1.216  0.00  0.00    -0.296 N 
ATOM      5  H   UNL     1      -1.958   3.011   3.232  0.00  0.00    +0.157 HD
ATOM      6  H   UNL     1      -0.742   1.362   2.112  0.00  0.00    +0.151 HD
ENDROOT
BRANCH   1  11
ATOM      7  C   UNL     1      -4.509   7.594   4.165  0.00  0.00    +0.046 C 
ATOM      8  C   UNL     1      -3.743   6.830   3.117  0.00  0.00    -0.021 A 
ATOM      9  C   UNL     1      -3.524   7.345   1.893  0.00  0.00    -0.007 A 
ATOM     10  S   UNL     1      -2.597   6.066   1.070  0.00  0.00    -0.077 S 
ATOM     11  C   UNL     1      -2.523   4.897   2.346  0.00  0.00    +0.091 A 
ATOM     12  C   UNL     1      -3.218   5.511   3.380  0.00  0.00    +0.083 A 
ATOM     13  C   UNL     1      -3.957   8.683   1.350  0.00  0.00    +0.052 C 
BRANCH  12  14
ATOM     14  C   UNL     1      -3.401   4.869   4.646  0.00  0.00    +0.102 C 
ATOM     15  N   UNL     1      -3.547   4.360   5.651  0.00  0.00    -0.191 NA
ENDBRANCH  12  14
ENDBRANCH   1  11
BRANCH   4  16
ATOM     16  C   UNL     1      -0.019   1.526   0.010  0.00  0.00    +0.077 C 
ATOM     17  C   UNL     1       1.417   2.055  -0.000  0.00  0.00    +0.022 C 
ATOM     18  C   UNL     1       2.133   1.562  -1.259  0.00  0.00    +0.002 C 
ATOM     19  C   UNL     1       2.154   0.032  -1.268  0.00  0.00    +0.000 C 
ATOM     20  C   UNL     1       0.718  -0.497  -1.257  0.00  0.00    +0.005 C 
ATOM     21  C   UNL     1       0.002  -0.004   0.002  0.00  0.00    +0.006 C 
ATOM     22  C   UNL     1      -1.433  -0.534   0.013  0.00  0.00    +0.009 C 
ENDBRANCH   4  16
TORSDOF 3
