REMARK  Name = ZINC46078445
REMARK  10 active torsions:
REMARK  status: ('A' for Active; 'I' for Inactive)
REMARK    1  A    between atoms: C_1  and  C_2
REMARK    2  A    between atoms: C_2  and  C_4
REMARK    3  A    between atoms: C_2  and  N_14
REMARK    4  A    between atoms: C_7  and  O_12
REMARK    5  A    between atoms: C_9  and  O_10
REMARK    6  A    between atoms: O_10  and  C_11
REMARK    7  A    between atoms: O_12  and  C_13
REMARK    8  A    between atoms: N_17  and  N_18
REMARK    9  A    between atoms: N_18  and  C_19
REMARK   10  A    between atoms: C_19  and  C_26
REMARK                            x       y       z     vdW  Elec       q    Type
REMARK                         _______ _______ _______ _____ _____    ______ ____
ROOT
ATOM      1  N   UNL     1       0.711  -0.489   1.189  0.00  0.00    -0.292 N 
ATOM      2  C   UNL     1       2.054  -0.600   1.174  0.00  0.00    +0.314 C 
ATOM      3  O   UNL     1       2.677  -0.297   0.175  0.00  0.00    -0.252 OA
ATOM      4  N   UNL     1       2.706  -1.046   2.266  0.00  0.00    -0.234 N 
ATOM      5  H   UNL     1       0.213  -0.731   1.986  0.00  0.00    +0.151 HD
ATOM      6  H   UNL     1       3.672  -1.126   2.255  0.00  0.00    +0.171 HD
ENDROOT
BRANCH   1   8
ATOM      7  C   UNL     1      -0.019   1.526   0.010  0.00  0.00    +0.033 C 
ATOM      8  C   UNL     1       0.002  -0.004   0.002  0.00  0.00    +0.105 C 
BRANCH   8   9
ATOM      9  C   UNL     1      -1.412  -0.526   0.013  0.00  0.00    +0.014 A 
ATOM     10  C   UNL     1      -2.014  -0.864   1.210  0.00  0.00    +0.012 A 
ATOM     11  C   UNL     1      -3.310  -1.342   1.223  0.00  0.00    +0.046 A 
ATOM     12  C   UNL     1      -4.010  -1.484   0.033  0.00  0.00    +0.124 A 
ATOM     13  C   UNL     1      -3.409  -1.146  -1.169  0.00  0.00    +0.091 A 
ATOM     14  C   UNL     1      -2.110  -0.661  -1.179  0.00  0.00    +0.128 A 
BRANCH  14  15
ATOM     15  O   UNL     1      -1.519  -0.323  -2.355  0.00  0.00    -0.495 OA
ATOM     16  C   UNL     1      -2.297  -0.488  -3.542  0.00  0.00    +0.277 C 
ENDBRANCH  14  15
BRANCH  12  17
ATOM     17  O   UNL     1      -5.285  -1.956   0.047  0.00  0.00    -0.495 OA
ATOM     18  C   UNL     1      -5.841  -2.285   1.321  0.00  0.00    +0.277 C 
ENDBRANCH  12  17
ENDBRANCH   8   9
ENDBRANCH   1   8
BRANCH   4  19
ATOM     19  N   UNL     1       2.005  -1.387   3.388  0.00  0.00    -0.232 NA
ATOM     20  H   UNL     1       1.307  -2.085   3.180  0.00  0.00    +0.145 HD
BRANCH  19  21
ATOM     21  C   UNL     1       2.907  -1.845   4.453  0.00  0.00    +0.054 C 
ATOM     22  C   UNL     1       3.745  -3.006   3.918  0.00  0.00    +0.047 C 
ATOM     23  C   UNL     1       4.157  -3.953   5.080  0.00  0.00    +0.168 C 
ATOM     24  S   UNL     1       2.590  -3.940   6.057  0.00  0.00    -0.029 S 
ATOM     25  O   UNL     1       2.900  -4.049   7.440  0.00  0.00    -0.174 OA
ATOM     26  O   UNL     1       1.666  -4.846   5.471  0.00  0.00    -0.174 OA
ATOM     27  C   UNL     1       2.064  -2.214   5.689  0.00  0.00    +0.189 C 
ATOM     28  C   UNL     1       3.847  -0.697   4.825  0.00  0.00    +0.031 C 
ENDBRANCH  19  21
ENDBRANCH   4  19
TORSDOF 6
