REMARK  Name = ZINC02660859
REMARK  15 active torsions:
REMARK  status: ('A' for Active; 'I' for Inactive)
REMARK    1  A    between atoms: C_1  and  C_2
REMARK    2  A    between atoms: C_2  and  O_3
REMARK    3  A    between atoms: O_3  and  C_4
REMARK    4  A    between atoms: C_4  and  C_6
REMARK    5  A    between atoms: C_7  and  C_36
REMARK    6  A    between atoms: C_8  and  C_31
REMARK    7  A    between atoms: C_10  and  N_11
REMARK    8  A    between atoms: C_12  and  C_14
REMARK    9  A    between atoms: C_14  and  N_15
REMARK   10  A    between atoms: C_20  and  C_27
REMARK   11  A    between atoms: C_23  and  C_25
REMARK   12  A    between atoms: C_23  and  C_26
REMARK   13  A    between atoms: C_31  and  O_33
REMARK   14  A    between atoms: O_33  and  C_34
REMARK   15  A    between atoms: C_34  and  C_35
REMARK                            x       y       z     vdW  Elec       q    Type
REMARK                         _______ _______ _______ _____ _____    ______ ____
ROOT
ATOM      1  N   UNL     1      -3.036  -2.525   2.504  0.00  0.00    -0.278 N 
ATOM      2  C   UNL     1      -3.810  -2.867   3.553  0.00  0.00    +0.236 C 
ATOM      3  O   UNL     1      -4.912  -3.338   3.365  0.00  0.00    -0.274 OA
ATOM      4  H   UNL     1      -2.155  -2.148   2.654  0.00  0.00    +0.155 HD
ENDROOT
BRANCH   1   9
ATOM      5  C   UNL     1      -2.845  -2.417   0.016  0.00  0.00    +0.091 A 
ATOM      6  C   UNL     1      -3.515  -2.699  -1.166  0.00  0.00    -0.014 A 
ATOM      7  C   UNL     1      -4.768  -3.238  -1.040  0.00  0.00    +0.102 A 
ATOM      8  S   UNL     1      -4.978  -3.336   0.726  0.00  0.00    -0.066 S 
ATOM      9  C   UNL     1      -3.498  -2.709   1.216  0.00  0.00    +0.087 A 
ATOM     10  C   UNL     1      -2.898  -2.427  -2.514  0.00  0.00    +0.046 C 
BRANCH   5  11
ATOM     11  C   UNL     1      -1.497  -1.838   0.006  0.00  0.00    +0.342 C 
ATOM     12  O   UNL     1      -0.523  -2.565  -0.007  0.00  0.00    -0.245 OA
BRANCH  11  13
ATOM     13  O   UNL     1      -1.339  -0.499   0.012  0.00  0.00    -0.461 OA
BRANCH  13  15
ATOM     14  C   UNL     1      -0.019   1.526   0.010  0.00  0.00    +0.048 C 
ATOM     15  C   UNL     1       0.002  -0.004   0.002  0.00  0.00    +0.229 C 
ENDBRANCH  13  15
ENDBRANCH  11  13
ENDBRANCH   5  11
BRANCH   7  16
ATOM     16  C   UNL     1      -5.702  -3.634  -2.094  0.00  0.00    +0.346 C 
ATOM     17  O   UNL     1      -5.394  -3.495  -3.263  0.00  0.00    -0.244 OA
BRANCH  16  18
ATOM     18  O   UNL     1      -6.904  -4.152  -1.770  0.00  0.00    -0.461 OA
BRANCH  18  19
ATOM     19  C   UNL     1      -7.766  -4.516  -2.850  0.00  0.00    +0.229 C 
ATOM     20  C   UNL     1      -9.074  -5.081  -2.291  0.00  0.00    +0.048 C 
ENDBRANCH  18  19
ENDBRANCH  16  18
ENDBRANCH   7  16
ENDBRANCH   1   9
BRANCH   2  21
ATOM     21  C   UNL     1      -3.306  -2.665   4.959  0.00  0.00    +0.214 C 
BRANCH  21  22
ATOM     22  N   UNL     1      -4.324  -3.112   5.911  0.00  0.00    -0.215 N 
ATOM     23  C   UNL     1      -5.277  -2.313   6.438  0.00  0.00    +0.247 C 
ATOM     24  O   UNL     1      -5.332  -1.105   6.350  0.00  0.00    -0.273 OA
ATOM     25  C   UNL     1      -6.232  -3.242   7.147  0.00  0.00    +0.113 C 
ATOM     26  C   UNL     1      -6.497  -2.768   8.568  0.00  0.00    +0.038 C 
ATOM     27  C   UNL     1      -7.395  -1.530   8.549  0.00  0.00    -0.011 C 
ATOM     28  C   UNL     1      -8.735  -1.910   7.923  0.00  0.00    +0.009 C 
ATOM     29  C   UNL     1      -8.554  -2.377   6.483  0.00  0.00    -0.032 C 
ATOM     30  C   UNL     1      -7.502  -3.465   6.351  0.00  0.00    +0.041 C 
ATOM     31  C   UNL     1      -9.903  -2.955   6.003  0.00  0.00    +0.011 C 
ATOM     32  C   UNL     1      -8.219  -1.186   5.582  0.00  0.00    +0.011 C 
ATOM     33  C   UNL     1      -7.624  -1.048   9.985  0.00  0.00    +0.007 C 
ATOM     34  N   UNL     1      -5.478  -4.514   7.201  0.00  0.00    -0.285 N 
ATOM     35  C   UNL     1      -4.415  -4.357   6.392  0.00  0.00    +0.310 C 
ATOM     36  O   UNL     1      -3.627  -5.244   6.128  0.00  0.00    -0.252 OA
ATOM     37  H   UNL     1      -5.715  -5.295   7.720  0.00  0.00    +0.151 HD
ENDBRANCH  21  22
ENDBRANCH   2  21
TORSDOF 9
