REMARK  Name = ZINC37791175
REMARK  6 active torsions:
REMARK  status: ('A' for Active; 'I' for Inactive)
REMARK    1  A    between atoms: C_1  and  C_2
REMARK    2  A    between atoms: C_2  and  C_4
REMARK    3  A    between atoms: C_2  and  N_13
REMARK    4  A    between atoms: C_8  and  N_10
REMARK    5  A    between atoms: C_14  and  C_16
REMARK    6  A    between atoms: C_21  and  N_22
REMARK                            x       y       z     vdW  Elec       q    Type
REMARK                         _______ _______ _______ _____ _____    ______ ____
ROOT
ATOM      1  N   UNL     1       0.724  -0.444   1.201  0.00  0.00    -0.305 N 
ATOM      2  C   UNL     1       0.058  -0.615   2.360  0.00  0.00    +0.246 C 
ATOM      3  O   UNL     1      -1.129  -0.357   2.422  0.00  0.00    -0.270 OA
ATOM      4  H   UNL     1       1.671  -0.649   1.151  0.00  0.00    +0.150 HD
ENDROOT
BRANCH   2   5
ATOM      5  C   UNL     1       0.767  -1.113   3.552  0.00  0.00    +0.057 A 
ATOM      6  C   UNL     1       2.099  -1.526   3.456  0.00  0.00    +0.015 A 
ATOM      7  C   UNL     1       2.756  -1.991   4.574  0.00  0.00    +0.001 A 
ATOM      8  C   UNL     1       2.104  -2.051   5.795  0.00  0.00    +0.002 A 
ATOM      9  C   UNL     1       0.790  -1.647   5.907  0.00  0.00    +0.023 A 
ATOM     10  C   UNL     1       0.112  -1.169   4.792  0.00  0.00    +0.037 A 
BRANCH  10  11
ATOM     11  N   UNL     1      -1.209  -0.756   4.902  0.00  0.00    -0.357 N 
ATOM     12  H   UNL     1      -1.706  -0.502   4.109  0.00  0.00    +0.142 HD
ATOM     13  H   UNL     1      -1.635  -0.720   5.773  0.00  0.00    +0.142 HD
ENDBRANCH  10  11
ENDBRANCH   2   5
BRANCH   1  15
ATOM     14  C   UNL     1      -0.021   1.580   0.048  0.00  0.00    +0.033 C 
ATOM     15  C   UNL     1       0.019   0.051   0.016  0.00  0.00    +0.100 C 
BRANCH  15  16
ATOM     16  C   UNL     1       0.740  -0.407  -1.226  0.00  0.00    -0.025 A 
ATOM     17  C   UNL     1       2.122  -0.409  -1.261  0.00  0.00    +0.005 A 
ATOM     18  C   UNL     1       2.783  -0.829  -2.400  0.00  0.00    +0.003 A 
ATOM     19  C   UNL     1       2.062  -1.247  -3.503  0.00  0.00    +0.033 A 
ATOM     20  C   UNL     1       0.681  -1.245  -3.468  0.00  0.00    +0.127 A 
ATOM     21  C   UNL     1       0.019  -0.829  -2.327  0.00  0.00    +0.038 A 
BRANCH  20  22
ATOM     22  N   UNL     1      -0.091  -1.691  -4.649  0.00  0.00    +0.056 N 
ATOM     23  O   UNL     1       0.488  -2.058  -5.646  0.00  0.00    -0.126 OA
ATOM     24  O   UNL     1      -1.299  -1.690  -4.618  0.00  0.00    -0.126 OA
ENDBRANCH  20  22
ENDBRANCH  15  16
ENDBRANCH   1  15
TORSDOF 5
