REMARK  Name = ZINC39669742
REMARK  9 active torsions:
REMARK  status: ('A' for Active; 'I' for Inactive)
REMARK    1  A    between atoms: C_1  and  C_2
REMARK    2  A    between atoms: C_2  and  C_3
REMARK    3  A    between atoms: C_2  and  C_4
REMARK    4  A    between atoms: C_2  and  N_29
REMARK    5  A    between atoms: C_4  and  N_5
REMARK    6  A    between atoms: C_6  and  C_8
REMARK    7  A    between atoms: C_19  and  C_21
REMARK    8  A    between atoms: C_25  and  O_26
REMARK    9  A    between atoms: O_26  and  C_27
REMARK                            x       y       z     vdW  Elec       q    Type
REMARK                         _______ _______ _______ _____ _____    ______ ____
ROOT
ATOM      1  C   UNL     1      -2.356  -4.790  -0.408  0.00  0.00    +0.100 C 
ATOM      2  C   UNL     1      -1.603  -5.373  -1.625  0.00  0.00    +0.121 C 
ATOM      3  N   UNL     1      -2.397  -6.560  -2.022  0.00  0.00    -0.296 N 
ATOM      4  C   UNL     1      -3.807  -6.134  -1.851  0.00  0.00    +0.115 C 
ATOM      5  C   UNL     1      -3.801  -5.291  -0.561  0.00  0.00    -0.004 C 
ATOM      6  C   UNL     1      -4.190  -6.155   0.635  0.00  0.00    -0.010 C 
ATOM      7  C   UNL     1      -5.650  -6.594   0.489  0.00  0.00    -0.082 C 
ATOM      8  N   UNL     1      -6.514  -5.410   0.413  0.00  0.00    +0.379 N 
ATOM      9  C   UNL     1      -6.195  -4.633  -0.791  0.00  0.00    -0.082 C 
ATOM     10  C   UNL     1      -4.758  -4.111  -0.699  0.00  0.00    -0.010 C 
ATOM     11  C   UNL     1      -1.940  -7.756  -2.445  0.00  0.00    +0.251 C 
ATOM     12  O   UNL     1      -0.746  -7.989  -2.434  0.00  0.00    -0.270 OA
ATOM     13  H   UNL     1      -7.479  -5.702   0.378  0.00  0.00    -0.086 HD
ATOM     14  H   UNL     1      -6.368  -4.836   1.230  0.00  0.00    -0.086 HD
ENDROOT
BRANCH  11  15
ATOM     15  C   UNL     1      -2.885  -8.778  -2.917  0.00  0.00    +0.087 A 
ATOM     16  C   UNL     1      -4.035  -8.440  -3.598  0.00  0.00    +0.063 A 
ATOM     17  S   UNL     1      -4.773  -9.911  -3.921  0.00  0.00    -0.081 S 
ATOM     18  C   UNL     1      -3.599 -11.021  -3.175  0.00  0.00    +0.120 A 
ATOM     19  C   UNL     1      -2.650 -10.187  -2.695  0.00  0.00    +0.158 A 
ATOM     20 CL   UNL     1      -3.656 -12.754  -3.091  0.00  0.00    -0.072 Cl
BRANCH  19  21
ATOM     21  O   UNL     1      -1.546 -10.643  -2.040  0.00  0.00    -0.492 OA
ATOM     22  C   UNL     1      -1.648 -10.792  -0.623  0.00  0.00    +0.277 C 
ENDBRANCH  19  21
ENDBRANCH  11  15
BRANCH   1  24
ATOM     23  N   UNL     1      -2.524  -2.580   0.691  0.00  0.00    -0.313 N 
ATOM     24  C   UNL     1      -2.316  -3.284  -0.440  0.00  0.00    +0.218 C 
ATOM     25  O   UNL     1      -2.098  -2.705  -1.483  0.00  0.00    -0.275 OA
ATOM     26  H   UNL     1      -2.699  -3.043   1.525  0.00  0.00    +0.149 HD
BRANCH  23  27
ATOM     27  C   UNL     1      -2.486  -1.116   0.660  0.00  0.00    +0.126 C 
BRANCH  27  29
ATOM     28  C   UNL     1      -1.463  -1.081   2.939  0.00  0.00    +0.029 C 
ATOM     29  C   UNL     1      -2.624  -0.572   2.083  0.00  0.00    +0.032 C 
ATOM     30  C   UNL     1      -2.602   0.957   2.049  0.00  0.00    +0.029 C 
BRANCH  29  31
ATOM     31  N   UNL     1      -3.895  -1.030   2.661  0.00  0.00    -0.291 NA
ATOM     32  C   UNL     1      -5.021  -0.724   1.766  0.00  0.00    +0.113 C 
ATOM     33  C   UNL     1      -6.314  -1.270   2.377  0.00  0.00    +0.175 C 
ATOM     34  O   UNL     1      -6.492  -0.712   3.682  0.00  0.00    -0.377 OA
ATOM     35  C   UNL     1      -5.414  -0.991   4.579  0.00  0.00    +0.175 C 
ATOM     36  C   UNL     1      -4.112  -0.442   3.990  0.00  0.00    +0.113 C 
ENDBRANCH  29  31
ENDBRANCH  27  29
ENDBRANCH  23  27
ENDBRANCH   1  24
TORSDOF 6
