REMARK  Name = ZINC03361130
REMARK  10 active torsions:
REMARK  status: ('A' for Active; 'I' for Inactive)
REMARK    1  A    between atoms: C_4  and  C_7
REMARK    2  A    between atoms: C_7  and  N_8
REMARK    3  A    between atoms: C_9  and  N_32
REMARK    4  A    between atoms: C_10  and  N_17
REMARK    5  A    between atoms: N_17  and  C_18
REMARK    6  A    between atoms: C_18  and  C_19
REMARK    7  A    between atoms: C_19  and  O_20
REMARK    8  A    between atoms: C_21  and  C_23
REMARK    9  A    between atoms: C_23  and  O_24
REMARK   10  A    between atoms: O_24  and  C_25
REMARK                            x       y       z     vdW  Elec       q    Type
REMARK                         _______ _______ _______ _____ _____    ______ ____
ROOT
ATOM      1  N   UNL     1       3.709  -1.893   2.992  0.00  0.00    -0.276 N 
ATOM      2  C   UNL     1       4.321  -0.887   3.704  0.00  0.00    +0.128 A 
ATOM      3  C   UNL     1       5.512  -0.364   3.242  0.00  0.00    +0.140 A 
ATOM      4  C   UNL     1       6.064  -0.877   2.054  0.00  0.00    +0.277 A 
ATOM      5  O   UNL     1       7.115  -0.434   1.624  0.00  0.00    -0.266 OA
ATOM      6  N   UNL     1       5.424  -1.863   1.395  0.00  0.00    -0.273 N 
ATOM      7  H   UNL     1       5.804  -2.218   0.576  0.00  0.00    +0.173 HD
ATOM      8  C   UNL     1       4.267  -2.365   1.863  0.00  0.00    +0.331 A 
ATOM      9  O   UNL     1       3.713  -3.258   1.251  0.00  0.00    -0.246 OA
ENDROOT
BRANCH   3  10
ATOM     10  N   UNL     1       6.163   0.669   3.949  0.00  0.00    -0.259 N 
ATOM     11  C   UNL     1       6.270   1.898   3.402  0.00  0.00    +0.258 C 
ATOM     12  O   UNL     1       5.872   2.096   2.274  0.00  0.00    -0.272 OA
BRANCH  10  13
ATOM     13  C   UNL     1       6.725   0.406   5.277  0.00  0.00    +0.142 C 
BRANCH  13  14
ATOM     14  C   UNL     1       8.146  -0.141   5.130  0.00  0.00    +0.175 C 
BRANCH  14  15
ATOM     15  O   UNL     1       8.986   0.862   4.556  0.00  0.00    -0.393 OA
ATOM     16  H   UNL     1       9.904   0.584   4.434  0.00  0.00    +0.209 HD
ENDBRANCH  14  15
ENDBRANCH  13  14
ENDBRANCH  10  13
BRANCH  11  17
ATOM     17  C   UNL     1       6.883   3.024   4.194  0.00  0.00    +0.325 C 
BRANCH  17  18
ATOM     18  O   UNL     1       6.883   4.216   3.405  0.00  0.00    -0.483 OA
BRANCH  18  19
ATOM     19  C   UNL     1       7.406   5.333   3.976  0.00  0.00    +0.121 A 
ATOM     20  C   UNL     1       7.913   5.282   5.266  0.00  0.00    +0.047 A 
ATOM     21  C   UNL     1       8.444   6.419   5.844  0.00  0.00    +0.023 A 
ATOM     22  C   UNL     1       8.469   7.608   5.137  0.00  0.00    +0.041 A 
ATOM     23  C   UNL     1       7.963   7.661   3.851  0.00  0.00    +0.023 A 
ATOM     24  C   UNL     1       7.437   6.525   3.267  0.00  0.00    +0.047 A 
ATOM     25 CL   UNL     1       9.136   9.036   5.866  0.00  0.00    -0.084 Cl
ENDBRANCH  18  19
ENDBRANCH  17  18
ENDBRANCH  11  17
ENDBRANCH   3  10
BRANCH   2  26
ATOM     26  N   UNL     1       3.753  -0.409   4.860  0.00  0.00    -0.343 N 
ATOM     27  H   UNL     1       2.882  -0.729   5.141  0.00  0.00    +0.144 HD
ATOM     28  H   UNL     1       4.224   0.249   5.396  0.00  0.00    +0.144 HD
ENDBRANCH   2  26
BRANCH   1  29
ATOM     29  C   UNL     1       2.445  -2.458   3.471  0.00  0.00    +0.163 C 
BRANCH  29  33
ATOM     30  C   UNL     1       3.248  -5.741   6.083  0.00  0.00    +0.000 A 
ATOM     31  C   UNL     1       3.138  -4.461   6.595  0.00  0.00    +0.000 A 
ATOM     32  C   UNL     1       2.878  -3.399   5.749  0.00  0.00    +0.005 A 
ATOM     33  C   UNL     1       2.729  -3.616   4.392  0.00  0.00    -0.028 A 
ATOM     34  C   UNL     1       2.839  -4.895   3.881  0.00  0.00    +0.005 A 
ATOM     35  C   UNL     1       3.098  -5.958   4.726  0.00  0.00    +0.000 A 
ENDBRANCH  29  33
ENDBRANCH   1  29
TORSDOF 10
