REMARK  Name = ZINC03409073
REMARK  8 active torsions:
REMARK  status: ('A' for Active; 'I' for Inactive)
REMARK    1  A    between atoms: C_1  and  C_2
REMARK    2  A    between atoms: C_5  and  N_11
REMARK    3  A    between atoms: C_7  and  N_8
REMARK    4  A    between atoms: C_12  and  C_14
REMARK    5  A    between atoms: C_14  and  O_15
REMARK    6  A    between atoms: O_15  and  C_16
REMARK    7  A    between atoms: C_16  and  C_18
REMARK    8  A    between atoms: C_21  and  N_24
REMARK                            x       y       z     vdW  Elec       q    Type
REMARK                         _______ _______ _______ _____ _____    ______ ____
ROOT
ATOM      1  O   UNL     1      -0.253   2.016  -0.356  0.00  0.00    -0.452 OA
ENDROOT
BRANCH   1   2
ATOM      2  C   UNL     1      -0.065   0.813  -0.934  0.00  0.00    +0.340 C 
ATOM      3  O   UNL     1       0.974   0.575  -1.517  0.00  0.00    -0.245 OA
BRANCH   2   4
ATOM      4  C   UNL     1      -1.120  -0.215  -0.858  0.00  0.00    +0.059 A 
ATOM      5  C   UNL     1      -2.314   0.055  -0.182  0.00  0.00    +0.017 A 
ATOM      6  C   UNL     1      -3.299  -0.904  -0.119  0.00  0.00    +0.024 A 
ATOM      7  C   UNL     1      -3.102  -2.146  -0.716  0.00  0.00    +0.035 A 
ATOM      8  C   UNL     1      -1.913  -2.420  -1.384  0.00  0.00    +0.024 A 
ATOM      9  C   UNL     1      -0.926  -1.463  -1.457  0.00  0.00    +0.017 A 
BRANCH   7  10
ATOM     10  N   UNL     1      -4.100  -3.117  -0.644  0.00  0.00    -0.270 N 
ATOM     11  C   UNL     1      -3.768  -4.411  -0.468  0.00  0.00    +0.301 C 
ATOM     12  O   UNL     1      -2.611  -4.719  -0.256  0.00  0.00    -0.253 OA
ATOM     13  N   UNL     1      -4.720  -5.364  -0.524  0.00  0.00    -0.313 N 
ATOM     14  H   UNL     1      -5.157  -2.827  -0.733  0.00  0.00    +0.156 HD
ATOM     15  H   UNL     1      -4.449  -6.421  -0.380  0.00  0.00    +0.146 HD
ATOM     16  H   UNL     1      -5.767  -5.085  -0.715  0.00  0.00    +0.146 HD
ENDBRANCH   7  10
ENDBRANCH   2   4
ENDBRANCH   1   2
BRANCH   1  17
ATOM     17  C   UNL     1       0.828   2.978  -0.471  0.00  0.00    +0.328 C 
BRANCH  17  19
ATOM     18  N   UNL     1       1.294   5.297   0.254  0.00  0.00    -0.283 N 
ATOM     19  C   UNL     1       0.440   4.255   0.230  0.00  0.00    +0.255 C 
ATOM     20  O   UNL     1      -0.641   4.344   0.773  0.00  0.00    -0.272 OA
ATOM     21  H   UNL     1       2.247   5.240  -0.293  0.00  0.00    +0.155 HD
BRANCH  18  26
ATOM     22  C   UNL     1      -0.022   9.978   3.177  0.00  0.00    +0.046 C 
ATOM     23  C   UNL     1       0.328   8.734   2.401  0.00  0.00    -0.020 A 
ATOM     24  C   UNL     1      -0.666   8.025   1.750  0.00  0.00    +0.007 A 
ATOM     25  C   UNL     1      -0.348   6.888   1.033  0.00  0.00    +0.024 A 
ATOM     26  C   UNL     1       0.970   6.451   0.975  0.00  0.00    +0.036 A 
ATOM     27  C   UNL     1       1.964   7.166   1.630  0.00  0.00    +0.056 A 
ATOM     28  C   UNL     1       1.640   8.305   2.341  0.00  0.00    +0.131 A 
BRANCH  28  29
ATOM     29  N   UNL     1       2.700   9.067   3.039  0.00  0.00    +0.057 N 
ATOM     30  O   UNL     1       3.835   8.628   3.085  0.00  0.00    -0.126 OA
ATOM     31  O   UNL     1       2.437  10.132   3.568  0.00  0.00    -0.126 OA
ENDBRANCH  28  29
ENDBRANCH  18  26
ENDBRANCH  17  19
ENDBRANCH   1  17
TORSDOF 7
