REMARK  Name = ZINC37139937
REMARK  7 active torsions:
REMARK  status: ('A' for Active; 'I' for Inactive)
REMARK    1  A    between atoms: C_1  and  C_2
REMARK    2  A    between atoms: C_5  and  C_9
REMARK    3  A    between atoms: C_6  and  O_8
REMARK    4  A    between atoms: C_9  and  C_11
REMARK    5  A    between atoms: C_9  and  N_12
REMARK    6  A    between atoms: N_12  and  C_13
REMARK    7  A    between atoms: C_18  and  N_19
REMARK                            x       y       z     vdW  Elec       q    Type
REMARK                         _______ _______ _______ _____ _____    ______ ____
ROOT
ATOM      1  N   UNL     1       1.130  -4.572  -1.234  0.00  0.00    -0.335 N 
ATOM      2  H   UNL     1       1.117  -4.019  -2.030  0.00  0.00    +0.147 HD
ENDROOT
BRANCH   1   3
ATOM      3  C   UNL     1       1.489  -5.920  -1.326  0.00  0.00    +0.058 A 
ATOM      4  C   UNL     1       1.622  -6.685  -0.174  0.00  0.00    +0.026 A 
ATOM      5  C   UNL     1       1.977  -8.016  -0.268  0.00  0.00    +0.017 A 
ATOM      6  C   UNL     1       2.200  -8.588  -1.508  0.00  0.00    +0.020 A 
ATOM      7  C   UNL     1       2.068  -7.829  -2.657  0.00  0.00    +0.050 A 
ATOM      8  C   UNL     1       1.707  -6.498  -2.569  0.00  0.00    +0.148 A 
ATOM      9 BR   UNL     1       2.686 -10.411  -1.633  0.00  0.00    -0.050 Br
BRANCH   8  10
ATOM     10  N   UNL     1       1.560  -5.688  -3.799  0.00  0.00    +0.058 N 
ATOM     11  O   UNL     1       0.683  -4.859  -3.876  0.00  0.00    -0.126 OA
ATOM     12  O   UNL     1       2.317  -5.855  -4.727  0.00  0.00    -0.126 OA
ENDBRANCH   8  10
ENDBRANCH   1   3
BRANCH   1  13
ATOM     13  C   UNL     1       0.773  -3.997   0.065  0.00  0.00    +0.101 C 
ATOM     14  C   UNL     1      -0.707  -4.258   0.350  0.00  0.00    +0.033 C 
BRANCH  13  19
ATOM     15  C   UNL     1       1.736   1.704  -0.028  0.00  0.00    +0.044 C 
ATOM     16  C   UNL     1       1.486   0.218  -0.001  0.00  0.00    -0.047 A 
ATOM     17  C   UNL     1       1.243  -0.463  -1.179  0.00  0.00    +0.004 A 
ATOM     18  C   UNL     1       1.013  -1.826  -1.158  0.00  0.00    +0.009 A 
ATOM     19  C   UNL     1       1.025  -2.511   0.042  0.00  0.00    +0.014 A 
ATOM     20  C   UNL     1       1.269  -1.830   1.226  0.00  0.00    +0.122 A 
ATOM     21  C   UNL     1       1.506  -0.463   1.201  0.00  0.00    +0.049 A 
BRANCH  20  22
ATOM     22  O   UNL     1       1.282  -2.501   2.407  0.00  0.00    -0.506 OA
ATOM     23  H   UNL     1       2.151  -2.843   2.656  0.00  0.00    +0.292 HD
ENDBRANCH  20  22
ENDBRANCH  13  19
ENDBRANCH   1  13
TORSDOF 5
