REMARK  Name = ZINC39711465
REMARK  12 active torsions:
REMARK  status: ('A' for Active; 'I' for Inactive)
REMARK    1  A    between atoms: C_1  and  C_2
REMARK    2  A    between atoms: C_2  and  N_3
REMARK    3  A    between atoms: N_6  and  C_9
REMARK    4  A    between atoms: C_9  and  C_11
REMARK    5  A    between atoms: C_9  and  C_20
REMARK    6  A    between atoms: N_15  and  C_16
REMARK    7  A    between atoms: C_16  and  C_17
REMARK    8  A    between atoms: C_17  and  O_18
REMARK    9  A    between atoms: O_18  and  C_19
REMARK   10  A    between atoms: C_25  and  O_32
REMARK   11  A    between atoms: O_32  and  C_33
REMARK   12  A    between atoms: C_33  and  C_34
REMARK                            x       y       z     vdW  Elec       q    Type
REMARK                         _______ _______ _______ _____ _____    ______ ____
ROOT
ATOM      1  C   UNL     1       1.802  -2.244   4.573  0.00  0.00    +0.142 C 
ENDROOT
BRANCH   1   2
ATOM      2  C   UNL     1       1.702  -3.611   3.893  0.00  0.00    +0.123 C 
ATOM      3  C   UNL     1       0.289  -3.766   3.366  0.00  0.00    -0.003 C 
ATOM      4  C   UNL     1      -0.431  -4.833   3.813  0.00  0.00    -0.003 A 
ATOM      5  C   UNL     1      -1.802  -5.057   3.355  0.00  0.00    +0.055 A 
ATOM      6  C   UNL     1      -2.484  -6.137   3.829  0.00  0.00    +0.121 A 
ATOM      7  C   UNL     1      -1.897  -7.026   4.737  0.00  0.00    +0.047 A 
ATOM      8  C   UNL     1      -0.629  -6.870   5.197  0.00  0.00    +0.027 A 
ATOM      9  C   UNL     1       0.159  -5.786   4.769  0.00  0.00    +0.041 A 
ATOM     10  N   UNL     1       1.403  -5.646   5.229  0.00  0.00    -0.284 N 
ATOM     11  C   UNL     1       2.197  -4.652   4.871  0.00  0.00    +0.226 C 
ATOM     12  O   UNL     1       3.323  -4.577   5.325  0.00  0.00    -0.275 OA
ATOM     13  H   UNL     1       1.740  -6.304   5.857  0.00  0.00    +0.155 HD
BRANCH   6  14
ATOM     14  O   UNL     1      -3.759  -6.356   3.411  0.00  0.00    -0.492 OA
BRANCH  14  15
ATOM     15  C   UNL     1      -4.427  -7.503   3.940  0.00  0.00    +0.225 C 
ATOM     16  C   UNL     1      -5.841  -7.583   3.359  0.00  0.00    +0.048 C 
ENDBRANCH  14  15
ENDBRANCH   6  14
ENDBRANCH   1   2
BRANCH   1  20
ATOM     17  N   UNL     1       1.289   1.242   2.236  0.00  0.00    +0.381 N 
ATOM     18  C   UNL     1       0.482   1.102   3.455  0.00  0.00    -0.063 C 
ATOM     19  C   UNL     1       1.134   0.077   4.385  0.00  0.00    +0.066 C 
ATOM     20  N   UNL     1       1.232  -1.216   3.692  0.00  0.00    -0.295 NA
ATOM     21  C   UNL     1       2.018  -1.086   2.456  0.00  0.00    +0.066 C 
ATOM     22  C   UNL     1       1.358  -0.051   1.542  0.00  0.00    -0.063 C 
ATOM     23  H   UNL     1       2.221   1.541   2.483  0.00  0.00    -0.082 HD
BRANCH  17  25
ATOM     24  C   UNL     1       0.714   3.613   2.026  0.00  0.00    -0.017 C 
ATOM     25  C   UNL     1       0.673   2.240   1.352  0.00  0.00    -0.082 C 
ENDBRANCH  17  25
ENDBRANCH   1  20
BRANCH   1  26
ATOM     26  C   UNL     1       3.249  -1.924   4.847  0.00  0.00    +0.170 A 
ATOM     27  N   UNL     1       4.220  -1.873   3.967  0.00  0.00    -0.112 NA
ATOM     28  N   UNL     1       5.306  -1.569   4.590  0.00  0.00    -0.023 NA
ATOM     29  N   UNL     1       5.053  -1.423   5.844  0.00  0.00    -0.044 NA
ATOM     30  N   UNL     1       3.795  -1.629   6.042  0.00  0.00    -0.225 N 
BRANCH  30  31
ATOM     31  C   UNL     1       3.092  -1.558   7.325  0.00  0.00    +0.175 C 
BRANCH  31  32
ATOM     32  C   UNL     1       3.230  -2.894   8.056  0.00  0.00    +0.183 C 
BRANCH  32  33
ATOM     33  O   UNL     1       2.613  -2.800   9.342  0.00  0.00    -0.381 OA
ATOM     34  C   UNL     1       2.686  -4.002  10.112  0.00  0.00    +0.194 C 
ENDBRANCH  32  33
ENDBRANCH  31  32
ENDBRANCH  30  31
ENDBRANCH   1  26
TORSDOF 9
