REMARK  Name = ZINC63686424
REMARK  9 active torsions:
REMARK  status: ('A' for Active; 'I' for Inactive)
REMARK    1  A    between atoms: C_1  and  C_2
REMARK    2  A    between atoms: C_5  and  C_31
REMARK    3  A    between atoms: C_11  and  C_13
REMARK    4  A    between atoms: C_13  and  S_14
REMARK    5  A    between atoms: S_14  and  C_15
REMARK    6  A    between atoms: C_19  and  C_23
REMARK    7  A    between atoms: N_21  and  C_22
REMARK    8  A    between atoms: C_26  and  O_29
REMARK    9  A    between atoms: O_29  and  C_30
REMARK                            x       y       z     vdW  Elec       q    Type
REMARK                         _______ _______ _______ _____ _____    ______ ____
ROOT
ATOM      1  S   UNL     1      -1.872  -3.533   5.465  0.00  0.00    -0.119 S 
ENDROOT
BRANCH   1   2
ATOM      2  C   UNL     1      -1.852  -4.534   6.977  0.00  0.00    +0.200 C 
ATOM      3  N   UNL     1      -1.483  -3.698   8.149  0.00  0.00    -0.229 NA
ATOM      4  N   UNL     1      -0.952  -4.682   9.105  0.00  0.00    -0.233 NA
ATOM      5  C   UNL     1      -0.206  -5.648   8.266  0.00  0.00    +0.171 C 
ATOM      6  N   UNL     1      -0.783  -5.558   6.907  0.00  0.00    -0.260 NA
ATOM      7  C   UNL     1       0.242  -5.181   5.924  0.00  0.00    +0.109 C 
ATOM      8  H   UNL     1      -0.780  -3.018   7.902  0.00  0.00    +0.143 HD
ATOM      9  H   UNL     1      -0.342  -4.241   9.777  0.00  0.00    +0.143 HD
BRANCH   5  10
ATOM     10  C   UNL     1      -0.380  -7.044   8.808  0.00  0.00    -0.015 A 
ATOM     11  C   UNL     1      -0.368  -8.125   7.946  0.00  0.00    +0.010 A 
ATOM     12  C   UNL     1      -0.527  -9.405   8.439  0.00  0.00    +0.046 A 
ATOM     13  C   UNL     1      -0.698  -9.606   9.801  0.00  0.00    +0.120 A 
ATOM     14  C   UNL     1      -0.709  -8.520  10.664  0.00  0.00    +0.046 A 
ATOM     15  C   UNL     1      -0.544  -7.242  10.166  0.00  0.00    +0.010 A 
BRANCH  13  16
ATOM     16  O   UNL     1      -0.855 -10.864  10.289  0.00  0.00    -0.495 OA
ATOM     17  C   UNL     1      -1.026 -10.996  11.702  0.00  0.00    +0.277 C 
ENDBRANCH  13  16
ENDBRANCH   5  10
ENDBRANCH   1   2
BRANCH   1  18
ATOM     18  C   UNL     1      -3.467  -2.670   5.532  0.00  0.00    +0.125 C 
BRANCH  18  29
ATOM     19  C   UNL     1      -5.090  -0.076  -0.306  0.00  0.00    +0.044 C 
ATOM     20  C   UNL     1      -4.142   0.369   0.778  0.00  0.00    -0.038 A 
ATOM     21  C   UNL     1      -3.428   1.526   0.634  0.00  0.00    +0.004 A 
ATOM     22  C   UNL     1      -2.554   1.944   1.627  0.00  0.00    +0.005 A 
ATOM     23  C   UNL     1      -2.388   1.202   2.776  0.00  0.00    -0.026 A 
ATOM     24  C   UNL     1      -3.105   0.020   2.944  0.00  0.00    +0.054 A 
ATOM     25  C   UNL     1      -3.993  -0.394   1.936  0.00  0.00    +0.048 A 
ATOM     26  C   UNL     1      -4.747  -1.645   2.135  0.00  0.00    +0.190 A 
ATOM     27  O   UNL     1      -5.526  -2.053   1.290  0.00  0.00    -0.287 OA
ATOM     28  C   UNL     1      -4.535  -2.357   3.339  0.00  0.00    +0.073 A 
ATOM     29  C   UNL     1      -3.668  -1.887   4.260  0.00  0.00    +0.030 A 
ATOM     30  N   UNL     1      -2.962  -0.744   4.080  0.00  0.00    -0.357 N 
ATOM     31  C   UNL     1      -1.435   1.667   3.847  0.00  0.00    +0.046 C 
ATOM     32  H   UNL     1      -2.351  -0.452   4.774  0.00  0.00    +0.166 HD
ENDBRANCH  18  29
ENDBRANCH   1  18
TORSDOF 5
