REMARK  Name = ZINC00931604
REMARK  12 active torsions:
REMARK  status: ('A' for Active; 'I' for Inactive)
REMARK    1  A    between atoms: C_1  and  C_2
REMARK    2  A    between atoms: C_2  and  C_3
REMARK    3  A    between atoms: C_3  and  C_4
REMARK    4  A    between atoms: C_5  and  C_28
REMARK    5  A    between atoms: C_6  and  C_14
REMARK    6  A    between atoms: C_8  and  C_12
REMARK    7  A    between atoms: C_9  and  N_11
REMARK    8  A    between atoms: C_18  and  C_27
REMARK    9  A    between atoms: C_19  and  C_26
REMARK   10  A    between atoms: C_28  and  O_30
REMARK   11  A    between atoms: O_30  and  C_31
REMARK   12  A    between atoms: C_31  and  C_32
REMARK                            x       y       z     vdW  Elec       q    Type
REMARK                         _______ _______ _______ _____ _____    ______ ____
ROOT
ATOM      1  C   UNL     1      -0.127   4.112  -0.462  0.00  0.00    +0.118 C 
ATOM      2  C   UNL     1       1.063   3.499  -0.496  0.00  0.00    +0.087 C 
ATOM      3  C   UNL     1       1.229   2.093   0.014  0.00  0.00    +0.110 C 
ATOM      4  C   UNL     1      -0.119   1.436   0.141  0.00  0.00    +0.098 C 
ATOM      5  C   UNL     1      -1.254   2.177   0.132  0.00  0.00    +0.198 C 
ATOM      6  O   UNL     1      -1.225   3.516   0.024  0.00  0.00    -0.445 OA
ENDROOT
BRANCH   3   7
ATOM      7  C   UNL     1       1.899   2.127   1.363  0.00  0.00    +0.030 A 
ATOM      8  C   UNL     1       3.087   1.499   1.544  0.00  0.00    +0.020 A 
ATOM      9  C   UNL     1       3.714   1.554   2.865  0.00  0.00    -0.001 A 
ATOM     10  C   UNL     1       4.942   0.930   3.110  0.00  0.00    +0.013 A 
ATOM     11  C   UNL     1       5.498   0.996   4.356  0.00  0.00    -0.047 A 
ATOM     12  C   UNL     1       4.856   1.677   5.381  0.00  0.00    -0.046 A 
ATOM     13  C   UNL     1       3.646   2.299   5.163  0.00  0.00    +0.030 A 
ATOM     14  C   UNL     1       3.060   2.246   3.902  0.00  0.00    +0.049 A 
ATOM     15  N   UNL     1       1.851   2.860   3.655  0.00  0.00    -0.322 N 
ATOM     16  H   UNL     1       1.388   3.350   4.393  0.00  0.00    +0.169 HD
ATOM     17  C   UNL     1       1.285   2.808   2.437  0.00  0.00    +0.253 A 
ATOM     18  O   UNL     1       0.215   3.362   2.254  0.00  0.00    -0.268 OA
ATOM     19  C   UNL     1       5.489   1.737   6.748  0.00  0.00    +0.044 C 
ATOM     20  C   UNL     1       6.821   0.323   4.620  0.00  0.00    +0.044 C 
ENDBRANCH   3   7
BRANCH   5  21
ATOM     21  N   UNL     1      -2.466   1.542   0.242  0.00  0.00    -0.328 N 
ATOM     22  H   UNL     1      -2.502   0.576   0.325  0.00  0.00    +0.145 HD
ATOM     23  H   UNL     1      -3.287   2.059   0.237  0.00  0.00    +0.145 HD
ENDBRANCH   5  21
BRANCH   4  24
ATOM     24  C   UNL     1      -0.204   0.012   0.267  0.00  0.00    +0.101 C 
ATOM     25  N   UNL     1      -0.271  -1.117   0.367  0.00  0.00    -0.191 NA
ENDBRANCH   4  24
BRANCH   2  26
ATOM     26  C   UNL     1       2.186   4.185  -1.022  0.00  0.00    +0.339 C 
ATOM     27  O   UNL     1       2.562   3.957  -2.156  0.00  0.00    -0.245 OA
BRANCH  26  28
ATOM     28  O   UNL     1       2.837   5.092  -0.265  0.00  0.00    -0.462 OA
BRANCH  28  29
ATOM     29  C   UNL     1       3.960   5.747  -0.859  0.00  0.00    +0.229 C 
ATOM     30  C   UNL     1       4.565   6.732   0.143  0.00  0.00    +0.048 C 
ENDBRANCH  28  29
ENDBRANCH  26  28
ENDBRANCH   2  26
BRANCH   1  31
ATOM     31  C   UNL     1      -0.235   5.520  -0.989  0.00  0.00    +0.075 C 
BRANCH  31  33
ATOM     32  C   UNL     1      -0.755   6.912  -2.997  0.00  0.00    +0.004 C 
ATOM     33  C   UNL     1      -0.645   5.483  -2.462  0.00  0.00    +0.004 C 
ENDBRANCH  31  33
ENDBRANCH   1  31
TORSDOF 8
