REMARK  Name = ZINC39578386
REMARK  8 active torsions:
REMARK  status: ('A' for Active; 'I' for Inactive)
REMARK    1  A    between atoms: C_1  and  C_2
REMARK    2  A    between atoms: C_2  and  C_4
REMARK    3  A    between atoms: C_2  and  S_15
REMARK    4  A    between atoms: N_6  and  C_7
REMARK    5  A    between atoms: C_7  and  C_13
REMARK    6  A    between atoms: S_15  and  C_16
REMARK    7  A    between atoms: C_19  and  C_22
REMARK    8  A    between atoms: N_20  and  N_21
REMARK                            x       y       z     vdW  Elec       q    Type
REMARK                         _______ _______ _______ _____ _____    ______ ____
ROOT
ATOM      1  S   UNL     1      -1.700  -0.632   0.015  0.00  0.00    -0.072 S 
ENDROOT
BRANCH   1   2
ATOM      2  C   UNL     1      -2.365  -0.093  -1.525  0.00  0.00    +0.209 A 
ATOM      3  N   UNL     1      -1.736   0.597  -2.448  0.00  0.00    -0.121 NA
ATOM      4  N   UNL     1      -2.522   0.816  -3.441  0.00  0.00    -0.132 NA
ATOM      5  C   UNL     1      -3.689   0.283  -3.213  0.00  0.00    +0.154 A 
ATOM      6  N   UNL     1      -3.629  -0.320  -1.988  0.00  0.00    -0.228 N 
BRANCH   5   7
ATOM      7  C   UNL     1      -4.882   0.320  -4.133  0.00  0.00    +0.059 C 
ATOM      8  C   UNL     1      -4.523  -0.352  -5.461  0.00  0.00    +0.011 C 
ATOM      9  C   UNL     1      -5.735  -0.315  -6.395  0.00  0.00    +0.001 C 
ATOM     10  C   UNL     1      -6.137   1.139  -6.651  0.00  0.00    +0.000 C 
ATOM     11  C   UNL     1      -6.496   1.810  -5.324  0.00  0.00    +0.001 C 
ATOM     12  C   UNL     1      -5.285   1.773  -4.390  0.00  0.00    +0.011 C 
ENDBRANCH   5   7
BRANCH   6  13
ATOM     13  N   UNL     1      -4.628  -1.006  -1.356  0.00  0.00    -0.295 N 
ATOM     14  H   UNL     1      -5.184  -0.388  -0.784  0.00  0.00    +0.163 HD
ATOM     15  H   UNL     1      -5.204  -1.500  -2.021  0.00  0.00    +0.163 HD
ENDBRANCH   6  13
ENDBRANCH   1   2
BRANCH   1  17
ATOM     16  C   UNL     1      -0.019   1.526   0.010  0.00  0.00    +0.029 C 
ATOM     17  C   UNL     1       0.002  -0.004   0.002  0.00  0.00    +0.137 C 
BRANCH  17  18
ATOM     18  C   UNL     1       0.731  -0.503   1.223  0.00  0.00    +0.227 C 
ATOM     19  O   UNL     1       0.105  -0.891   2.187  0.00  0.00    -0.275 OA
ATOM     20  N   UNL     1       2.079  -0.519   1.244  0.00  0.00    -0.296 N 
ATOM     21  H   UNL     1       2.579  -0.208   0.473  0.00  0.00    +0.150 HD
BRANCH  20  22
ATOM     22  C   UNL     1       2.787  -1.004   2.431  0.00  0.00    +0.121 C 
ATOM     23  C   UNL     1       2.408  -0.144   3.638  0.00  0.00    +0.041 C 
ATOM     24  C   UNL     1       3.148  -0.651   4.878  0.00  0.00    +0.003 C 
ATOM     25  C   UNL     1       4.657  -0.563   4.642  0.00  0.00    +0.000 C 
ATOM     26  C   UNL     1       5.036  -1.423   3.435  0.00  0.00    +0.003 C 
ATOM     27  C   UNL     1       4.296  -0.916   2.195  0.00  0.00    +0.041 C 
BRANCH  22  28
ATOM     28  C   UNL     1       2.411  -2.404   2.688  0.00  0.00    +0.088 C 
ATOM     29  N   UNL     1       2.121  -3.484   2.887  0.00  0.00    -0.194 NA
ENDBRANCH  22  28
ENDBRANCH  20  22
ENDBRANCH  17  18
ENDBRANCH   1  17
TORSDOF 7
