REMARK  Name = ZINC08623856
REMARK  8 active torsions:
REMARK  status: ('A' for Active; 'I' for Inactive)
REMARK    1  A    between atoms: C_1  and  C_2
REMARK    2  A    between atoms: C_2  and  C_3
REMARK    3  A    between atoms: C_2  and  O_4
REMARK    4  A    between atoms: O_4  and  C_5
REMARK    5  A    between atoms: C_5  and  C_7
REMARK    6  A    between atoms: C_10  and  N_13
REMARK    7  A    between atoms: C_14  and  C_16
REMARK    8  A    between atoms: C_16  and  N_17
REMARK                            x       y       z     vdW  Elec       q    Type
REMARK                         _______ _______ _______ _____ _____    ______ ____
ROOT
ATOM      1  C   UNL     1      -2.945   3.412  -1.301  0.00  0.00    +0.214 C 
ENDROOT
BRANCH   1   2
ATOM      2  N   UNL     1      -2.027   2.792  -0.342  0.00  0.00    -0.215 N 
ATOM      3  C   UNL     1      -0.978   2.018  -0.689  0.00  0.00    +0.251 C 
ATOM      4  O   UNL     1      -0.629   1.715  -1.810  0.00  0.00    -0.272 OA
ATOM      5  C   UNL     1      -0.329   1.609   0.614  0.00  0.00    +0.138 C 
ATOM      6  C   UNL     1       1.101   2.133   0.678  0.00  0.00    +0.040 C 
ATOM      7  C   UNL     1       1.960   1.312  -0.293  0.00  0.00    +0.008 C 
ATOM      8  C   UNL     1       2.094  -0.105   0.258  0.00  0.00    +0.035 C 
ATOM      9  C   UNL     1       0.742  -0.676   0.599  0.00  0.00    -0.042 A 
ATOM     10  C   UNL     1      -0.373   0.115   0.769  0.00  0.00    -0.012 A 
ATOM     11  C   UNL     1      -1.589  -0.472   1.095  0.00  0.00    +0.006 A 
ATOM     12  C   UNL     1      -1.689  -1.839   1.245  0.00  0.00    +0.000 A 
ATOM     13  C   UNL     1      -0.572  -2.634   1.069  0.00  0.00    +0.000 A 
ATOM     14  C   UNL     1       0.638  -2.053   0.747  0.00  0.00    +0.004 A 
ATOM     15  N   UNL     1      -1.158   2.254   1.641  0.00  0.00    -0.281 N 
ATOM     16  C   UNL     1      -2.126   2.923   0.986  0.00  0.00    +0.310 C 
ATOM     17  O   UNL     1      -2.991   3.573   1.539  0.00  0.00    -0.252 OA
ATOM     18  H   UNL     1      -1.033   2.207   2.602  0.00  0.00    +0.152 HD
ENDBRANCH   1   2
BRANCH   1  20
ATOM     19  N   UNL     1      -5.066   2.835  -2.436  0.00  0.00    -0.284 N 
ATOM     20  C   UNL     1      -4.091   2.473  -1.578  0.00  0.00    +0.235 C 
ATOM     21  O   UNL     1      -4.137   1.393  -1.029  0.00  0.00    -0.274 OA
ATOM     22  H   UNL     1      -5.071   3.727  -2.816  0.00  0.00    +0.155 HD
BRANCH  19  26
ATOM     23  C   UNL     1      -8.056   0.120  -3.455  0.00  0.00    +0.059 A 
ATOM     24  C   UNL     1      -8.348   1.485  -3.372  0.00  0.00    +0.017 A 
ATOM     25  C   UNL     1      -7.357   2.379  -3.035  0.00  0.00    +0.024 A 
ATOM     26  C   UNL     1      -6.067   1.926  -2.777  0.00  0.00    +0.033 A 
ATOM     27  C   UNL     1      -5.772   0.569  -2.864  0.00  0.00    +0.024 A 
ATOM     28  C   UNL     1      -6.759  -0.332  -3.195  0.00  0.00    +0.017 A 
BRANCH  23  29
ATOM     29  C   UNL     1      -9.115  -0.841  -3.816  0.00  0.00    +0.339 C 
ATOM     30  O   UNL     1     -10.242  -0.447  -4.041  0.00  0.00    -0.245 OA
BRANCH  29  31
ATOM     31  O   UNL     1      -8.832  -2.156  -3.896  0.00  0.00    -0.458 OA
BRANCH  31  33
ATOM     32  C   UNL     1      -9.973  -3.200  -5.777  0.00  0.00    +0.052 C 
ATOM     33  C   UNL     1      -9.923  -3.044  -4.256  0.00  0.00    +0.171 C 
ATOM     34  C   UNL     1      -9.700  -4.413  -3.610  0.00  0.00    +0.052 C 
ENDBRANCH  31  33
ENDBRANCH  29  31
ENDBRANCH  23  29
ENDBRANCH  19  26
ENDBRANCH   1  20
TORSDOF 6
