REMARK  Name = ZINC39323286
REMARK  6 active torsions:
REMARK  status: ('A' for Active; 'I' for Inactive)
REMARK    1  A    between atoms: C_1  and  O_2
REMARK    2  A    between atoms: O_2  and  C_3
REMARK    3  A    between atoms: C_3  and  C_4
REMARK    4  A    between atoms: C_6  and  C_18
REMARK    5  A    between atoms: C_8  and  C_16
REMARK    6  A    between atoms: C_9  and  N_15
REMARK                            x       y       z     vdW  Elec       q    Type
REMARK                         _______ _______ _______ _____ _____    ______ ____
ROOT
ATOM      1  C   UNL     1      -1.156  -2.103   0.002  0.00  0.00    +0.094 C 
ATOM      2  C   UNL     1      -1.535  -2.897   0.974  0.00  0.00    +0.032 C 
ATOM      3  C   UNL     1      -2.053  -2.657   2.366  0.00  0.00    +0.100 C 
ATOM      4  C   UNL     1      -1.346  -3.673   3.244  0.00  0.00    +0.098 C 
ATOM      5  C   UNL     1      -0.595  -4.664   2.719  0.00  0.00    +0.195 C 
ATOM      6  O   UNL     1      -0.345  -4.878   1.415  0.00  0.00    -0.448 OA
ATOM      7  C   UNL     1      -1.254  -4.312   0.466  0.00  0.00    +0.343 C 
ATOM      8  N   UNL     1      -0.613  -4.050  -0.827  0.00  0.00    -0.138 NA
ATOM      9  N   UNL     1      -0.625  -2.827  -1.017  0.00  0.00    -0.153 NA
ENDROOT
BRANCH   3  10
ATOM     10  C   UNL     1      -1.719  -1.257   2.812  0.00  0.00    +0.000 A 
ATOM     11  C   UNL     1      -0.400  -0.849   2.879  0.00  0.00    +0.007 A 
ATOM     12  C   UNL     1      -0.094   0.435   3.288  0.00  0.00    +0.000 A 
ATOM     13  C   UNL     1      -1.106   1.313   3.631  0.00  0.00    +0.003 A 
ATOM     14  C   UNL     1      -2.425   0.907   3.564  0.00  0.00    +0.038 A 
ATOM     15  C   UNL     1      -2.733  -0.378   3.149  0.00  0.00    +0.127 A 
ATOM     16  F   UNL     1      -4.023  -0.774   3.079  0.00  0.00    -0.205 F 
ENDBRANCH   3  10
BRANCH   5  17
ATOM     17  N   UNL     1      -0.028  -5.543   3.607  0.00  0.00    -0.329 N 
ATOM     18  H   UNL     1      -0.176  -5.434   4.559  0.00  0.00    +0.145 HD
ATOM     19  H   UNL     1       0.522  -6.273   3.282  0.00  0.00    +0.145 HD
ENDBRANCH   5  17
BRANCH   4  20
ATOM     20  C   UNL     1      -1.480  -3.578   4.667  0.00  0.00    +0.101 C 
ATOM     21  N   UNL     1      -1.585  -3.503   5.795  0.00  0.00    -0.191 NA
ENDBRANCH   4  20
BRANCH   1  22
ATOM     22  C   UNL     1      -1.295  -0.603   0.011  0.00  0.00    +0.216 C 
BRANCH  22  24
ATOM     23  C   UNL     1      -0.017   1.425   0.010  0.00  0.00    +0.194 C 
ATOM     24  O   UNL     1       0.002  -0.004   0.002  0.00  0.00    -0.377 OA
ENDBRANCH  22  24
ENDBRANCH   1  22
TORSDOF 5
