REMARK  Name = ZINC48421838
REMARK  5 active torsions:
REMARK  status: ('A' for Active; 'I' for Inactive)
REMARK    1  A    between atoms: C_1  and  C_2
REMARK    2  A    between atoms: C_4  and  C_21
REMARK    3  A    between atoms: N_8  and  N_9
REMARK    4  A    between atoms: C_10  and  C_12
REMARK    5  A    between atoms: C_12  and  C_13
REMARK                            x       y       z     vdW  Elec       q    Type
REMARK                         _______ _______ _______ _____ _____    ______ ____
ROOT
ATOM      1  N   UNL     1       0.046  -1.962   3.551  0.00  0.00    -0.234 N 
ATOM      2  C   UNL     1       0.060  -2.619   4.728  0.00  0.00    +0.231 C 
ATOM      3  O   UNL     1       0.077  -3.832   4.745  0.00  0.00    -0.274 OA
ATOM      4  H   UNL     1       0.033  -0.992   3.538  0.00  0.00    +0.173 HD
ENDROOT
BRANCH   1  12
ATOM      5  C   UNL     1      -0.018   1.503   0.010  0.00  0.00    +0.066 C 
ATOM      6  C   UNL     1       0.002  -0.004   0.002  0.00  0.00    +0.044 A 
ATOM      7  C   UNL     1       0.006  -0.699  -1.197  0.00  0.00    +0.046 A 
ATOM      8  C   UNL     1       0.025  -2.084  -1.160  0.00  0.00    +0.044 A 
ATOM      9  N   UNL     1       0.040  -2.698   0.011  0.00  0.00    -0.219 NA
ATOM     10  C   UNL     1       0.035  -2.004   1.140  0.00  0.00    +0.232 A 
ATOM     11  N   UNL     1       0.022  -0.679   1.139  0.00  0.00    -0.219 NA
ATOM     12  N   UNL     1       0.050  -2.679   2.348  0.00  0.00    -0.232 N 
ATOM     13  C   UNL     1       0.030  -2.881  -2.439  0.00  0.00    +0.066 C 
ATOM     14  H   UNL     1       0.063  -3.649   2.362  0.00  0.00    +0.173 HD
ENDBRANCH   1  12
BRANCH   2  15
ATOM     15  C   UNL     1       0.056  -1.847   6.022  0.00  0.00    +0.129 C 
BRANCH  15  16
ATOM     16  C   UNL     1       0.074  -2.825   7.199  0.00  0.00    +0.169 C 
ATOM     17  C   UNL     1       0.034  -2.075   8.516  0.00  0.00    +0.241 C 
ATOM     18  O   UNL     1      -0.845  -1.341   8.914  0.00  0.00    -0.273 OA
ATOM     19  N   UNL     1       1.178  -2.395   9.153  0.00  0.00    -0.239 N 
ATOM     20  C   UNL     1       1.928  -3.234   8.429  0.00  0.00    +0.307 C 
ATOM     21  O   UNL     1       3.004  -3.664   8.794  0.00  0.00    -0.252 OA
ATOM     22  N   UNL     1       1.355  -3.551   7.249  0.00  0.00    -0.287 N 
ATOM     23  H   UNL     1       1.427  -2.058  10.027  0.00  0.00    +0.159 HD
ATOM     24  H   UNL     1       1.715  -4.140   6.568  0.00  0.00    +0.151 HD
ENDBRANCH  15  16
ENDBRANCH   2  15
TORSDOF 3
