REMARK  Name = ZINC39674785
REMARK  7 active torsions:
REMARK  status: ('A' for Active; 'I' for Inactive)
REMARK    1  A    between atoms: C_1  and  C_2
REMARK    2  A    between atoms: C_4  and  C_14
REMARK    3  A    between atoms: C_7  and  C_12
REMARK    4  A    between atoms: C_14  and  C_15
REMARK    5  A    between atoms: C_15  and  N_16
REMARK    6  A    between atoms: C_17  and  C_19
REMARK    7  A    between atoms: C_30  and  C_32
REMARK                            x       y       z     vdW  Elec       q    Type
REMARK                         _______ _______ _______ _____ _____    ______ ____
ROOT
ATOM      1  C   UNL     1       1.246  -1.655  -7.108  0.00  0.00    +0.100 C 
ATOM      2  C   UNL     1      -0.144  -2.058  -7.650  0.00  0.00    +0.121 C 
ATOM      3  N   UNL     1       0.108  -2.489  -9.045  0.00  0.00    -0.296 N 
ATOM      4  C   UNL     1       1.388  -3.234  -8.975  0.00  0.00    +0.115 C 
ATOM      5  C   UNL     1       2.249  -2.429  -7.980  0.00  0.00    -0.004 C 
ATOM      6  C   UNL     1       3.155  -1.459  -8.731  0.00  0.00    -0.010 C 
ATOM      7  C   UNL     1       4.180  -2.252  -9.547  0.00  0.00    -0.082 C 
ATOM      8  N   UNL     1       4.974  -3.099  -8.648  0.00  0.00    +0.379 N 
ATOM      9  C   UNL     1       4.108  -4.091  -7.999  0.00  0.00    -0.082 C 
ATOM     10  C   UNL     1       3.080  -3.375  -7.119  0.00  0.00    -0.010 C 
ATOM     11  C   UNL     1      -0.654  -2.257 -10.132  0.00  0.00    +0.247 C 
ATOM     12  O   UNL     1      -1.626  -1.532 -10.049  0.00  0.00    -0.270 OA
ATOM     13  H   UNL     1       5.688  -3.574  -9.180  0.00  0.00    -0.086 HD
ATOM     14  H   UNL     1       5.410  -2.523  -7.944  0.00  0.00    -0.086 HD
ENDROOT
BRANCH  11  15
ATOM     15  C   UNL     1      -0.308  -2.886 -11.428  0.00  0.00    +0.040 A 
ATOM     16  C   UNL     1       0.515  -4.015 -11.481  0.00  0.00    +0.033 A 
ATOM     17  C   UNL     1       0.812  -4.570 -12.711  0.00  0.00    +0.111 A 
ATOM     18  N   UNL     1       0.332  -4.049 -13.822  0.00  0.00    -0.263 NA
ATOM     19  C   UNL     1      -0.448  -2.986 -13.817  0.00  0.00    +0.111 A 
ATOM     20  C   UNL     1      -0.800  -2.371 -12.631  0.00  0.00    +0.033 A 
ENDBRANCH  11  15
BRANCH   1  22
ATOM     21  N   UNL     1       2.191  -1.362  -4.841  0.00  0.00    -0.315 N 
ATOM     22  C   UNL     1       1.384  -2.062  -5.664  0.00  0.00    +0.218 C 
ATOM     23  O   UNL     1       0.769  -3.018  -5.241  0.00  0.00    -0.275 OA
ATOM     24  H   UNL     1       2.683  -0.597  -5.179  0.00  0.00    +0.149 HD
BRANCH  21  25
ATOM     25  C   UNL     1       2.325  -1.757  -3.437  0.00  0.00    +0.108 C 
BRANCH  25  26
ATOM     26  C   UNL     1       3.293  -0.805  -2.730  0.00  0.00    +0.052 C 
BRANCH  26  29
ATOM     27  C   UNL     1       5.759  -0.594  -0.638  0.00  0.00    +0.035 C 
ATOM     28  C   UNL     1       4.285  -0.545  -0.231  0.00  0.00    +0.103 C 
ATOM     29  C   UNL     1       3.431  -1.212  -1.285  0.00  0.00    -0.037 C 
ATOM     30  C   UNL     1       2.814  -2.250  -0.667  0.00  0.00    +0.000 A 
ATOM     31  C   UNL     1       1.899  -3.227  -1.141  0.00  0.00    +0.028 A 
ATOM     32  C   UNL     1       1.415  -4.191  -0.288  0.00  0.00    +0.052 A 
ATOM     33  C   UNL     1       1.822  -4.237   1.112  0.00  0.00    +0.021 A 
ATOM     34  C   UNL     1       2.688  -3.335   1.619  0.00  0.00    +0.027 A 
ATOM     35  C   UNL     1       3.235  -2.285   0.751  0.00  0.00    +0.043 A 
ATOM     36  N   UNL     1       4.075  -1.310   1.002  0.00  0.00    -0.378 N 
ATOM     37  H   UNL     1       4.490  -1.125   1.860  0.00  0.00    +0.160 HD
BRANCH  32  38
ATOM     38  C   UNL     1       0.493  -5.169  -0.783  0.00  0.00    +0.099 C 
ATOM     39  N   UNL     1      -0.238  -5.944  -1.177  0.00  0.00    -0.191 NA
ENDBRANCH  32  38
ENDBRANCH  26  29
ENDBRANCH  25  26
ENDBRANCH  21  25
ENDBRANCH   1  22
TORSDOF 6
