REMARK  Name = ZINC00869399
REMARK  9 active torsions:
REMARK  status: ('A' for Active; 'I' for Inactive)
REMARK    1  A    between atoms: C_1  and  C_2
REMARK    2  A    between atoms: C_3  and  N_15
REMARK    3  A    between atoms: N_6  and  C_9
REMARK    4  A    between atoms: N_7  and  C_8
REMARK    5  A    between atoms: C_16  and  C_18
REMARK    6  A    between atoms: C_18  and  N_19
REMARK    7  A    between atoms: N_19  and  C_20
REMARK    8  A    between atoms: N_19  and  S_27
REMARK    9  A    between atoms: S_27  and  C_30
REMARK                            x       y       z     vdW  Elec       q    Type
REMARK                         _______ _______ _______ _____ _____    ______ ____
ROOT
ATOM      1  N   UNL     1       3.777  -2.900  -1.991  0.00  0.00    -0.278 N 
ATOM      2  C   UNL     1       2.585  -2.533  -2.503  0.00  0.00    +0.237 C 
ATOM      3  O   UNL     1       1.674  -3.332  -2.553  0.00  0.00    -0.274 OA
ATOM      4  H   UNL     1       4.526  -2.286  -2.018  0.00  0.00    +0.155 HD
ENDROOT
BRANCH   1   7
ATOM      5  C   UNL     1       4.687  -3.420   0.893  0.00  0.00    +0.067 C 
ATOM      6  C   UNL     1       4.331  -4.445  -0.152  0.00  0.00    +0.059 A 
ATOM      7  C   UNL     1       3.933  -4.178  -1.416  0.00  0.00    +0.121 A 
ATOM      8  C   UNL     1       3.700  -5.462  -2.078  0.00  0.00    +0.293 A 
ATOM      9  O   UNL     1       3.335  -5.629  -3.228  0.00  0.00    -0.264 OA
ATOM     10  N   UNL     1       3.967  -6.425  -1.172  0.00  0.00    -0.216 N 
ATOM     11  N   UNL     1       4.355  -5.804   0.020  0.00  0.00    -0.282 N 
ATOM     12  C   UNL     1       4.731  -6.496   1.255  0.00  0.00    +0.171 C 
BRANCH  10  13
ATOM     13  C   UNL     1       3.874  -7.803  -1.388  0.00  0.00    +0.067 A 
ATOM     14  C   UNL     1       4.920  -8.638  -1.016  0.00  0.00    +0.028 A 
ATOM     15  C   UNL     1       4.822 -10.000  -1.226  0.00  0.00    +0.002 A 
ATOM     16  C   UNL     1       3.689 -10.531  -1.815  0.00  0.00    +0.000 A 
ATOM     17  C   UNL     1       2.648  -9.702  -2.190  0.00  0.00    +0.002 A 
ATOM     18  C   UNL     1       2.737  -8.340  -1.979  0.00  0.00    +0.028 A 
ENDBRANCH  10  13
ENDBRANCH   1   7
BRANCH   2  19
ATOM     19  C   UNL     1       2.386  -1.130  -3.015  0.00  0.00    +0.227 C 
BRANCH  19  20
ATOM     20  N   UNL     1       1.017  -0.983  -3.517  0.00  0.00    -0.197 N 
BRANCH  20  21
ATOM     21  C   UNL     1       0.709  -1.361  -4.826  0.00  0.00    +0.070 A 
ATOM     22  C   UNL     1       0.366  -2.677  -5.108  0.00  0.00    +0.026 A 
ATOM     23  C   UNL     1       0.056  -3.046  -6.403  0.00  0.00    +0.002 A 
ATOM     24  C   UNL     1       0.098  -2.110  -7.420  0.00  0.00    +0.002 A 
ATOM     25  C   UNL     1       0.444  -0.800  -7.144  0.00  0.00    +0.022 A 
ATOM     26  C   UNL     1       0.749  -0.422  -5.850  0.00  0.00    +0.064 A 
ATOM     27 CL   UNL     1       1.185   1.223  -5.505  0.00  0.00    -0.082 Cl
ENDBRANCH  20  21
BRANCH  20  28
ATOM     28  S   UNL     1      -0.164  -0.369  -2.532  0.00  0.00    +0.043 S 
ATOM     29  O   UNL     1       0.277  -0.659  -1.212  0.00  0.00    -0.155 OA
ATOM     30  O   UNL     1      -1.375  -0.923  -3.029  0.00  0.00    -0.155 OA
ATOM     31  C   UNL     1      -0.130   1.421  -2.823  0.00  0.00    +0.218 C 
ENDBRANCH  20  28
ENDBRANCH  19  20
ENDBRANCH   2  19
TORSDOF 6
