REMARK  Name = ZINC04488720
REMARK  8 active torsions:
REMARK  status: ('A' for Active; 'I' for Inactive)
REMARK    1  A    between atoms: C_1  and  C_2
REMARK    2  A    between atoms: C_7  and  C_8
REMARK    3  A    between atoms: C_8  and  O_10
REMARK    4  A    between atoms: O_10  and  C_11
REMARK    5  A    between atoms: C_18  and  C_28
REMARK    6  A    between atoms: C_20  and  C_24
REMARK    7  A    between atoms: C_24  and  O_26
REMARK    8  A    between atoms: O_26  and  C_27
REMARK                            x       y       z     vdW  Elec       q    Type
REMARK                         _______ _______ _______ _____ _____    ______ ____
ROOT
ATOM      1  C   UNL     1      -0.018   1.503   0.010  0.00  0.00    +0.047 C 
ATOM      2  C   UNL     1       0.002  -0.004   0.002  0.00  0.00    -0.008 A 
ATOM      3  C   UNL     1       0.008  -0.834  -1.125  0.00  0.00    +0.042 A 
ATOM      4  C   UNL     1       0.026  -2.156  -0.678  0.00  0.00    +0.028 A 
ATOM      5  N   UNL     1       0.034  -2.138   0.655  0.00  0.00    -0.352 N 
ATOM      6  H   UNL     1       0.048  -2.921   1.227  0.00  0.00    +0.166 HD
ATOM      7  C   UNL     1       0.024  -0.827   1.095  0.00  0.00    +0.128 A 
ATOM      8  C   UNL     1       0.031  -3.337  -1.615  0.00  0.00    +0.058 C 
ATOM      9  C   UNL     1      -0.488  -2.894  -2.987  0.00  0.00    +0.013 C 
ATOM     10  C   UNL     1       0.287  -1.673  -3.491  0.00  0.00    +0.172 C 
ATOM     11  C   UNL     1       0.002  -0.505  -2.559  0.00  0.00    +0.179 C 
ATOM     12  O   UNL     1      -0.215   0.617  -2.968  0.00  0.00    -0.291 OA
ATOM     13  C   UNL     1      -1.972  -2.537  -2.873  0.00  0.00    +0.009 C 
ENDROOT
BRANCH   7  14
ATOM     14  C   UNL     1       0.033  -0.393   2.495  0.00  0.00    +0.356 C 
ATOM     15  O   UNL     1       0.021   0.793   2.764  0.00  0.00    -0.243 OA
BRANCH  14  16
ATOM     16  O   UNL     1       0.055  -1.308   3.485  0.00  0.00    -0.457 OA
BRANCH  16  17
ATOM     17  C   UNL     1       0.063  -0.814   4.826  0.00  0.00    +0.177 C 
ATOM     18  C   UNL     1      -1.377  -0.656   5.320  0.00  0.00    +0.044 C 
ATOM     19  C   UNL     1      -1.369  -0.127   6.755  0.00  0.00    +0.004 C 
ATOM     20  C   UNL     1      -0.625  -1.114   7.658  0.00  0.00    +0.000 C 
ATOM     21  C   UNL     1       0.814  -1.271   7.165  0.00  0.00    +0.004 C 
ATOM     22  C   UNL     1       0.806  -1.800   5.729  0.00  0.00    +0.044 C 
ENDBRANCH  16  17
ENDBRANCH  14  16
ENDBRANCH   7  14
BRANCH  10  23
ATOM     23  C   UNL     1      -0.161  -1.329  -4.888  0.00  0.00    +0.318 C 
ATOM     24  O   UNL     1      -1.014  -1.992  -5.429  0.00  0.00    -0.250 OA
BRANCH  23  25
ATOM     25  O   UNL     1       0.388  -0.286  -5.531  0.00  0.00    -0.467 OA
ATOM     26  C   UNL     1      -0.085  -0.018  -6.853  0.00  0.00    +0.280 C 
ENDBRANCH  23  25
ENDBRANCH  10  23
TORSDOF 5
