REMARK  Name = ZINC39567250
REMARK  9 active torsions:
REMARK  status: ('A' for Active; 'I' for Inactive)
REMARK    1  A    between atoms: C_1  and  C_2
REMARK    2  A    between atoms: C_2  and  C_3
REMARK    3  A    between atoms: C_10  and  C_12
REMARK    4  A    between atoms: C_12  and  C_14
REMARK    5  A    between atoms: C_12  and  O_15
REMARK    6  A    between atoms: O_15  and  C_16
REMARK    7  A    between atoms: C_16  and  C_18
REMARK    8  A    between atoms: C_20  and  C_25
REMARK    9  A    between atoms: C_23  and  O_24
REMARK                            x       y       z     vdW  Elec       q    Type
REMARK                         _______ _______ _______ _____ _____    ______ ____
ROOT
ATOM      1  C   UNL     1      -1.847   1.288  -3.519  0.00  0.00    +0.259 C 
ATOM      2  C   UNL     1      -0.991   2.172  -4.427  0.00  0.00    +0.062 C 
ENDROOT
BRANCH   1   9
ATOM      3  C   UNL     1       0.788  -0.357  -1.268  0.00  0.00    +0.076 C 
ATOM      4  C   UNL     1       0.914  -1.882  -1.328  0.00  0.00    +0.022 C 
ATOM      5  C   UNL     1       1.540  -2.286  -2.665  0.00  0.00    +0.003 C 
ATOM      6  C   UNL     1       0.634  -1.831  -3.812  0.00  0.00    +0.019 C 
ATOM      7  C   UNL     1       0.504  -0.305  -3.780  0.00  0.00    +0.108 C 
ATOM      8  N   UNL     1       0.042   0.105  -2.446  0.00  0.00    -0.295 N 
ATOM      9  C   UNL     1      -1.047   0.887  -2.307  0.00  0.00    +0.256 C 
ATOM     10  O   UNL     1      -1.382   1.269  -1.205  0.00  0.00    -0.272 OA
BRANCH   3  12
ATOM     11  C   UNL     1       0.801  -0.463   1.229  0.00  0.00    +0.006 C 
ATOM     12  C   UNL     1       0.038   0.046   0.004  0.00  0.00    +0.019 C 
ENDBRANCH   3  12
ENDBRANCH   1   9
BRANCH   1  13
ATOM     13  O   UNL     1      -3.008   2.012  -3.106  0.00  0.00    -0.449 OA
BRANCH  13  14
ATOM     14  C   UNL     1      -4.101   1.915  -3.888  0.00  0.00    +0.343 C 
ATOM     15  O   UNL     1      -4.069   1.234  -4.894  0.00  0.00    -0.245 OA
BRANCH  14  16
ATOM     16  C   UNL     1      -5.334   2.635  -3.524  0.00  0.00    +0.101 A 
ATOM     17  C   UNL     1      -5.373   3.425  -2.371  0.00  0.00    +0.022 A 
ATOM     18  C   UNL     1      -6.529   4.095  -2.036  0.00  0.00    -0.049 A 
ATOM     19  C   UNL     1      -7.655   3.990  -2.837  0.00  0.00    +0.007 A 
ATOM     20  C   UNL     1      -7.630   3.214  -3.979  0.00  0.00    +0.046 A 
ATOM     21  C   UNL     1      -6.473   2.537  -4.335  0.00  0.00    +0.131 A 
ATOM     22  C   UNL     1      -6.569   4.946  -0.793  0.00  0.00    +0.044 C 
BRANCH  21  23
ATOM     23  O   UNL     1      -6.446   1.778  -5.459  0.00  0.00    -0.506 OA
ATOM     24  H   UNL     1      -6.710   0.859  -5.319  0.00  0.00    +0.292 HD
ENDBRANCH  21  23
ENDBRANCH  14  16
ENDBRANCH  13  14
ENDBRANCH   1  13
TORSDOF 6
