REMARK  Name = ZINC05272260
REMARK  6 active torsions:
REMARK  status: ('A' for Active; 'I' for Inactive)
REMARK    1  A    between atoms: C_1  and  C_2
REMARK    2  A    between atoms: C_5  and  C_9
REMARK    3  A    between atoms: C_6  and  C_8
REMARK    4  A    between atoms: N_11  and  N_12
REMARK    5  A    between atoms: C_13  and  C_15
REMARK    6  A    between atoms: C_22  and  C_25
REMARK                            x       y       z     vdW  Elec       q    Type
REMARK                         _______ _______ _______ _____ _____    ______ ____
ROOT
ATOM      1  N   UNL     1       4.500   5.888   0.266  0.00  0.00    -0.230 N 
ATOM      2  C   UNL     1       4.701   4.669   0.803  0.00  0.00    +0.267 C 
ATOM      3  O   UNL     1       5.835   4.260   0.975  0.00  0.00    -0.268 OA
ATOM      4  H   UNL     1       3.596   6.215   0.129  0.00  0.00    +0.173 HD
ENDROOT
BRANCH   2   5
ATOM      5  C   UNL     1       3.556   3.836   1.181  0.00  0.00    +0.076 A 
ATOM      6  C   UNL     1       3.544   2.571   1.740  0.00  0.00    +0.024 A 
ATOM      7  C   UNL     1       2.317   1.986   2.009  0.00  0.00    -0.036 A 
ATOM      8  C   UNL     1       1.206   2.716   1.695  0.00  0.00    -0.006 A 
ATOM      9  S   UNL     1       1.812   4.189   1.040  0.00  0.00    -0.088 S 
ATOM     10  C   UNL     1      -0.223   2.311   1.885  0.00  0.00    +0.043 C 
ATOM     11  C   UNL     1      -0.268   0.798   2.142  0.00  0.00    +0.009 C 
ATOM     12  C   UNL     1       0.777   0.449   3.207  0.00  0.00    -0.009 C 
ATOM     13  C   UNL     1       2.183   0.596   2.625  0.00  0.00    +0.039 C 
ATOM     14  C   UNL     1       0.567  -0.995   3.670  0.00  0.00    +0.008 C 
ENDBRANCH   2   5
BRANCH   1  17
ATOM     15  C   UNL     1       5.393   7.904  -0.633  0.00  0.00    +0.260 C 
ATOM     16  O   UNL     1       4.261   8.313  -0.805  0.00  0.00    -0.269 OA
ATOM     17  N   UNL     1       5.594   6.684  -0.095  0.00  0.00    -0.230 N 
ATOM     18  H   UNL     1       6.497   6.358   0.042  0.00  0.00    +0.173 HD
BRANCH  15  23
ATOM     19  C   UNL     1       9.889  11.174  -2.117  0.00  0.00    +0.044 C 
ATOM     20  C   UNL     1       8.712  10.318  -1.728  0.00  0.00    -0.050 A 
ATOM     21  C   UNL     1       8.919   9.122  -1.063  0.00  0.00    +0.004 A 
ATOM     22  C   UNL     1       7.845   8.336  -0.700  0.00  0.00    +0.013 A 
ATOM     23  C   UNL     1       6.548   8.744  -1.014  0.00  0.00    +0.041 A 
ATOM     24  C   UNL     1       6.346   9.951  -1.685  0.00  0.00    -0.038 A 
ATOM     25  C   UNL     1       7.428  10.730  -2.038  0.00  0.00    +0.007 A 
ATOM     26  C   UNL     1       4.948  10.402  -2.023  0.00  0.00    +0.044 C 
ENDBRANCH  15  23
ENDBRANCH   1  17
TORSDOF 3
