REMARK  Name = ZINC57510548
REMARK  11 active torsions:
REMARK  status: ('A' for Active; 'I' for Inactive)
REMARK    1  A    between atoms: C_1  and  C_2
REMARK    2  A    between atoms: C_2  and  N_3
REMARK    3  A    between atoms: C_15  and  C_23
REMARK    4  A    between atoms: C_17  and  C_21
REMARK    5  A    between atoms: C_18  and  N_20
REMARK    6  A    between atoms: C_25  and  O_33
REMARK    7  A    between atoms: C_26  and  O_31
REMARK    8  A    between atoms: C_27  and  O_29
REMARK    9  A    between atoms: O_29  and  C_30
REMARK   10  A    between atoms: O_31  and  C_32
REMARK   11  A    between atoms: O_33  and  C_34
REMARK                            x       y       z     vdW  Elec       q    Type
REMARK                         _______ _______ _______ _____ _____    ______ ____
ROOT
ATOM      1  N   UNL     1       0.688  -0.476  -1.203  0.00  0.00    -0.203 N 
ATOM      2  C   UNL     1       0.012  -0.619  -2.421  0.00  0.00    +0.062 A 
ATOM      3  C   UNL     1      -1.340  -0.938  -2.400  0.00  0.00    +0.025 A 
ATOM      4  C   UNL     1      -2.034  -1.095  -3.583  0.00  0.00    +0.002 A 
ATOM      5  C   UNL     1      -1.384  -0.935  -4.795  0.00  0.00    +0.001 A 
ATOM      6  C   UNL     1      -0.044  -0.615  -4.830  0.00  0.00    +0.013 A 
ATOM      7  C   UNL     1       0.673  -0.448  -3.638  0.00  0.00    +0.042 A 
ATOM      8  C   UNL     1       2.106  -0.083  -3.739  0.00  0.00    +0.162 C 
ATOM      9  C   UNL     1       2.937  -0.227  -2.711  0.00  0.00    +0.141 C 
ATOM     10  S   UNL     1       2.308  -0.861  -1.188  0.00  0.00    +0.075 S 
ATOM     11  O   UNL     1       2.399  -2.277  -1.263  0.00  0.00    -0.150 OA
ATOM     12  O   UNL     1       2.905  -0.105  -0.144  0.00  0.00    -0.150 OA
ATOM     13  C   UNL     1       4.391   0.140  -2.811  0.00  0.00    +0.118 C 
ATOM     14  C   UNL     1       4.802   0.246  -4.254  0.00  0.00    +0.099 C 
ATOM     15  C   UNL     1       3.862   0.372  -5.224  0.00  0.00    +0.199 C 
ATOM     16  O   UNL     1       2.553   0.409  -4.925  0.00  0.00    -0.439 OA
ENDROOT
BRANCH  13  17
ATOM     17  C   UNL     1       4.620   1.466  -2.131  0.00  0.00    -0.026 A 
ATOM     18  C   UNL     1       3.953   2.592  -2.575  0.00  0.00    +0.054 A 
ATOM     19  C   UNL     1       4.161   3.814  -1.953  0.00  0.00    +0.165 A 
ATOM     20  C   UNL     1       5.041   3.905  -0.882  0.00  0.00    +0.204 A 
ATOM     21  C   UNL     1       5.710   2.771  -0.439  0.00  0.00    +0.165 A 
ATOM     22  C   UNL     1       5.493   1.552  -1.063  0.00  0.00    +0.054 A 
BRANCH  21  23
ATOM     23  O   UNL     1       6.573   2.855   0.609  0.00  0.00    -0.491 OA
ATOM     24  C   UNL     1       7.225   1.648   1.011  0.00  0.00    +0.277 C 
ENDBRANCH  21  23
BRANCH  20  25
ATOM     25  O   UNL     1       5.248   5.103  -0.269  0.00  0.00    -0.488 OA
ATOM     26  C   UNL     1       4.393   5.426   0.829  0.00  0.00    +0.277 C 
ENDBRANCH  20  25
BRANCH  19  27
ATOM     27  O   UNL     1       3.504   4.921  -2.392  0.00  0.00    -0.491 OA
ATOM     28  C   UNL     1       2.615   4.753  -3.497  0.00  0.00    +0.277 C 
ENDBRANCH  19  27
ENDBRANCH  13  17
BRANCH  15  29
ATOM     29  N   UNL     1       4.255   0.463  -6.536  0.00  0.00    -0.328 N 
ATOM     30  H   UNL     1       5.198   0.438  -6.762  0.00  0.00    +0.145 HD
ATOM     31  H   UNL     1       3.590   0.554  -7.236  0.00  0.00    +0.145 HD
ENDBRANCH  15  29
BRANCH   1  33
ATOM     32  C   UNL     1      -0.019   1.526   0.010  0.00  0.00    +0.026 C 
ATOM     33  C   UNL     1       0.002  -0.004   0.002  0.00  0.00    +0.128 C 
ENDBRANCH   1  33
BRANCH  14  34
ATOM     34  C   UNL     1       6.190   0.212  -4.606  0.00  0.00    +0.101 C 
ATOM     35  N   UNL     1       7.291   0.186  -4.884  0.00  0.00    -0.191 NA
ENDBRANCH  14  34
TORSDOF 7
