REMARK  Name = ZINC67320951
REMARK  4 active torsions:
REMARK  status: ('A' for Active; 'I' for Inactive)
REMARK    1  A    between atoms: C_1  and  C_2
REMARK    2  A    between atoms: C_6  and  C_8
REMARK    3  A    between atoms: C_21  and  C_23
REMARK    4  A    between atoms: C_28  and  C_31
REMARK                            x       y       z     vdW  Elec       q    Type
REMARK                         _______ _______ _______ _____ _____    ______ ____
ROOT
ATOM      1  C   UNL     1       0.054  -2.845   2.489  0.00  0.00    +0.083 C 
ATOM      2  C   UNL     1      -1.164  -3.725   2.570  0.00  0.00    +0.066 A 
ATOM      3  C   UNL     1      -2.331  -3.265   3.186  0.00  0.00    +0.258 A 
ATOM      4  O   UNL     1      -2.379  -2.146   3.674  0.00  0.00    -0.267 OA
ATOM      5  N   UNL     1      -3.405  -4.082   3.231  0.00  0.00    -0.295 N 
ATOM      6  H   UNL     1      -4.223  -3.785   3.661  0.00  0.00    +0.172 HD
ATOM      7  C   UNL     1      -3.342  -5.321   2.673  0.00  0.00    +0.200 A 
ATOM      8  N   UNL     1      -2.244  -5.760   2.094  0.00  0.00    -0.200 NA
ATOM      9  C   UNL     1      -1.143  -5.001   2.034  0.00  0.00    +0.138 A 
ATOM     10  N   UNL     1       0.014  -5.497   1.460  0.00  0.00    -0.269 N 
ATOM     11  C   UNL     1       1.194  -4.880   1.639  0.00  0.00    +0.236 C 
ATOM     12  O   UNL     1       2.172  -5.272   1.038  0.00  0.00    -0.274 OA
ATOM     13  C   UNL     1       1.315  -3.707   2.574  0.00  0.00    +0.189 C 
ATOM     14  N   UNL     1      -4.446  -6.131   2.714  0.00  0.00    -0.301 N 
ATOM     15  C   UNL     1      -4.450  -7.426   2.021  0.00  0.00    +0.108 C 
ATOM     16  C   UNL     1      -4.841  -8.519   3.020  0.00  0.00    +0.022 C 
ATOM     17  C   UNL     1      -6.175  -8.152   3.675  0.00  0.00    -0.011 C 
ATOM     18  C   UNL     1      -6.025  -6.833   4.436  0.00  0.00    +0.022 C 
ATOM     19  C   UNL     1      -5.646  -5.723   3.458  0.00  0.00    +0.108 C 
ATOM     20  C   UNL     1      -6.586  -9.258   4.649  0.00  0.00    +0.007 C 
ATOM     21  H   UNL     1      -0.028  -6.303   0.920  0.00  0.00    +0.156 HD
ENDROOT
BRANCH   1  27
ATOM     22  C   UNL     1      -0.004   1.481  -0.028  0.00  0.00    +0.044 C 
ATOM     23  C   UNL     1       0.017  -0.026  -0.023  0.00  0.00    -0.050 A 
ATOM     24  C   UNL     1       0.029  -0.721  -1.218  0.00  0.00    +0.003 A 
ATOM     25  C   UNL     1       0.048  -2.103  -1.213  0.00  0.00    +0.001 A 
ATOM     26  C   UNL     1       0.056  -2.791  -0.014  0.00  0.00    +0.004 A 
ATOM     27  C   UNL     1       0.046  -2.096   1.181  0.00  0.00    -0.038 A 
ATOM     28  C   UNL     1       0.031  -0.713   1.177  0.00  0.00    +0.007 A 
ENDBRANCH   1  27
BRANCH  13  29
ATOM     29  C   UNL     1       2.487  -2.899   2.197  0.00  0.00    +0.076 C 
ATOM     30  N   UNL     1       3.391  -2.276   1.906  0.00  0.00    -0.196 NA
ENDBRANCH  13  29
TORSDOF 2
