REMARK  Name = ZINC00709738
REMARK  7 active torsions:
REMARK  status: ('A' for Active; 'I' for Inactive)
REMARK    1  A    between atoms: C_1  and  O_2
REMARK    2  A    between atoms: O_2  and  C_3
REMARK    3  A    between atoms: C_6  and  C_11
REMARK    4  A    between atoms: C_8  and  O_9
REMARK    5  A    between atoms: O_9  and  C_10
REMARK    6  A    between atoms: C_16  and  C_26
REMARK    7  A    between atoms: C_31  and  N_32
REMARK                            x       y       z     vdW  Elec       q    Type
REMARK                         _______ _______ _______ _____ _____    ______ ____
ROOT
ATOM      1  C   UNL     1      -2.473   0.943  -0.049  0.00  0.00    +0.032 C 
ATOM      2  C   UNL     1      -2.583   0.037  -1.274  0.00  0.00    +0.059 C 
ATOM      3  C   UNL     1      -3.889  -0.739  -1.228  0.00  0.00    +0.017 C 
ATOM      4  C   UNL     1      -4.419  -1.110  -0.051  0.00  0.00    +0.036 C 
ATOM      5  C   UNL     1      -5.691  -1.901   0.139  0.00  0.00    +0.138 C 
ATOM      6  N   UNL     1      -6.495  -2.037  -1.057  0.00  0.00    -0.331 N 
ATOM      7  C   UNL     1      -6.025  -2.740  -2.165  0.00  0.00    +0.049 A 
ATOM      8  C   UNL     1      -6.597  -3.940  -2.556  0.00  0.00    +0.025 A 
ATOM      9  C   UNL     1      -6.030  -4.658  -3.595  0.00  0.00    +0.002 A 
ATOM     10  C   UNL     1      -4.903  -4.182  -4.240  0.00  0.00    +0.002 A 
ATOM     11  C   UNL     1      -4.341  -2.973  -3.866  0.00  0.00    +0.025 A 
ATOM     12  C   UNL     1      -4.918  -2.247  -2.839  0.00  0.00    +0.052 A 
ATOM     13  N   UNL     1      -4.432  -1.006  -2.443  0.00  0.00    -0.316 N 
ATOM     14  C   UNL     1      -3.778  -0.759   1.161  0.00  0.00    +0.163 C 
ATOM     15  O   UNL     1      -4.267  -1.128   2.211  0.00  0.00    -0.292 OA
ATOM     16  C   UNL     1      -2.516   0.050   1.197  0.00  0.00    +0.088 C 
ATOM     17  H   UNL     1      -7.376  -1.633  -1.088  0.00  0.00    +0.147 HD
ATOM     18  H   UNL     1      -4.486  -0.277  -3.081  0.00  0.00    +0.152 HD
ENDROOT
BRANCH   5  19
ATOM     19  C   UNL     1      -5.329  -3.278   0.631  0.00  0.00    +0.011 A 
ATOM     20  C   UNL     1      -4.037  -3.746   0.482  0.00  0.00    +0.057 A 
ATOM     21  C   UNL     1      -3.700  -5.010   0.937  0.00  0.00    +0.167 A 
ATOM     22  C   UNL     1      -4.670  -5.811   1.536  0.00  0.00    +0.168 A 
ATOM     23  C   UNL     1      -5.963  -5.338   1.678  0.00  0.00    +0.082 A 
ATOM     24  C   UNL     1      -6.291  -4.073   1.225  0.00  0.00    +0.135 A 
ATOM     25  O   UNL     1      -4.096  -6.999   1.890  0.00  0.00    -0.453 OA
ATOM     26  C   UNL     1      -2.677  -6.760   1.873  0.00  0.00    +0.466 C 
ATOM     27  O   UNL     1      -2.520  -5.696   0.916  0.00  0.00    -0.453 OA
BRANCH  24  28
ATOM     28  N   UNL     1      -7.674  -3.569   1.378  0.00  0.00    +0.057 N 
ATOM     29  O   UNL     1      -8.497  -4.225   1.991  0.00  0.00    -0.126 OA
ATOM     30  O   UNL     1      -7.990  -2.499   0.890  0.00  0.00    -0.126 OA
ENDBRANCH  24  28
ENDBRANCH   5  19
BRANCH   1  34
ATOM     31  C   UNL     1       1.226   3.087  -0.169  0.00  0.00    +0.161 A 
ATOM     32  C   UNL     1       1.224   1.701  -0.177  0.00  0.00    +0.049 A 
ATOM     33  C   UNL     1       0.027   1.011  -0.135  0.00  0.00    +0.008 A 
ATOM     34  C   UNL     1      -1.170   1.700  -0.089  0.00  0.00    -0.040 A 
ATOM     35  C   UNL     1      -1.176   3.083  -0.074  0.00  0.00    +0.053 A 
ATOM     36  C   UNL     1       0.021   3.780  -0.117  0.00  0.00    +0.162 A 
BRANCH  31  38
ATOM     37  C   UNL     1       3.600   2.989  -0.263  0.00  0.00    +0.277 C 
ATOM     38  O   UNL     1       2.402   3.767  -0.210  0.00  0.00    -0.491 OA
ENDBRANCH  31  38
BRANCH  36  39
ATOM     39  O   UNL     1       0.017   5.140  -0.107  0.00  0.00    -0.491 OA
ATOM     40  C   UNL     1      -1.257   5.785  -0.053  0.00  0.00    +0.277 C 
ENDBRANCH  36  39
ENDBRANCH   1  34
TORSDOF 5
