REMARK  Name = ZINC04967707
REMARK  5 active torsions:
REMARK  status: ('A' for Active; 'I' for Inactive)
REMARK    1  A    between atoms: C_5  and  C_7
REMARK    2  A    between atoms: C_7  and  O_24
REMARK    3  A    between atoms: C_12  and  C_13
REMARK    4  A    between atoms: C_12  and  N_52
REMARK    5  A    between atoms: N_17  and  C_18
REMARK                            x       y       z     vdW  Elec       q    Type
REMARK                         _______ _______ _______ _____ _____    ______ ____
ROOT
ATOM      1  C   UNL     1       4.171   0.442  -3.686  0.00  0.00    +0.090 C 
ATOM      2  C   UNL     1       4.871   1.572  -2.925  0.00  0.00    +0.021 C 
ATOM      3  C   UNL     1       4.415   1.555  -1.465  0.00  0.00    -0.075 C 
ATOM      4  C   UNL     1       2.264   0.630  -2.086  0.00  0.00    -0.075 C 
ATOM      5  C   UNL     1       2.655   0.619  -3.566  0.00  0.00    +0.021 C 
ATOM      6  N   UNL     1       2.951   1.754  -1.416  0.00  0.00    +0.385 N 
ATOM      7  H   UNL     1       2.717   2.627  -1.905  0.00  0.00    -0.081 HD
ENDROOT
BRANCH   1  12
ATOM      8  C   UNL     1       5.572  -0.548  -7.049  0.00  0.00    +0.001 A 
ATOM      9  C   UNL     1       5.301   0.578  -7.805  0.00  0.00    +0.003 A 
ATOM     10  C   UNL     1       4.665   1.661  -7.229  0.00  0.00    +0.039 A 
ATOM     11  C   UNL     1       4.294   1.616  -5.895  0.00  0.00    +0.129 A 
ATOM     12  C   UNL     1       4.570   0.490  -5.138  0.00  0.00    +0.019 A 
ATOM     13  C   UNL     1       5.206  -0.592  -5.717  0.00  0.00    +0.009 A 
ATOM     14  F   UNL     1       3.667   2.672  -5.332  0.00  0.00    -0.205 F 
ENDBRANCH   1  12
BRANCH   1  15
ATOM     15  O   UNL     1       4.551  -0.817  -3.127  0.00  0.00    -0.384 OA
ATOM     16  H   UNL     1       4.144  -1.579  -3.561  0.00  0.00    +0.211 HD
ENDBRANCH   1  15
BRANCH   6  17
ATOM     17  C   UNL     1       2.502   1.856  -0.013  0.00  0.00    +0.000 C 
BRANCH  17  18
ATOM     18  C   UNL     1       1.054   2.275   0.004  0.00  0.00    +0.135 A 
ATOM     19  N   UNL     1       0.594   3.502   0.015  0.00  0.00    -0.115 NA
ATOM     20  N   UNL     1      -0.693   3.445   0.027  0.00  0.00    -0.023 NA
ATOM     21  N   UNL     1      -1.066   2.213   0.018  0.00  0.00    -0.044 NA
ATOM     22  N   UNL     1      -0.018   1.461   0.010  0.00  0.00    -0.228 N 
BRANCH  22  23
ATOM     23  C   UNL     1       0.002  -0.004   0.002  0.00  0.00    +0.111 C 
ATOM     24  C   UNL     1      -0.724  -0.517  -1.243  0.00  0.00    +0.027 C 
ATOM     25  C   UNL     1      -0.703  -2.047  -1.252  0.00  0.00    +0.002 C 
ATOM     26  C   UNL     1      -1.406  -2.573   0.002  0.00  0.00    +0.000 C 
ATOM     27  C   UNL     1      -0.679  -2.060   1.247  0.00  0.00    +0.002 C 
ATOM     28  C   UNL     1      -0.700  -0.530   1.255  0.00  0.00    +0.027 C 
ENDBRANCH  22  23
ENDBRANCH  17  18
ENDBRANCH   6  17
TORSDOF 5
