REMARK  Name = ZINC34107808
REMARK  9 active torsions:
REMARK  status: ('A' for Active; 'I' for Inactive)
REMARK    1  A    between atoms: C_1  and  C_2
REMARK    2  A    between atoms: C_5  and  O_9
REMARK    3  A    between atoms: C_6  and  C_8
REMARK    4  A    between atoms: O_9  and  C_10
REMARK    5  A    between atoms: C_10  and  C_11
REMARK    6  A    between atoms: N_13  and  N_14
REMARK    7  A    between atoms: C_17  and  C_23
REMARK    8  A    between atoms: C_21  and  C_22
REMARK    9  A    between atoms: C_23  and  C_25
REMARK                            x       y       z     vdW  Elec       q    Type
REMARK                         _______ _______ _______ _____ _____    ______ ____
ROOT
ATOM      1  C   UNL     1       0.558  -6.288  -1.141  0.00  0.00    +0.270 C 
ATOM      2  O   UNL     1       0.198  -6.670  -0.048  0.00  0.00    -0.270 OA
ATOM      3  N   UNL     1       0.560  -7.140  -2.186  0.00  0.00    -0.204 N 
ATOM      4  H   UNL     1       0.848  -6.835  -3.060  0.00  0.00    +0.177 HD
ENDROOT
BRANCH   3   5
ATOM      5  N   UNL     1       0.144  -8.466  -2.008  0.00  0.00    -0.185 NA
ATOM      6  C   UNL     1       0.032  -9.255  -3.035  0.00  0.00    +0.062 C 
ATOM      7  C   UNL     1      -0.071 -10.757  -2.863  0.00  0.00    +0.065 C 
ATOM      8  C   UNL     1       0.806 -11.400  -3.946  0.00  0.00    +0.024 C 
ATOM      9  C   UNL     1       0.262 -11.016  -5.321  0.00  0.00    +0.035 C 
ATOM     10  C   UNL     1       0.109  -9.529  -5.448  0.00  0.00    -0.021 C 
ATOM     11  C   UNL     1      -0.007  -8.720  -4.405  0.00  0.00    -0.032 C 
ATOM     12  C   UNL     1      -0.174  -7.238  -4.623  0.00  0.00    +0.045 C 
BRANCH   8  13
ATOM     13  C   UNL     1       0.778 -12.899  -3.793  0.00  0.00    -0.076 C 
ATOM     14  C   UNL     1       1.890 -13.556  -3.571  0.00  0.00    +0.007 C 
ATOM     15  C   UNL     1      -0.528 -13.643  -3.894  0.00  0.00    +0.039 C 
ENDBRANCH   8  13
ENDBRANCH   3   5
BRANCH   1  16
ATOM     16  C   UNL     1       1.005  -4.862  -1.332  0.00  0.00    +0.326 C 
BRANCH  16  17
ATOM     17  O   UNL     1       0.915  -4.164  -0.088  0.00  0.00    -0.482 OA
BRANCH  17  22
ATOM     18  C   UNL     1       2.441   1.258  -0.081  0.00  0.00    +0.044 C 
ATOM     19  C   UNL     1       2.033  -0.193  -0.083  0.00  0.00    -0.050 A 
ATOM     20  C   UNL     1       2.098  -0.927  -1.253  0.00  0.00    +0.007 A 
ATOM     21  C   UNL     1       1.724  -2.256  -1.258  0.00  0.00    +0.046 A 
ATOM     22  C   UNL     1       1.283  -2.856  -0.086  0.00  0.00    +0.124 A 
ATOM     23  C   UNL     1       1.220  -2.118   1.086  0.00  0.00    -0.009 A 
ATOM     24  C   UNL     1       1.600  -0.789   1.087  0.00  0.00    +0.010 A 
ATOM     25  C   UNL     1       0.742  -2.766   2.360  0.00  0.00    +0.047 C 
ENDBRANCH  17  22
ENDBRANCH  16  17
ENDBRANCH   1  16
TORSDOF 5
