REMARK  Name = ZINC35000553
REMARK  11 active torsions:
REMARK  status: ('A' for Active; 'I' for Inactive)
REMARK    1  A    between atoms: C_1  and  C_2
REMARK    2  A    between atoms: C_2  and  C_3
REMARK    3  A    between atoms: C_3  and  C_5
REMARK    4  A    between atoms: C_3  and  C_6
REMARK    5  A    between atoms: C_6  and  C_8
REMARK    6  A    between atoms: C_6  and  N_25
REMARK    7  A    between atoms: C_14  and  C_17
REMARK    8  A    between atoms: C_18  and  C_20
REMARK    9  A    between atoms: N_28  and  C_29
REMARK   10  A    between atoms: C_30  and  C_36
REMARK   11  A    between atoms: C_34  and  C_35
REMARK                            x       y       z     vdW  Elec       q    Type
REMARK                         _______ _______ _______ _____ _____    ______ ____
ROOT
ATOM      1  C   UNL     1      -0.121  -1.493   0.461  0.00  0.00    +0.163 C 
ENDROOT
BRANCH   1   2
ATOM      2  C   UNL     1       0.317  -1.452   1.903  0.00  0.00    +0.236 C 
ATOM      3  O   UNL     1       0.964  -2.367   2.366  0.00  0.00    -0.274 OA
ATOM      4  N   UNL     1      -0.011  -0.399   2.677  0.00  0.00    -0.297 N 
ATOM      5  C   UNL     1      -0.892   0.660   2.166  0.00  0.00    +0.127 C 
ATOM      6  C   UNL     1      -0.175   2.008   2.313  0.00  0.00    +0.127 C 
ATOM      7  N   UNL     1       0.342   2.118   3.684  0.00  0.00    -0.289 N 
ATOM      8  C   UNL     1       1.223   1.058   4.196  0.00  0.00    +0.091 C 
ATOM      9  C   UNL     1       0.501  -0.292   4.050  0.00  0.00    +0.130 C 
ATOM     10  C   UNL     1       2.525   1.042   3.393  0.00  0.00    +0.029 C 
ATOM     11  C   UNL     1       0.014   3.171   4.458  0.00  0.00    +0.282 C 
ATOM     12  O   UNL     1       0.329   3.183   5.634  0.00  0.00    -0.267 OA
BRANCH  11  13
ATOM     13  C   UNL     1      -0.722   4.302   3.885  0.00  0.00    +0.189 A 
ATOM     14  C   UNL     1      -1.230   5.363   4.578  0.00  0.00    +0.054 A 
ATOM     15  C   UNL     1      -1.850   6.200   3.637  0.00  0.00    +0.042 A 
ATOM     16  C   UNL     1      -1.696   5.620   2.426  0.00  0.00    +0.196 A 
ATOM     17  O   UNL     1      -1.012   4.479   2.579  0.00  0.00    -0.458 OA
ENDBRANCH  11  13
ENDBRANCH   1   2
BRANCH   1  18
ATOM     18  N   UNL     1      -0.113  -2.879  -0.013  0.00  0.00    -0.288 N 
ATOM     19  C   UNL     1      -0.906  -3.245  -1.039  0.00  0.00    +0.304 C 
ATOM     20  O   UNL     1      -1.629  -2.425  -1.571  0.00  0.00    -0.252 OA
ATOM     21  N   UNL     1      -0.898  -4.520  -1.476  0.00  0.00    -0.269 N 
ATOM     22  H   UNL     1       0.464  -3.533   0.412  0.00  0.00    +0.151 HD
ATOM     23  H   UNL     1      -0.352  -5.183  -1.025  0.00  0.00    +0.156 HD
BRANCH  21  24
ATOM     24  C   UNL     1      -1.678  -4.887  -2.578  0.00  0.00    +0.041 A 
ATOM     25  C   UNL     1      -1.078  -5.443  -3.700  0.00  0.00    -0.029 A 
ATOM     26  C   UNL     1      -1.851  -5.805  -4.786  0.00  0.00    +0.005 A 
ATOM     27  C   UNL     1      -3.220  -5.614  -4.757  0.00  0.00    +0.001 A 
ATOM     28  C   UNL     1      -3.820  -5.061  -3.641  0.00  0.00    +0.005 A 
ATOM     29  C   UNL     1      -3.054  -4.702  -2.549  0.00  0.00    -0.029 A 
ATOM     30  C   UNL     1      -3.709  -4.105  -1.331  0.00  0.00    +0.045 C 
ATOM     31  C   UNL     1       0.414  -5.650  -3.734  0.00  0.00    +0.045 C 
ENDBRANCH  21  24
ENDBRANCH   1  18
BRANCH   1  32
ATOM     32  C   UNL     1       0.839  -0.657  -0.387  0.00  0.00    +0.015 C 
ATOM     33  C   UNL     1       0.319  -0.584  -1.824  0.00  0.00    +0.010 C 
BRANCH  32  35
ATOM     34  C   UNL     1       3.214  -0.409  -1.123  0.00  0.00    +0.004 C 
ATOM     35  C   UNL     1       2.224  -1.308  -0.379  0.00  0.00    +0.002 C 
ENDBRANCH  32  35
ENDBRANCH   1  32
TORSDOF 6
