REMARK  Name = ZINC09152157
REMARK  10 active torsions:
REMARK  status: ('A' for Active; 'I' for Inactive)
REMARK    1  A    between atoms: C_1  and  C_2
REMARK    2  A    between atoms: C_5  and  S_8
REMARK    3  A    between atoms: S_8  and  C_11
REMARK    4  A    between atoms: C_14  and  S_18
REMARK    5  A    between atoms: C_16  and  N_17
REMARK    6  A    between atoms: S_18  and  C_19
REMARK    7  A    between atoms: C_19  and  C_20
REMARK    8  A    between atoms: N_22  and  C_23
REMARK    9  A    between atoms: C_27  and  S_29
REMARK   10  A    between atoms: S_29  and  C_30
REMARK                            x       y       z     vdW  Elec       q    Type
REMARK                         _______ _______ _______ _____ _____    ______ ____
ROOT
ATOM      1  C   UNL     1       1.668  12.405   0.441  0.00  0.00    +0.151 A 
ATOM      2  C   UNL     1       0.509  11.676   0.254  0.00  0.00    +0.144 A 
ATOM      3  N   UNL     1       0.591  10.366   0.076  0.00  0.00    -0.228 NA
ATOM      4  C   UNL     1       1.763   9.748   0.085  0.00  0.00    +0.190 A 
ATOM      5  N   UNL     1       2.897  10.411   0.261  0.00  0.00    -0.205 NA
ATOM      6  C   UNL     1       2.889  11.728   0.440  0.00  0.00    +0.146 A 
ENDROOT
BRANCH   1   7
ATOM      7  S   UNL     1       1.605  14.151   0.674  0.00  0.00    +0.030 S 
ATOM      8  O   UNL     1       0.237  14.524   0.582  0.00  0.00    -0.164 OA
ATOM      9  O   UNL     1       2.397  14.436   1.819  0.00  0.00    -0.164 OA
BRANCH   7  14
ATOM     10  C   UNL     1       4.403  16.681  -4.035  0.00  0.00    +0.044 C 
ATOM     11  C   UNL     1       3.704  16.050  -2.859  0.00  0.00    -0.050 A 
ATOM     12  C   UNL     1       2.376  15.680  -2.961  0.00  0.00    +0.005 A 
ATOM     13  C   UNL     1       1.735  15.100  -1.882  0.00  0.00    +0.027 A 
ATOM     14  C   UNL     1       2.422  14.889  -0.701  0.00  0.00    +0.094 A 
ATOM     15  C   UNL     1       3.749  15.264  -0.597  0.00  0.00    +0.027 A 
ATOM     16  C   UNL     1       4.391  15.839  -1.678  0.00  0.00    +0.005 A 
ENDBRANCH   7  14
ENDBRANCH   1   7
BRANCH   6  17
ATOM     17  N   UNL     1       4.076  12.419   0.624  0.00  0.00    -0.342 N 
ATOM     18  H   UNL     1       4.925  11.963   0.514  0.00  0.00    +0.144 HD
ATOM     19  H   UNL     1       4.058  13.360   0.862  0.00  0.00    +0.144 HD
ENDBRANCH   6  17
BRANCH   4  20
ATOM     20  S   UNL     1       1.817   8.002  -0.149  0.00  0.00    -0.077 S 
BRANCH  20  21
ATOM     21  C   UNL     1       0.050   7.655  -0.329  0.00  0.00    +0.173 C 
BRANCH  21  22
ATOM     22  C   UNL     1      -0.152   6.177  -0.546  0.00  0.00    +0.227 C 
ATOM     23  O   UNL     1       0.805   5.433  -0.576  0.00  0.00    -0.275 OA
ATOM     24  N   UNL     1      -1.396   5.684  -0.707  0.00  0.00    -0.285 N 
ATOM     25  H   UNL     1      -2.155   6.286  -0.752  0.00  0.00    +0.155 HD
BRANCH  24  26
ATOM     26  C   UNL     1      -1.592   4.302  -0.808  0.00  0.00    +0.034 A 
ATOM     27  C   UNL     1      -0.786   3.430  -0.086  0.00  0.00    +0.023 A 
ATOM     28  C   UNL     1      -0.979   2.066  -0.185  0.00  0.00    +0.003 A 
ATOM     29  C   UNL     1      -1.974   1.563  -1.002  0.00  0.00    +0.015 A 
ATOM     30  C   UNL     1      -2.781   2.429  -1.730  0.00  0.00    +0.009 A 
ATOM     31  C   UNL     1      -2.592   3.801  -1.629  0.00  0.00    +0.038 A 
BRANCH  30  32
ATOM     32  S   UNL     1      -4.045   1.787  -2.776  0.00  0.00    -0.129 S 
ATOM     33  C   UNL     1      -3.910  -0.011  -2.575  0.00  0.00    +0.090 C 
ENDBRANCH  30  32
ENDBRANCH  24  26
ENDBRANCH  21  22
ENDBRANCH  20  21
ENDBRANCH   4  20
TORSDOF 8
