REMARK  Name = ZINC66984358
REMARK  2 active torsions:
REMARK  status: ('A' for Active; 'I' for Inactive)
REMARK    1  A    between atoms: C_9  and  N_14
REMARK    2  A    between atoms: C_23  and  C_25
REMARK                            x       y       z     vdW  Elec       q    Type
REMARK                         _______ _______ _______ _____ _____    ______ ____
ROOT
ATOM      1  N   UNL     1      -1.806   0.346  -1.361  0.00  0.00    -0.292 N 
ATOM      2  C   UNL     1      -2.506   1.397  -0.889  0.00  0.00    +0.303 C 
ATOM      3  O   UNL     1      -2.306   1.804   0.239  0.00  0.00    -0.253 OA
ATOM      4  N   UNL     1      -3.428   1.997  -1.669  0.00  0.00    -0.283 N 
ATOM      5  C   UNL     1      -3.765   1.444  -2.988  0.00  0.00    +0.128 C 
ATOM      6  C   UNL     1      -5.279   1.205  -3.046  0.00  0.00    +0.127 C 
ATOM      7  N   UNL     1      -5.965   2.423  -2.592  0.00  0.00    -0.298 N 
ATOM      8  C   UNL     1      -5.628   2.975  -1.272  0.00  0.00    +0.127 C 
ATOM      9  C   UNL     1      -4.118   3.211  -1.211  0.00  0.00    +0.128 C 
ATOM     10  C   UNL     1      -6.887   3.022  -3.371  0.00  0.00    +0.219 C 
ATOM     11  O   UNL     1      -7.232   2.503  -4.411  0.00  0.00    -0.275 OA
ATOM     12  H   UNL     1      -2.017  -0.026  -2.231  0.00  0.00    +0.151 HD
ENDROOT
BRANCH   1  21
ATOM     13  C   UNL     1       0.444   1.944  -0.862  0.00  0.00    +0.012 A 
ATOM     14  C   UNL     1       1.560   2.696  -1.063  0.00  0.00    +0.070 A 
ATOM     15  C   UNL     1       2.800   2.049  -1.203  0.00  0.00    +0.249 A 
ATOM     16  O   UNL     1       3.815   2.703  -1.379  0.00  0.00    -0.268 OA
ATOM     17  N   UNL     1       2.863   0.709  -1.143  0.00  0.00    -0.326 N 
ATOM     18  H   UNL     1       3.723   0.271  -1.240  0.00  0.00    +0.169 HD
ATOM     19  C   UNL     1       1.745  -0.051  -0.947  0.00  0.00    +0.024 A 
ATOM     20  C   UNL     1       0.543   0.540  -0.800  0.00  0.00    -0.008 A 
ATOM     21  C   UNL     1      -0.727  -0.234  -0.558  0.00  0.00    +0.106 C 
ATOM     22  C   UNL     1      -0.547  -1.701  -0.943  0.00  0.00    +0.027 C 
ATOM     23  C   UNL     1       0.724  -2.224  -0.262  0.00  0.00    +0.008 C 
ATOM     24  C   UNL     1       1.928  -1.547  -0.913  0.00  0.00    +0.054 C 
ENDBRANCH   1  21
BRANCH  10  25
ATOM     25  C   UNL     1      -7.489   4.338  -2.950  0.00  0.00    +0.075 C 
ATOM     26  C   UNL     1      -8.480   4.103  -1.807  0.00  0.00    +0.013 C 
ATOM     27  C   UNL     1      -9.091   5.439  -1.380  0.00  0.00    +0.001 C 
ATOM     28  C   UNL     1      -9.822   6.069  -2.567  0.00  0.00    +0.000 C 
ATOM     29  C   UNL     1      -8.831   6.304  -3.709  0.00  0.00    +0.001 C 
ATOM     30  C   UNL     1      -8.220   4.968  -4.137  0.00  0.00    +0.013 C 
ENDBRANCH  10  25
TORSDOF 2
