REMARK  Name = ZINC43474144
REMARK  5 active torsions:
REMARK  status: ('A' for Active; 'I' for Inactive)
REMARK    1  A    between atoms: N_8  and  C_12
REMARK    2  A    between atoms: C_12  and  C_13
REMARK    3  A    between atoms: C_13  and  C_14
REMARK    4  A    between atoms: C_14  and  N_15
REMARK    5  A    between atoms: C_22  and  O_25
REMARK                            x       y       z     vdW  Elec       q    Type
REMARK                         _______ _______ _______ _____ _____    ______ ____
ROOT
ATOM      1  C   UNL     1       3.107  -3.448  -3.332  0.00  0.00    +0.038 C 
ENDROOT
BRANCH   1   2
ATOM      2  C   UNL     1       1.851  -3.569  -2.467  0.00  0.00    +0.119 C 
BRANCH   2  10
ATOM      3  C   UNL     1      -0.021   1.544   0.004  0.00  0.00    +0.003 C 
ATOM      4  C   UNL     1       1.476   1.945  -0.006  0.00  0.00    +0.003 C 
ATOM      5  C   UNL     1       2.111   0.879  -0.938  0.00  0.00    +0.035 C 
ATOM      6  C   UNL     1       1.347  -0.408  -0.603  0.00  0.00    +0.113 C 
ATOM      7  C   UNL     1      -0.001  -0.000  -0.004  0.00  0.00    +0.035 C 
ATOM      8  C   UNL     1       1.163  -1.264  -1.831  0.00  0.00    +0.246 C 
ATOM      9  O   UNL     1       0.586  -0.966  -2.855  0.00  0.00    -0.273 OA
ATOM     10  N   UNL     1       1.779  -2.431  -1.547  0.00  0.00    -0.224 N 
ATOM     11  C   UNL     1       2.317  -2.420  -0.321  0.00  0.00    +0.309 C 
ATOM     12  O   UNL     1       2.923  -3.356   0.161  0.00  0.00    -0.252 OA
ATOM     13  N   UNL     1       2.109  -1.252   0.320  0.00  0.00    -0.285 N 
ATOM     14  H   UNL     1       2.405  -1.016   1.213  0.00  0.00    +0.151 HD
ENDBRANCH   2  10
ENDBRANCH   1   2
BRANCH   1  15
ATOM     15  C   UNL     1       3.182  -4.637  -4.292  0.00  0.00    +0.107 C 
BRANCH  15  16
ATOM     16  N   UNL     1       4.385  -4.521  -5.120  0.00  0.00    -0.299 N 
ATOM     17  C   UNL     1       4.660  -5.462  -6.045  0.00  0.00    +0.302 C 
ATOM     18  O   UNL     1       3.962  -6.453  -6.130  0.00  0.00    -0.253 OA
ATOM     19  N   UNL     1       5.710  -5.304  -6.875  0.00  0.00    -0.283 N 
ATOM     20  C   UNL     1       5.955  -6.261  -7.963  0.00  0.00    +0.109 C 
ATOM     21  C   UNL     1       6.068  -5.490  -9.282  0.00  0.00    +0.022 C 
ATOM     22  C   UNL     1       7.141  -4.407  -9.145  0.00  0.00    +0.034 C 
ATOM     23  C   UNL     1       6.737  -3.424  -8.044  0.00  0.00    +0.132 C 
ATOM     24  C   UNL     1       6.628  -4.168  -6.714  0.00  0.00    +0.140 C 
ATOM     25  H   UNL     1       4.984  -3.766  -5.003  0.00  0.00    +0.150 HD
BRANCH  23  26
ATOM     26  O   UNL     1       7.724  -2.395  -7.938  0.00  0.00    -0.390 OA
ATOM     27  H   UNL     1       7.532  -1.735  -7.257  0.00  0.00    +0.210 HD
ENDBRANCH  23  26
ENDBRANCH  15  16
ENDBRANCH   1  15
TORSDOF 5
