REMARK  Name = ZINC67480913
REMARK  8 active torsions:
REMARK  status: ('A' for Active; 'I' for Inactive)
REMARK    1  A    between atoms: C_1  and  C_2
REMARK    2  A    between atoms: C_2  and  C_4
REMARK    3  A    between atoms: C_2  and  N_11
REMARK    4  A    between atoms: C_4  and  N_5
REMARK    5  A    between atoms: N_14  and  C_15
REMARK    6  A    between atoms: C_15  and  C_16
REMARK    7  A    between atoms: N_21  and  C_22
REMARK    8  A    between atoms: C_22  and  C_23
REMARK                            x       y       z     vdW  Elec       q    Type
REMARK                         _______ _______ _______ _____ _____    ______ ____
ROOT
ATOM      1  N   UNL     1       1.156  -0.327  -1.003  0.00  0.00    -0.295 N 
ATOM      2  C   UNL     1       0.363  -0.469  -2.083  0.00  0.00    +0.300 C 
ATOM      3  O   UNL     1      -0.814  -0.171  -2.016  0.00  0.00    -0.253 OA
ATOM      4  N   UNL     1       0.874  -0.940  -3.238  0.00  0.00    -0.301 N 
ATOM      5  H   UNL     1       2.095  -0.565  -1.056  0.00  0.00    +0.151 HD
ATOM      6  H   UNL     1       1.812  -1.178  -3.291  0.00  0.00    +0.150 HD
ENDROOT
BRANCH   1   8
ATOM      7  C   UNL     1       0.611   1.715   0.227  0.00  0.00    +0.029 C 
ATOM      8  C   UNL     1       0.601   0.185   0.252  0.00  0.00    +0.089 C 
BRANCH   8   9
ATOM      9  C   UNL     1       1.448  -0.311   1.425  0.00  0.00    +0.129 C 
BRANCH   9  10
ATOM     10  N   UNL     1       1.536  -1.773   1.380  0.00  0.00    -0.300 N 
ATOM     11  C   UNL     1       0.587  -2.681   2.034  0.00  0.00    +0.108 C 
ATOM     12  C   UNL     1       0.809  -4.058   1.370  0.00  0.00    +0.028 C 
ATOM     13  C   UNL     1       2.274  -3.942   0.888  0.00  0.00    +0.097 C 
ATOM     14  C   UNL     1       2.494  -2.454   0.728  0.00  0.00    +0.216 C 
ATOM     15  O   UNL     1       3.405  -1.950   0.106  0.00  0.00    -0.276 OA
ENDBRANCH   9  10
ENDBRANCH   8   9
ENDBRANCH   1   8
BRANCH   4  16
ATOM     16  C   UNL     1       0.011  -1.094  -4.412  0.00  0.00    +0.090 C 
BRANCH  16  17
ATOM     17  C   UNL     1       0.833  -1.643  -5.580  0.00  0.00    -0.051 C 
ATOM     18  C   UNL     1      -0.021  -1.650  -6.865  0.00  0.00    -0.016 C 
ATOM     19  C   UNL     1       0.401  -0.335  -7.573  0.00  0.00    -0.020 C 
ATOM     20  C   UNL     1       1.907  -0.258  -7.216  0.00  0.00    -0.078 C 
ATOM     21  N   UNL     1       1.996  -0.771  -5.829  0.00  0.00    +0.383 N 
ATOM     22  H   UNL     1       1.986   0.001  -5.179  0.00  0.00    -0.081 HD
BRANCH  21  23
ATOM     23  C   UNL     1       3.236  -1.541  -5.662  0.00  0.00    -0.075 C 
BRANCH  23  24
ATOM     24  C   UNL     1       4.438  -0.603  -5.783  0.00  0.00    -0.028 C 
ATOM     25  C   UNL     1       5.730  -1.423  -5.749  0.00  0.00    +0.002 C 
ATOM     26  C   UNL     1       6.933  -0.485  -5.871  0.00  0.00    +0.000 C 
ATOM     27  C   UNL     1       6.927   0.505  -4.705  0.00  0.00    +0.000 C 
ATOM     28  C   UNL     1       5.635   1.325  -4.738  0.00  0.00    +0.000 C 
ATOM     29  C   UNL     1       4.432   0.388  -4.617  0.00  0.00    +0.002 C 
ENDBRANCH  23  24
ENDBRANCH  21  23
ENDBRANCH  16  17
ENDBRANCH   4  16
TORSDOF 7
