REMARK  Name = ZINC67554026
REMARK  12 active torsions:
REMARK  status: ('A' for Active; 'I' for Inactive)
REMARK    1  A    between atoms: C_1  and  C_2
REMARK    2  A    between atoms: C_6  and  C_28
REMARK    3  A    between atoms: C_7  and  O_8
REMARK    4  A    between atoms: O_8  and  C_9
REMARK    5  A    between atoms: C_9  and  C_10
REMARK    6  A    between atoms: C_10  and  C_12
REMARK    7  A    between atoms: C_10  and  O_27
REMARK    8  A    between atoms: C_12  and  N_13
REMARK    9  A    between atoms: N_16  and  C_17
REMARK   10  A    between atoms: C_21  and  C_23
REMARK   11  A    between atoms: C_23  and  O_25
REMARK   12  A    between atoms: O_25  and  C_26
REMARK                            x       y       z     vdW  Elec       q    Type
REMARK                         _______ _______ _______ _____ _____    ______ ____
ROOT
ATOM      1  N   UNL     1      -2.201   2.273   6.028  0.00  0.00    -0.297 N 
ATOM      2  C   UNL     1      -3.264   2.777   6.685  0.00  0.00    +0.304 C 
ATOM      3  O   UNL     1      -4.389   2.552   6.284  0.00  0.00    -0.253 OA
ATOM      4  N   UNL     1      -3.079   3.532   7.787  0.00  0.00    -0.269 N 
ATOM      5  H   UNL     1      -1.303   2.453   6.348  0.00  0.00    +0.150 HD
ATOM      6  H   UNL     1      -2.187   3.656   8.146  0.00  0.00    +0.156 HD
ENDROOT
BRANCH   4   7
ATOM      7  C   UNL     1      -4.176   4.135   8.414  0.00  0.00    +0.036 A 
ATOM      8  C   UNL     1      -4.040   5.389   8.997  0.00  0.00    +0.023 A 
ATOM      9  C   UNL     1      -5.119   5.989   9.617  0.00  0.00    +0.003 A 
ATOM     10  C   UNL     1      -6.340   5.348   9.661  0.00  0.00    +0.015 A 
ATOM     11  C   UNL     1      -6.488   4.088   9.078  0.00  0.00    +0.061 A 
ATOM     12  C   UNL     1      -5.399   3.484   8.447  0.00  0.00    +0.038 A 
BRANCH  11  13
ATOM     13  C   UNL     1      -7.794   3.398   9.124  0.00  0.00    +0.339 C 
ATOM     14  O   UNL     1      -7.920   2.302   8.616  0.00  0.00    -0.245 OA
BRANCH  13  15
ATOM     15  O   UNL     1      -8.844   3.985   9.729  0.00  0.00    -0.464 OA
ATOM     16  C   UNL     1     -10.076   3.261   9.736  0.00  0.00    +0.280 C 
ENDBRANCH  13  15
ENDBRANCH  11  13
ENDBRANCH   4   7
BRANCH   1  17
ATOM     17  C   UNL     1      -2.401   1.454   4.830  0.00  0.00    +0.140 C 
BRANCH  17  18
ATOM     18  C   UNL     1      -1.043   1.011   4.282  0.00  0.00    +0.169 C 
BRANCH  18  19
ATOM     19  O   UNL     1      -0.405   0.150   5.227  0.00  0.00    -0.387 OA
ATOM     20  H   UNL     1      -0.906  -0.652   5.429  0.00  0.00    +0.210 HD
ENDBRANCH  18  19
BRANCH  18  21
ATOM     21  C   UNL     1      -1.245   0.261   2.964  0.00  0.00    +0.261 C 
BRANCH  21  22
ATOM     22  O   UNL     1       0.028  -0.050   2.393  0.00  0.00    -0.489 OA
BRANCH  22  29
ATOM     23  C   UNL     1       0.004   1.487   0.023  0.00  0.00    +0.047 C 
ATOM     24  C   UNL     1       0.015  -0.020   0.014  0.00  0.00    -0.009 A 
ATOM     25  C   UNL     1       0.020  -0.704  -1.186  0.00  0.00    +0.007 A 
ATOM     26  C   UNL     1       0.030  -2.087  -1.195  0.00  0.00    +0.001 A 
ATOM     27  C   UNL     1       0.035  -2.788  -0.003  0.00  0.00    +0.007 A 
ATOM     28  C   UNL     1       0.030  -2.108   1.200  0.00  0.00    -0.009 A 
ATOM     29  C   UNL     1       0.026  -0.721   1.211  0.00  0.00    +0.126 A 
ATOM     30  C   UNL     1       0.036  -2.873   2.498  0.00  0.00    +0.047 C 
ENDBRANCH  22  29
ENDBRANCH  21  22
ENDBRANCH  18  21
ENDBRANCH  17  18
ENDBRANCH   1  17
TORSDOF 9
