REMARK  Name = ZINC67305384
REMARK  5 active torsions:
REMARK  status: ('A' for Active; 'I' for Inactive)
REMARK    1  A    between atoms: C_1  and  C_2
REMARK    2  A    between atoms: C_2  and  C_4
REMARK    3  A    between atoms: C_4  and  N_5
REMARK    4  A    between atoms: C_8  and  N_11
REMARK    5  A    between atoms: C_12  and  C_14
REMARK                            x       y       z     vdW  Elec       q    Type
REMARK                         _______ _______ _______ _____ _____    ______ ____
ROOT
ATOM      1  N   UNL     1      -4.512  -1.009   4.516  0.00  0.00    -0.312 N 
ATOM      2  C   UNL     1      -5.774  -1.425   4.743  0.00  0.00    +0.216 C 
ATOM      3  O   UNL     1      -6.520  -1.633   3.810  0.00  0.00    -0.276 OA
ATOM      4  H   UNL     1      -3.915  -0.843   5.262  0.00  0.00    +0.149 HD
ENDROOT
BRANCH   2   5
ATOM      5  C   UNL     1      -6.256  -1.632   6.155  0.00  0.00    +0.075 C 
ATOM      6  C   UNL     1      -5.389  -2.690   6.841  0.00  0.00    +0.015 C 
ATOM      7  C   UNL     1      -5.873  -2.890   8.279  0.00  0.00    +0.036 C 
ATOM      8  C   UNL     1      -7.332  -3.333   8.271  0.00  0.00    +0.112 C 
ATOM      9  C   UNL     1      -8.206  -2.300   7.568  0.00  0.00    +0.036 C 
ATOM     10  C   UNL     1      -7.713  -2.102   6.133  0.00  0.00    +0.015 C 
ATOM     11  C   UNL     1      -7.470  -4.683   7.605  0.00  0.00    +0.244 C 
ATOM     12  O   UNL     1      -7.193  -4.968   6.460  0.00  0.00    -0.273 OA
ATOM     13  N   UNL     1      -7.967  -5.503   8.554  0.00  0.00    -0.238 N 
ATOM     14  C   UNL     1      -8.157  -4.859   9.712  0.00  0.00    +0.307 C 
ATOM     15  O   UNL     1      -8.596  -5.388  10.715  0.00  0.00    -0.252 OA
ATOM     16  N   UNL     1      -7.807  -3.561   9.642  0.00  0.00    -0.285 N 
ATOM     17  H   UNL     1      -8.163  -6.443   8.414  0.00  0.00    +0.159 HD
ATOM     18  H   UNL     1      -7.859  -2.906  10.355  0.00  0.00    +0.151 HD
ENDBRANCH   2   5
BRANCH   1  22
ATOM     19  N   UNL     1      -1.867  -0.948   1.235  0.00  0.00    +0.382 N 
ATOM     20  C   UNL     1      -2.356   0.351   1.713  0.00  0.00    -0.077 C 
ATOM     21  C   UNL     1      -2.894   0.205   3.138  0.00  0.00    +0.003 C 
ATOM     22  C   UNL     1      -4.042  -0.808   3.143  0.00  0.00    +0.069 C 
ATOM     23  C   UNL     1      -3.540  -2.137   2.574  0.00  0.00    +0.003 C 
ATOM     24  C   UNL     1      -2.978  -1.905   1.169  0.00  0.00    -0.077 C 
ATOM     25  H   UNL     1      -1.163  -1.294   1.870  0.00  0.00    -0.081 HD
BRANCH  19  26
ATOM     26  C   UNL     1      -1.281  -0.787  -0.102  0.00  0.00    -0.048 C 
BRANCH  26  28
ATOM     27  C   UNL     1       1.269  -0.522   0.388  0.00  0.00    +0.036 C 
ATOM     28  C   UNL     1      -0.053   0.081  -0.012  0.00  0.00    -0.096 C 
ATOM     29  C   UNL     1      -0.134   1.361  -0.281  0.00  0.00    +0.005 C 
ENDBRANCH  26  28
ENDBRANCH  19  26
ENDBRANCH   1  22
TORSDOF 4
