REMARK  Name = ZINC53852295
REMARK  8 active torsions:
REMARK  status: ('A' for Active; 'I' for Inactive)
REMARK    1  A    between atoms: C_1  and  C_2
REMARK    2  A    between atoms: C_3  and  C_8
REMARK    3  A    between atoms: C_4  and  C_7
REMARK    4  A    between atoms: C_8  and  C_9
REMARK    5  A    between atoms: C_9  and  C_10
REMARK    6  A    between atoms: N_12  and  C_13
REMARK    7  A    between atoms: C_13  and  C_15
REMARK    8  A    between atoms: C_13  and  C_16
REMARK                            x       y       z     vdW  Elec       q    Type
REMARK                         _______ _______ _______ _____ _____    ______ ____
ROOT
ATOM      1  C   UNL     1       2.567   1.001  -6.526  0.00  0.00    +0.100 C 
ATOM      2  C   UNL     1       2.420   2.523  -6.556  0.00  0.00    +0.033 C 
ENDROOT
BRANCH   1   3
ATOM      3  C   UNL     1       3.857   0.608  -7.199  0.00  0.00    -0.025 A 
ATOM      4  C   UNL     1       5.052   0.698  -6.504  0.00  0.00    +0.007 A 
ATOM      5  C   UNL     1       6.239   0.340  -7.112  0.00  0.00    +0.028 A 
ATOM      6  C   UNL     1       6.235  -0.112  -8.423  0.00  0.00    +0.067 A 
ATOM      7  C   UNL     1       5.030  -0.203  -9.123  0.00  0.00    +0.067 A 
ATOM      8  C   UNL     1       3.842   0.154  -8.503  0.00  0.00    +0.033 A 
ATOM      9  N   UNL     1       5.339  -0.681 -10.395  0.00  0.00    -0.306 N 
ATOM     10  H   UNL     1       4.703  -0.847 -11.108  0.00  0.00    +0.170 HD
ATOM     11  C   UNL     1       6.670  -0.872 -10.464  0.00  0.00    +0.325 A 
ATOM     12  O   UNL     1       7.268  -1.284 -11.441  0.00  0.00    -0.247 OA
ATOM     13  N   UNL     1       7.238  -0.537  -9.291  0.00  0.00    -0.306 N 
ATOM     14  H   UNL     1       8.184  -0.585  -9.084  0.00  0.00    +0.170 HD
ENDBRANCH   1   3
BRANCH   1  17
ATOM     15  C   UNL     1       1.419   0.309  -4.491  0.00  0.00    +0.214 C 
ATOM     16  O   UNL     1       0.363   0.486  -5.062  0.00  0.00    -0.276 OA
ATOM     17  N   UNL     1       2.580   0.538  -5.136  0.00  0.00    -0.309 N 
ATOM     18  H   UNL     1       3.425   0.397  -4.680  0.00  0.00    +0.149 HD
BRANCH  15  19
ATOM     19  C   UNL     1       1.433  -0.167  -3.061  0.00  0.00    +0.100 C 
BRANCH  19  20
ATOM     20  C   UNL     1      -0.005  -0.348  -2.571  0.00  0.00    +0.049 C 
BRANCH  20  23
ATOM     21  C   UNL     1      -0.018   1.503   0.010  0.00  0.00    +0.069 C 
ATOM     22  C   UNL     1       0.002  -0.004   0.002  0.00  0.00    +0.084 A 
ATOM     23  C   UNL     1       0.008  -0.824  -1.141  0.00  0.00    +0.018 A 
ATOM     24  C   UNL     1       0.027  -2.108  -0.735  0.00  0.00    +0.138 A 
ATOM     25  O   UNL     1       0.034  -2.119   0.606  0.00  0.00    -0.359 OA
ATOM     26  N   UNL     1       0.023  -0.775   1.052  0.00  0.00    -0.083 NA
ATOM     27  C   UNL     1       0.039  -3.320  -1.631  0.00  0.00    +0.089 C 
ENDBRANCH  20  23
ENDBRANCH  19  20
ENDBRANCH  15  19
ENDBRANCH   1  17
TORSDOF 5
