REMARK  Name = ZINC27754408
REMARK  8 active torsions:
REMARK  status: ('A' for Active; 'I' for Inactive)
REMARK    1  A    between atoms: C_1  and  O_2
REMARK    2  A    between atoms: O_2  and  C_3
REMARK    3  A    between atoms: C_5  and  C_10
REMARK    4  A    between atoms: C_8  and  O_9
REMARK    5  A    between atoms: C_12  and  C_25
REMARK    6  A    between atoms: C_14  and  C_19
REMARK    7  A    between atoms: C_14  and  O_24
REMARK    8  A    between atoms: C_25  and  C_27
REMARK                            x       y       z     vdW  Elec       q    Type
REMARK                         _______ _______ _______ _____ _____    ______ ____
ROOT
ATOM      1  C   UNL     1      -2.559   3.864   0.048  0.00  0.00    +0.120 C 
ATOM      2  C   UNL     1      -3.179   3.770   1.446  0.00  0.00    +0.144 C 
ATOM      3  C   UNL     1      -3.500   2.301   1.741  0.00  0.00    +0.178 C 
ATOM      4  N   UNL     1      -4.360   1.776   0.679  0.00  0.00    -0.267 N 
ATOM      5  C   UNL     1      -4.301   2.261  -0.571  0.00  0.00    +0.302 C 
ATOM      6  O   UNL     1      -5.029   1.782  -1.418  0.00  0.00    -0.253 OA
ATOM      7  N   UNL     1      -3.470   3.253  -0.922  0.00  0.00    -0.292 N 
ATOM      8  H   UNL     1      -5.073   0.967   0.897  0.00  0.00    +0.153 HD
ATOM      9  H   UNL     1      -3.482   3.607  -1.964  0.00  0.00    +0.151 HD
ENDROOT
BRANCH   1  12
ATOM     10  C   UNL     1       1.115   3.092   0.471  0.00  0.00    +0.162 A 
ATOM     11  C   UNL     1      -0.098   3.763   0.485  0.00  0.00    +0.055 A 
ATOM     12  C   UNL     1      -1.241   3.133   0.031  0.00  0.00    -0.023 A 
ATOM     13  C   UNL     1      -1.178   1.836  -0.444  0.00  0.00    +0.009 A 
ATOM     14  C   UNL     1       0.028   1.160  -0.456  0.00  0.00    +0.049 A 
ATOM     15  C   UNL     1       1.178   1.785  -0.002  0.00  0.00    +0.158 A 
BRANCH  10  17
ATOM     16  C   UNL     1       2.101   5.052   1.389  0.00  0.00    +0.277 C 
ATOM     17  O   UNL     1       2.241   3.710   0.918  0.00  0.00    -0.491 OA
ENDBRANCH  10  17
BRANCH  15  18
ATOM     18  O   UNL     1       2.366   1.123  -0.019  0.00  0.00    -0.503 OA
ATOM     19  H   UNL     1       2.414   0.090  -0.393  0.00  0.00    +0.292 HD
ENDBRANCH  15  18
ENDBRANCH   1  12
BRANCH   3  20
ATOM     20  C   UNL     1      -4.214   2.197   3.064  0.00  0.00    +0.040 A 
ATOM     21  C   UNL     1      -5.545   2.158   3.315  0.00  0.00    +0.016 A 
ATOM     22  C   UNL     1      -5.978   2.059   4.624  0.00  0.00    +0.008 A 
ATOM     23  C   UNL     1      -5.058   2.005   5.618  0.00  0.00    +0.045 A 
ATOM     24  S   UNL     1      -3.525   2.087   4.707  0.00  0.00    -0.097 S 
ENDBRANCH   3  20
BRANCH   3  25
ATOM     25  O   UNL     1      -2.288   1.546   1.791  0.00  0.00    -0.366 OA
ATOM     26  H   UNL     1      -2.321   0.465   1.993  0.00  0.00    +0.212 HD
ENDBRANCH   3  25
BRANCH   2  27
ATOM     27  C   UNL     1      -4.446   4.585   1.494  0.00  0.00    +0.245 C 
ATOM     28  O   UNL     1      -5.513   4.053   1.302  0.00  0.00    -0.287 OA
BRANCH  27  29
ATOM     29  C   UNL     1      -4.381   6.062   1.782  0.00  0.00    +0.451 C 
ATOM     30  F   UNL     1      -5.112   6.345   2.940  0.00  0.00    -0.163 F 
ATOM     31  F   UNL     1      -3.048   6.444   1.967  0.00  0.00    -0.163 F 
ATOM     32  F   UNL     1      -4.923   6.771   0.704  0.00  0.00    -0.163 F 
ENDBRANCH  27  29
ENDBRANCH   2  27
TORSDOF 7
