REMARK  Name = ZINC08764404
REMARK  8 active torsions:
REMARK  status: ('A' for Active; 'I' for Inactive)
REMARK    1  A    between atoms: C_8  and  C_11
REMARK    2  A    between atoms: N_13  and  C_14
REMARK    3  A    between atoms: C_14  and  C_15
REMARK    4  A    between atoms: C_15  and  C_17
REMARK    5  A    between atoms: C_15  and  C_24
REMARK    6  A    between atoms: C_17  and  C_18
REMARK    7  A    between atoms: N_20  and  C_21
REMARK    8  A    between atoms: C_21  and  C_22
REMARK                            x       y       z     vdW  Elec       q    Type
REMARK                         _______ _______ _______ _____ _____    ______ ____
ROOT
ATOM      1  C   UNL     1       0.337   7.912   0.847  0.00  0.00    +0.112 C 
ENDROOT
BRANCH   1   4
ATOM      2  C   UNL     1      -0.201   5.628   0.192  0.00  0.00    +0.199 C 
ATOM      3  O   UNL     1      -0.754   6.071  -0.792  0.00  0.00    -0.278 OA
ATOM      4  N   UNL     1       0.377   6.466   1.076  0.00  0.00    -0.316 N 
ATOM      5  H   UNL     1       0.819   6.112   1.863  0.00  0.00    +0.149 HD
BRANCH   2  13
ATOM      6  C   UNL     1       2.393   0.017  -0.014  0.00  0.00    +0.000 A 
ATOM      7  C   UNL     1       1.202  -0.686  -0.010  0.00  0.00    +0.000 A 
ATOM      8  C   UNL     1       0.002  -0.004   0.002  0.00  0.00    +0.002 A 
ATOM      9  C   UNL     1      -0.017   1.383   0.010  0.00  0.00    -0.061 A 
ATOM     10  C   UNL     1       1.171   2.083   0.002  0.00  0.00    -0.047 A 
ATOM     11  C   UNL     1       2.376   1.397  -0.008  0.00  0.00    +0.004 A 
ATOM     12  C   UNL     1       1.201   3.590  -0.001  0.00  0.00    +0.028 C 
ATOM     13  C   UNL     1      -0.159   4.140   0.428  0.00  0.00    +0.021 C 
ATOM     14  C   UNL     1      -1.351   2.082   0.032  0.00  0.00    -0.045 C 
ATOM     15  N   UNL     1      -1.206   3.486  -0.379  0.00  0.00    +0.389 N 
ATOM     16  H   UNL     1      -0.945   3.524  -1.371  0.00  0.00    -0.084 HD
ATOM     17  H   UNL     1      -2.098   3.975  -0.241  0.00  0.00    -0.084 HD
ENDBRANCH   2  13
ENDBRANCH   1   4
BRANCH   1  18
ATOM     18  C   UNL     1       1.059   8.630   1.989  0.00  0.00    +0.045 C 
BRANCH  18  19
ATOM     19  C   UNL     1       2.521   8.263   1.967  0.00  0.00    -0.042 A 
ATOM     20  C   UNL     1       3.287   8.545   0.852  0.00  0.00    +0.005 A 
ATOM     21  C   UNL     1       4.629   8.214   0.834  0.00  0.00    +0.020 A 
ATOM     22  C   UNL     1       5.202   7.591   1.928  0.00  0.00    +0.041 A 
ATOM     23  C   UNL     1       4.434   7.304   3.042  0.00  0.00    +0.020 A 
ATOM     24  C   UNL     1       3.093   7.641   3.061  0.00  0.00    +0.005 A 
ATOM     25 CL   UNL     1       6.886   7.168   1.903  0.00  0.00    -0.084 Cl
ENDBRANCH  18  19
BRANCH  18  26
ATOM     26  C   UNL     1       0.910  10.143   1.816  0.00  0.00    +0.105 C 
BRANCH  26  27
ATOM     27  C   UNL     1       1.515  10.846   3.004  0.00  0.00    +0.214 C 
ATOM     28  O   UNL     1       2.016  10.201   3.900  0.00  0.00    -0.276 OA
ATOM     29  N   UNL     1       1.499  12.192   3.070  0.00  0.00    -0.305 N 
ATOM     30  H   UNL     1       1.099  12.708   2.353  0.00  0.00    +0.149 HD
BRANCH  29  31
ATOM     31  C   UNL     1       2.087  12.876   4.224  0.00  0.00    +0.229 C 
BRANCH  31  32
ATOM     32  C   UNL     1       1.941  14.366   4.054  0.00  0.00    +0.373 C 
ATOM     33  O   UNL     1       1.400  14.811   3.070  0.00  0.00    -0.245 OA
ATOM     34  O   UNL     1       2.410  15.198   4.997  0.00  0.00    -0.245 OA
ENDBRANCH  31  32
ENDBRANCH  29  31
ENDBRANCH  26  27
ENDBRANCH  18  26
ENDBRANCH   1  18
TORSDOF 8
