REMARK  Name = ZINC03635189
REMARK  5 active torsions:
REMARK  status: ('A' for Active; 'I' for Inactive)
REMARK    1  A    between atoms: C_1  and  C_2
REMARK    2  A    between atoms: C_2  and  O_3
REMARK    3  A    between atoms: O_3  and  C_4
REMARK    4  A    between atoms: C_7  and  N_10
REMARK    5  A    between atoms: C_22  and  C_33
REMARK                            x       y       z     vdW  Elec       q    Type
REMARK                         _______ _______ _______ _____ _____    ______ ____
ROOT
ATOM      1  N   UNL     1       0.059  -4.176  -0.021  0.00  0.00    -0.210 N 
ATOM      2  C   UNL     1      -1.052  -4.916   0.084  0.00  0.00    +0.231 C 
ATOM      3  O   UNL     1      -2.178  -4.482   0.197  0.00  0.00    -0.274 OA
ATOM      4  C   UNL     1      -0.677  -6.382   0.041  0.00  0.00    +0.101 C 
ATOM      5  C   UNL     1      -1.100  -7.041   1.371  0.00  0.00    +0.062 C 
ATOM      6  C   UNL     1      -0.359  -6.223   2.465  0.00  0.00    -0.035 A 
ATOM      7  C   UNL     1      -0.957  -5.564   3.501  0.00  0.00    +0.004 A 
ATOM      8  C   UNL     1      -0.158  -4.886   4.412  0.00  0.00    +0.000 A 
ATOM      9  C   UNL     1       1.218  -4.882   4.271  0.00  0.00    +0.000 A 
ATOM     10  C   UNL     1       1.819  -5.556   3.216  0.00  0.00    +0.005 A 
ATOM     11  C   UNL     1       1.027  -6.220   2.323  0.00  0.00    -0.022 A 
ATOM     12  C   UNL     1       1.539  -6.999   1.122  0.00  0.00    +0.134 C 
ATOM     13  C   UNL     1       0.854  -6.360  -0.105  0.00  0.00    +0.114 C 
ATOM     14  C   UNL     1       1.188  -4.885  -0.138  0.00  0.00    +0.232 C 
ATOM     15  O   UNL     1       2.302  -4.418  -0.252  0.00  0.00    -0.274 OA
ATOM     16  C   UNL     1       0.940  -8.392   1.239  0.00  0.00    -0.022 A 
ATOM     17  C   UNL     1      -0.447  -8.414   1.370  0.00  0.00    -0.035 A 
ATOM     18  C   UNL     1      -1.120  -9.597   1.484  0.00  0.00    +0.004 A 
ATOM     19  C   UNL     1      -0.396 -10.782   1.468  0.00  0.00    +0.000 A 
ATOM     20  C   UNL     1       0.981 -10.761   1.339  0.00  0.00    +0.000 A 
ATOM     21  C   UNL     1       1.658  -9.553   1.223  0.00  0.00    +0.005 A 
ENDROOT
BRANCH   1  25
ATOM     22  C   UNL     1       0.003  -0.004   0.001  0.00  0.00    +0.121 A 
ATOM     23  C   UNL     1      -0.562  -0.700  -1.058  0.00  0.00    +0.047 A 
ATOM     24  C   UNL     1      -0.539  -2.080  -1.068  0.00  0.00    +0.027 A 
ATOM     25  C   UNL     1       0.040  -2.772  -0.013  0.00  0.00    +0.044 A 
ATOM     26  C   UNL     1       0.600  -2.076   1.049  0.00  0.00    +0.027 A 
ATOM     27  C   UNL     1       0.582  -0.695   1.055  0.00  0.00    +0.047 A 
BRANCH  22  28
ATOM     28  O   UNL     1      -0.015   1.355   0.007  0.00  0.00    -0.492 OA
BRANCH  28  30
ATOM     29  C   UNL     1      -0.552   3.519  -0.926  0.00  0.00    +0.048 C 
ATOM     30  C   UNL     1      -0.627   2.002  -1.110  0.00  0.00    +0.225 C 
ENDBRANCH  28  30
ENDBRANCH  22  28
ENDBRANCH   1  25
BRANCH  12  31
ATOM     31  C   UNL     1       3.042  -7.009   1.020  0.00  0.00    +0.371 C 
ATOM     32  O   UNL     1       3.586  -6.545   0.046  0.00  0.00    -0.245 OA
ATOM     33  O   UNL     1       3.778  -7.534   2.013  0.00  0.00    -0.245 OA
ENDBRANCH  12  31
TORSDOF 4
