REMARK  Name = ZINC28362061
REMARK  10 active torsions:
REMARK  status: ('A' for Active; 'I' for Inactive)
REMARK    1  A    between atoms: C_1  and  C_2
REMARK    2  A    between atoms: C_5  and  N_9
REMARK    3  A    between atoms: C_7  and  C_8
REMARK    4  A    between atoms: C_10  and  C_12
REMARK    5  A    between atoms: C_12  and  C_14
REMARK    6  A    between atoms: C_12  and  N_15
REMARK    7  A    between atoms: N_15  and  C_16
REMARK    8  A    between atoms: C_19  and  O_22
REMARK    9  A    between atoms: O_22  and  C_23
REMARK   10  A    between atoms: C_23  and  C_24
REMARK                            x       y       z     vdW  Elec       q    Type
REMARK                         _______ _______ _______ _____ _____    ______ ____
ROOT
ATOM      1  N   UNL     1      -2.192  -4.261  -0.313  0.00  0.00    -0.333 N 
ATOM      2  H   UNL     1      -1.252  -4.667   0.089  0.00  0.00    +0.147 HD
ENDROOT
BRANCH   1   3
ATOM      3  C   UNL     1      -3.115  -5.114  -0.928  0.00  0.00    +0.028 A 
ATOM      4  C   UNL     1      -4.305  -4.604  -1.431  0.00  0.00    +0.026 A 
ATOM      5  C   UNL     1      -5.213  -5.446  -2.043  0.00  0.00    +0.047 A 
ATOM      6  C   UNL     1      -4.942  -6.803  -2.144  0.00  0.00    +0.121 A 
ATOM      7  C   UNL     1      -3.757  -7.314  -1.637  0.00  0.00    +0.047 A 
ATOM      8  C   UNL     1      -2.845  -6.473  -1.030  0.00  0.00    +0.026 A 
BRANCH   6   9
ATOM      9  O   UNL     1      -5.839  -7.632  -2.742  0.00  0.00    -0.483 OA
BRANCH   9  10
ATOM     10  C   UNL     1      -7.039  -7.037  -3.242  0.00  0.00    +0.324 C 
BRANCH  10  11
ATOM     11  C   UNL     1      -7.905  -8.102  -3.865  0.00  0.00    +0.248 C 
ATOM     12  O   UNL     1      -7.532  -9.256  -3.880  0.00  0.00    -0.272 OA
ATOM     13  N   UNL     1      -9.094  -7.771  -4.407  0.00  0.00    -0.327 N 
ATOM     14  H   UNL     1      -9.726  -8.548  -4.861  0.00  0.00    +0.145 HD
ATOM     15  H   UNL     1      -9.432  -6.725  -4.394  0.00  0.00    +0.145 HD
ENDBRANCH  10  11
ENDBRANCH   9  10
ENDBRANCH   6   9
ENDBRANCH   1   3
BRANCH   1  16
ATOM     16  C   UNL     1      -2.477  -2.828  -0.206  0.00  0.00    +0.154 C 
ATOM     17  C   UNL     1      -3.325  -2.569   1.041  0.00  0.00    +0.038 C 
BRANCH  16  19
ATOM     18  N   UNL     1      -1.199  -0.722   0.009  0.00  0.00    -0.284 N 
ATOM     19  C   UNL     1      -1.183  -2.065  -0.100  0.00  0.00    +0.237 C 
ATOM     20  O   UNL     1      -0.125  -2.659  -0.113  0.00  0.00    -0.273 OA
ATOM     21  H   UNL     1      -2.157  -0.190   0.108  0.00  0.00    +0.155 HD
BRANCH  18  26
ATOM     22  C   UNL     1       3.669   2.191  -0.045  0.00  0.00    +0.044 C 
ATOM     23  C   UNL     1       2.376   1.417  -0.030  0.00  0.00    -0.047 A 
ATOM     24  C   UNL     1       2.256   0.259  -0.777  0.00  0.00    +0.005 A 
ATOM     25  C   UNL     1       1.073  -0.452  -0.766  0.00  0.00    +0.023 A 
ATOM     26  C   UNL     1       0.002  -0.004  -0.004  0.00  0.00    +0.034 A 
ATOM     27  C   UNL     1       0.125   1.159   0.745  0.00  0.00    +0.027 A 
ATOM     28  C   UNL     1       1.312   1.866   0.730  0.00  0.00    -0.046 A 
ATOM     29  C   UNL     1       1.447   3.128   1.543  0.00  0.00    +0.044 C 
ENDBRANCH  18  26
ENDBRANCH  16  19
ENDBRANCH   1  16
TORSDOF 7
