REMARK  Name = ZINC52860368
REMARK  4 active torsions:
REMARK  status: ('A' for Active; 'I' for Inactive)
REMARK    1  A    between atoms: C_3  and  O_11
REMARK    2  A    between atoms: C_6  and  N_7
REMARK    3  A    between atoms: O_11  and  C_12
REMARK    4  A    between atoms: C_17  and  C_18
REMARK                            x       y       z     vdW  Elec       q    Type
REMARK                         _______ _______ _______ _____ _____    ______ ____
ROOT
ATOM      1  C   UNL     1       3.480   3.456  -0.245  0.00  0.00    +0.139 A 
ATOM      2  C   UNL     1       2.251   4.098  -0.220  0.00  0.00    +0.048 A 
ATOM      3  C   UNL     1       2.192   5.478  -0.192  0.00  0.00    +0.023 A 
ATOM      4  C   UNL     1       3.356   6.229  -0.187  0.00  0.00    +0.042 A 
ATOM      5  C   UNL     1       4.586   5.606  -0.211  0.00  0.00    +0.035 A 
ATOM      6  C   UNL     1       4.660   4.212  -0.235  0.00  0.00    +0.056 A 
ATOM      7 CL   UNL     1       3.266   7.963  -0.151  0.00  0.00    -0.084 Cl
ENDROOT
BRANCH   6   8
ATOM      8  C   UNL     1       5.974   3.538  -0.255  0.00  0.00    +0.098 C 
ATOM      9  N   UNL     1       6.854   3.823  -1.214  0.00  0.00    -0.387 N 
ATOM     10  N   UNL     1       6.279   2.644   0.685  0.00  0.00    -0.344 N 
ATOM     11  H   UNL     1       6.606   4.417  -1.939  0.00  0.00    +0.157 HD
ATOM     12  H   UNL     1       5.638   2.436   1.383  0.00  0.00    +0.144 HD
ATOM     13  H   UNL     1       7.142   2.201   0.672  0.00  0.00    +0.144 HD
ATOM     14  H   UNL     1       7.743   3.436  -1.186  0.00  0.00    +0.157 HD
ENDBRANCH   6   8
BRANCH   1  15
ATOM     15  O   UNL     1       3.540   2.101  -0.273  0.00  0.00    -0.454 OA
BRANCH  15  18
ATOM     16  C   UNL     1       0.571   0.187   0.598  0.00  0.00    +0.036 A 
ATOM     17  C   UNL     1       1.756   0.885   0.726  0.00  0.00    +0.050 A 
ATOM     18  C   UNL     1       2.374   1.413  -0.397  0.00  0.00    +0.147 A 
ATOM     19  C   UNL     1       1.799   1.239  -1.649  0.00  0.00    +0.085 A 
ATOM     20  C   UNL     1       0.614   0.539  -1.772  0.00  0.00    +0.056 A 
ATOM     21  C   UNL     1       0.000   0.014  -0.650  0.00  0.00    +0.128 A 
ATOM     22 CL   UNL     1       2.569   1.899  -3.058  0.00  0.00    -0.080 Cl
BRANCH  21  23
ATOM     23  N   UNL     1      -1.270  -0.734  -0.784  0.00  0.00    +0.056 N 
ATOM     24  O   UNL     1      -1.807  -1.194   0.196  0.00  0.00    -0.126 OA
ATOM     25  O   UNL     1      -1.770  -0.886  -1.875  0.00  0.00    -0.126 OA
ENDBRANCH  21  23
ENDBRANCH  15  18
ENDBRANCH   1  15
TORSDOF 4
