REMARK  Name = ZINC63807199
REMARK  6 active torsions:
REMARK  status: ('A' for Active; 'I' for Inactive)
REMARK    1  A    between atoms: C_1  and  C_2
REMARK    2  A    between atoms: C_2  and  C_3
REMARK    3  A    between atoms: C_2  and  C_4
REMARK    4  A    between atoms: C_2  and  C_5
REMARK    5  A    between atoms: C_7  and  C_11
REMARK    6  A    between atoms: C_15  and  C_20
REMARK                            x       y       z     vdW  Elec       q    Type
REMARK                         _______ _______ _______ _____ _____    ______ ____
ROOT
ATOM      1  C   UNL     1       1.141  -0.482  -4.551  0.00  0.00    +0.182 C 
ATOM      2  N   UNL     1       1.615  -1.493  -5.533  0.00  0.00    -0.265 N 
ATOM      3  N   UNL     1       0.876  -2.638  -5.583  0.00  0.00    -0.219 N 
ATOM      4  C   UNL     1       1.051  -3.950  -6.015  0.00  0.00    +0.202 A 
ATOM      5  N   UNL     1      -0.080  -4.585  -5.832  0.00  0.00    -0.125 NA
ATOM      6  N   UNL     1      -0.948  -3.793  -5.309  0.00  0.00    -0.120 NA
ATOM      7  C   UNL     1      -0.415  -2.622  -5.124  0.00  0.00    +0.211 A 
ATOM      8  S   UNL     1      -0.639  -0.968  -4.497  0.00  0.00    -0.058 S 
ATOM      9  H   UNL     1       1.715  -1.087  -6.451  0.00  0.00    +0.168 HD
ENDROOT
BRANCH   4  10
ATOM     10  C   UNL     1       2.291  -4.523  -6.579  0.00  0.00    +0.127 A 
ATOM     11  C   UNL     1       2.326  -5.861  -6.980  0.00  0.00    +0.142 A 
ATOM     12  N   UNL     1       3.435  -6.367  -7.483  0.00  0.00    -0.260 NA
ATOM     13  C   UNL     1       4.513  -5.610  -7.608  0.00  0.00    +0.130 A 
ATOM     14  C   UNL     1       4.484  -4.284  -7.212  0.00  0.00    +0.131 A 
ATOM     15  N   UNL     1       3.377  -3.765  -6.713  0.00  0.00    -0.249 NA
ENDBRANCH   4  10
BRANCH   1  18
ATOM     16  C   UNL     1       0.707  -0.490  -1.238  0.00  0.00    +0.067 C 
ATOM     17  C   UNL     1       1.233   0.306  -2.172  0.00  0.00    +0.029 C 
ATOM     18  C   UNL     1       1.815  -0.660  -3.189  0.00  0.00    +0.185 C 
ATOM     19  N   UNL     1       1.496  -1.978  -2.615  0.00  0.00    -0.177 NA
ATOM     20  N   UNL     1       0.899  -1.790  -1.552  0.00  0.00    -0.158 NA
BRANCH  16  22
ATOM     21  C   UNL     1      -0.019   1.526   0.010  0.00  0.00    +0.017 C 
ATOM     22  C   UNL     1       0.002  -0.004   0.002  0.00  0.00    +0.006 C 
ATOM     23  C   UNL     1       0.742  -0.511   1.242  0.00  0.00    +0.017 C 
ATOM     24  C   UNL     1      -1.433  -0.534   0.013  0.00  0.00    +0.017 C 
ENDBRANCH  16  22
ENDBRANCH   1  18
TORSDOF 3
