REMARK  Name = ZINC31685119
REMARK  8 active torsions:
REMARK  status: ('A' for Active; 'I' for Inactive)
REMARK    1  A    between atoms: C_1  and  C_2
REMARK    2  A    between atoms: C_5  and  C_29
REMARK    3  A    between atoms: C_6  and  C_8
REMARK    4  A    between atoms: C_8  and  C_10
REMARK    5  A    between atoms: C_10  and  C_12
REMARK    6  A    between atoms: C_10  and  S_13
REMARK    7  A    between atoms: S_13  and  C_14
REMARK    8  A    between atoms: C_17  and  C_19
REMARK                            x       y       z     vdW  Elec       q    Type
REMARK                         _______ _______ _______ _____ _____    ______ ____
ROOT
ATOM      1  C   UNL     1      -3.930   7.486   1.253  0.00  0.00    +0.278 A 
ATOM      2  N   UNL     1      -2.851   8.154   0.923  0.00  0.00    -0.101 NA
ATOM      3  N   UNL     1      -3.011   9.397   1.213  0.00  0.00    -0.106 NA
ATOM      4  C   UNL     1      -4.196   9.571   1.748  0.00  0.00    +0.251 A 
ATOM      5  O   UNL     1      -4.803   8.364   1.785  0.00  0.00    -0.411 OA
ENDROOT
BRANCH   4   6
ATOM      6  C   UNL     1      -4.761  10.849   2.224  0.00  0.00    +0.063 A 
ATOM      7  C   UNL     1      -5.988  11.039   2.775  0.00  0.00    +0.097 A 
ATOM      8  N   UNL     1      -6.151  12.355   3.093  0.00  0.00    -0.360 N 
ATOM      9  H   UNL     1      -7.087  12.697   3.558  0.00  0.00    +0.165 HD
ATOM     10  C   UNL     1      -5.026  13.072   2.745  0.00  0.00    +0.047 A 
ATOM     11  C   UNL     1      -4.106  12.168   2.187  0.00  0.00    +0.012 A 
ATOM     12  C   UNL     1      -2.866  12.620   1.742  0.00  0.00    +0.011 A 
ATOM     13  C   UNL     1      -2.547  13.956   1.853  0.00  0.00    +0.001 A 
ATOM     14  C   UNL     1      -3.454  14.850   2.403  0.00  0.00    +0.002 A 
ATOM     15  C   UNL     1      -4.685  14.417   2.847  0.00  0.00    +0.026 A 
ENDBRANCH   4   6
BRANCH   1  16
ATOM     16  S   UNL     1      -4.189   5.755   1.046  0.00  0.00    -0.055 S 
BRANCH  16  17
ATOM     17  C   UNL     1      -2.611   5.290   0.290  0.00  0.00    +0.124 C 
ATOM     18  C   UNL     1      -2.487   5.957  -1.082  0.00  0.00    +0.028 C 
BRANCH  17  19
ATOM     19  C   UNL     1      -2.554   3.793   0.128  0.00  0.00    +0.176 C 
ATOM     20  O   UNL     1      -3.581   3.152   0.045  0.00  0.00    -0.291 OA
BRANCH  19  26
ATOM     21  C   UNL     1       2.418   3.945   0.468  0.00  0.00    +0.044 C 
ATOM     22  C   UNL     1       1.144   3.175   0.233  0.00  0.00    -0.050 A 
ATOM     23  C   UNL     1       1.196   1.819  -0.039  0.00  0.00    +0.003 A 
ATOM     24  C   UNL     1       0.032   1.104  -0.257  0.00  0.00    +0.004 A 
ATOM     25  C   UNL     1      -1.191   1.739  -0.209  0.00  0.00    -0.040 A 
ATOM     26  C   UNL     1      -1.253   3.108   0.070  0.00  0.00    +0.022 A 
ATOM     27  C   UNL     1      -0.072   3.824   0.288  0.00  0.00    +0.015 A 
ATOM     28  C   UNL     1      -2.458   0.960  -0.452  0.00  0.00    +0.044 C 
ENDBRANCH  19  26
ENDBRANCH  17  19
ENDBRANCH  16  17
ENDBRANCH   1  16
TORSDOF 5
