REMARK  Name = ZINC16513652
REMARK  11 active torsions:
REMARK  status: ('A' for Active; 'I' for Inactive)
REMARK    1  A    between atoms: C_1  and  C_2
REMARK    2  A    between atoms: C_7  and  C_31
REMARK    3  A    between atoms: N_9  and  C_10
REMARK    4  A    between atoms: C_10  and  C_11
REMARK    5  A    between atoms: C_11  and  C_13
REMARK    6  A    between atoms: C_11  and  O_30
REMARK    7  A    between atoms: C_13  and  O_14
REMARK    8  A    between atoms: O_14  and  C_15
REMARK    9  A    between atoms: C_18  and  N_21
REMARK   10  A    between atoms: C_22  and  C_23
REMARK   11  A    between atoms: C_28  and  O_29
REMARK                            x       y       z     vdW  Elec       q    Type
REMARK                         _______ _______ _______ _____ _____    ______ ____
ROOT
ATOM      1  C   UNL     1       1.720   8.902   1.437  0.00  0.00    +0.121 A 
ATOM      2  C   UNL     1       1.283  10.097   0.880  0.00  0.00    +0.048 A 
ATOM      3  C   UNL     1       2.186  10.956   0.291  0.00  0.00    +0.031 A 
ATOM      4  C   UNL     1       3.540  10.617   0.242  0.00  0.00    +0.064 A 
ATOM      5  C   UNL     1       3.975   9.411   0.798  0.00  0.00    +0.031 A 
ATOM      6  C   UNL     1       3.066   8.561   1.391  0.00  0.00    +0.048 A 
ENDROOT
BRANCH   4   7
ATOM      7  N   UNL     1       4.439  11.463  -0.348  0.00  0.00    -0.255 NA
ATOM      8  C   UNL     1       4.262  11.844  -1.582  0.00  0.00    +0.123 C 
BRANCH   8   9
ATOM      9  C   UNL     1       3.211  11.222  -2.400  0.00  0.00    +0.034 A 
ATOM     10  C   UNL     1       2.817   9.902  -2.154  0.00  0.00    +0.013 A 
ATOM     11  C   UNL     1       1.827   9.327  -2.921  0.00  0.00    +0.001 A 
ATOM     12  C   UNL     1       1.228  10.045  -3.943  0.00  0.00    +0.004 A 
ATOM     13  C   UNL     1       1.612  11.347  -4.201  0.00  0.00    +0.046 A 
ATOM     14  C   UNL     1       2.601  11.945  -3.436  0.00  0.00    +0.125 A 
BRANCH  14  15
ATOM     15  O   UNL     1       2.978  13.224  -3.689  0.00  0.00    -0.506 OA
ATOM     16  H   UNL     1       2.499  13.789  -4.502  0.00  0.00    +0.292 HD
ENDBRANCH  14  15
ENDBRANCH   8   9
ENDBRANCH   4   7
BRANCH   1  17
ATOM     17  O   UNL     1       0.828   8.061   2.022  0.00  0.00    -0.489 OA
BRANCH  17  18
ATOM     18  C   UNL     1      -0.540   8.473   2.034  0.00  0.00    +0.258 C 
BRANCH  18  19
ATOM     19  C   UNL     1      -1.388   7.406   2.730  0.00  0.00    +0.135 C 
BRANCH  19  20
ATOM     20  O   UNL     1      -1.363   6.201   1.961  0.00  0.00    -0.390 OA
ATOM     21  H   UNL     1      -0.406   5.694   1.764  0.00  0.00    +0.210 HD
ENDBRANCH  19  20
BRANCH  19  22
ATOM     22  C   UNL     1      -2.830   7.901   2.854  0.00  0.00    -0.043 C 
BRANCH  22  29
ATOM     23  C   UNL     1      -4.184   5.792   1.574  0.00  0.00    -0.013 C 
ATOM     24  C   UNL     1      -3.661   5.632   3.003  0.00  0.00    -0.071 C 
ATOM     25  C   UNL     1      -4.596   4.709   3.788  0.00  0.00    -0.016 C 
ATOM     26  C   UNL     1      -4.080   4.568   5.222  0.00  0.00    -0.003 C 
ATOM     27  C   UNL     1      -3.989   5.956   5.862  0.00  0.00    -0.016 C 
ATOM     28  C   UNL     1      -3.072   6.843   5.018  0.00  0.00    -0.071 C 
ATOM     29  N   UNL     1      -3.609   6.947   3.655  0.00  0.00    +0.385 N 
ATOM     30  C   UNL     1      -2.994   8.238   5.643  0.00  0.00    -0.013 C 
ATOM     31  H   UNL     1      -4.639   7.326   3.728  0.00  0.00    -0.081 HD
ENDBRANCH  22  29
ENDBRANCH  19  22
ENDBRANCH  18  19
ENDBRANCH  17  18
ENDBRANCH   1  17
TORSDOF 9
