REMARK  Name = ZINC36575992
REMARK  13 active torsions:
REMARK  status: ('A' for Active; 'I' for Inactive)
REMARK    1  A    between atoms: C_1  and  C_2
REMARK    2  A    between atoms: C_2  and  C_3
REMARK    3  A    between atoms: C_3  and  N_4
REMARK    4  A    between atoms: N_4  and  C_5
REMARK    5  A    between atoms: C_5  and  C_7
REMARK    6  A    between atoms: C_5  and  C_14
REMARK    7  A    between atoms: C_10  and  O_13
REMARK    8  A    between atoms: N_16  and  C_17
REMARK    9  A    between atoms: C_17  and  S_18
REMARK   10  A    between atoms: S_18  and  C_21
REMARK   11  A    between atoms: C_24  and  C_27
REMARK   12  A    between atoms: C_28  and  C_30
REMARK   13  A    between atoms: C_34  and  N_36
REMARK                            x       y       z     vdW  Elec       q    Type
REMARK                         _______ _______ _______ _____ _____    ______ ____
ROOT
ATOM      1  C   UNL     1       0.562  -3.079  -0.117  0.00  0.00    +0.192 C 
ENDROOT
BRANCH   1   2
ATOM      2  C   UNL     1       1.940  -2.639  -0.541  0.00  0.00    -0.018 A 
ATOM      3  C   UNL     1       2.383  -1.366  -0.232  0.00  0.00    +0.009 A 
ATOM      4  C   UNL     1       3.645  -0.960  -0.621  0.00  0.00    +0.046 A 
ATOM      5  C   UNL     1       4.467  -1.829  -1.321  0.00  0.00    +0.117 A 
ATOM      6  C   UNL     1       4.020  -3.106  -1.630  0.00  0.00    +0.046 A 
ATOM      7  C   UNL     1       2.760  -3.510  -1.234  0.00  0.00    +0.009 A 
BRANCH   5   8
ATOM      8  O   UNL     1       5.709  -1.432  -1.705  0.00  0.00    -0.507 OA
ATOM      9  H   UNL     1       6.400  -1.617  -1.054  0.00  0.00    +0.292 HD
ENDBRANCH   5   8
ENDBRANCH   1   2
BRANCH   1  10
ATOM     10  C   UNL     1      -0.044  -3.941  -1.194  0.00  0.00    +0.239 C 
ATOM     11  O   UNL     1      -0.500  -3.429  -2.195  0.00  0.00    -0.273 OA
ATOM     12  N   UNL     1      -0.080  -5.280  -1.046  0.00  0.00    -0.294 N 
ATOM     13  H   UNL     1       0.285  -5.689  -0.246  0.00  0.00    +0.150 HD
BRANCH  12  14
ATOM     14  C   UNL     1      -0.669  -6.117  -2.094  0.00  0.00    +0.278 C 
BRANCH  14  15
ATOM     15  S   UNL     1       0.639  -6.709  -3.202  0.00  0.00    +0.013 S 
ATOM     16  O   UNL     1       0.091  -7.574  -4.188  0.00  0.00    -0.168 OA
ATOM     17  O   UNL     1       1.489  -5.633  -3.575  0.00  0.00    -0.168 OA
BRANCH  15  18
ATOM     18  C   UNL     1       1.646  -7.750  -2.199  0.00  0.00    +0.090 A 
ATOM     19  C   UNL     1       2.715  -7.216  -1.504  0.00  0.00    +0.027 A 
ATOM     20  C   UNL     1       3.506  -8.033  -0.717  0.00  0.00    +0.005 A 
ATOM     21  C   UNL     1       3.226  -9.384  -0.625  0.00  0.00    -0.050 A 
ATOM     22  C   UNL     1       2.157  -9.918  -1.319  0.00  0.00    +0.005 A 
ATOM     23  C   UNL     1       1.364  -9.100  -2.103  0.00  0.00    +0.027 A 
ATOM     24  C   UNL     1       4.088 -10.274   0.233  0.00  0.00    +0.044 C 
ENDBRANCH  15  18
ENDBRANCH  14  15
ENDBRANCH  12  14
ENDBRANCH   1  10
BRANCH   1  25
ATOM     25  N   UNL     1      -0.282  -1.902   0.100  0.00  0.00    -0.282 N 
ATOM     26  C   UNL     1      -0.752  -1.628   1.333  0.00  0.00    +0.248 C 
ATOM     27  O   UNL     1      -1.442  -0.644   1.516  0.00  0.00    -0.270 OA
BRANCH  26  28
ATOM     28  C   UNL     1      -0.427  -2.523   2.464  0.00  0.00    +0.039 A 
ATOM     29  C   UNL     1       0.877  -2.991   2.636  0.00  0.00    +0.013 A 
ATOM     30  C   UNL     1       1.173  -3.826   3.693  0.00  0.00    +0.003 A 
ATOM     31  C   UNL     1       0.181  -4.199   4.583  0.00  0.00    +0.033 A 
ATOM     32  C   UNL     1      -1.113  -3.739   4.419  0.00  0.00    +0.127 A 
ATOM     33  C   UNL     1      -1.421  -2.899   3.369  0.00  0.00    +0.045 A 
BRANCH  32  34
ATOM     34  N   UNL     1      -2.168  -4.144   5.375  0.00  0.00    +0.056 N 
ATOM     35  O   UNL     1      -1.898  -4.876   6.298  0.00  0.00    -0.126 OA
ATOM     36  O   UNL     1      -3.299  -3.742   5.233  0.00  0.00    -0.126 OA
ENDBRANCH  32  34
ENDBRANCH  26  28
BRANCH  25  37
ATOM     37  C   UNL     1      -0.616  -1.023  -1.023  0.00  0.00    +0.109 C 
BRANCH  37  39
ATOM     38  C   UNL     1      -2.413  -0.378  -2.634  0.00  0.00    +0.005 C 
ATOM     39  C   UNL     1      -2.099  -1.175  -1.366  0.00  0.00    +0.016 C 
ENDBRANCH  37  39
ENDBRANCH  25  37
ENDBRANCH   1  25
TORSDOF 11
