REMARK  Name = ZINC42981732
REMARK  10 active torsions:
REMARK  status: ('A' for Active; 'I' for Inactive)
REMARK    1  A    between atoms: C_1  and  C_2
REMARK    2  A    between atoms: C_3  and  C_7
REMARK    3  A    between atoms: C_10  and  S_13
REMARK    4  A    between atoms: N_11  and  N_12
REMARK    5  A    between atoms: S_13  and  C_14
REMARK    6  A    between atoms: C_14  and  C_16
REMARK    7  A    between atoms: C_14  and  C_19
REMARK    8  A    between atoms: C_16  and  C_17
REMARK    9  A    between atoms: C_16  and  C_18
REMARK   10  A    between atoms: C_24  and  C_27
REMARK                            x       y       z     vdW  Elec       q    Type
REMARK                         _______ _______ _______ _____ _____    ______ ____
ROOT
ATOM      1  C   UNL     1      -2.448  -0.564  -0.368  0.00  0.00    +0.185 A 
ATOM      2  N   UNL     1      -2.888   0.639  -0.654  0.00  0.00    -0.127 NA
ATOM      3  N   UNL     1      -4.159   0.697  -0.469  0.00  0.00    -0.121 NA
ATOM      4  C   UNL     1      -4.608  -0.465  -0.054  0.00  0.00    +0.209 A 
ATOM      5  N   UNL     1      -3.536  -1.311   0.019  0.00  0.00    -0.224 N 
ENDROOT
BRANCH   1   8
ATOM      6  C   UNL     1       0.028   1.143  -1.254  0.00  0.00    +0.087 C 
ATOM      7  C   UNL     1       0.039  -0.304  -0.835  0.00  0.00    +0.112 A 
ATOM      8  C   UNL     1      -1.047  -1.030  -0.454  0.00  0.00    +0.061 A 
ATOM      9  C   UNL     1      -0.539  -2.373  -0.144  0.00  0.00    +0.053 A 
ATOM     10  C   UNL     1       0.785  -2.329  -0.365  0.00  0.00    +0.196 A 
ATOM     11  O   UNL     1       1.119  -1.097  -0.780  0.00  0.00    -0.467 OA
ENDBRANCH   1   8
BRANCH   5  12
ATOM     12  N   UNL     1      -3.543  -2.623   0.400  0.00  0.00    -0.295 N 
ATOM     13  H   UNL     1      -3.405  -2.711   1.395  0.00  0.00    +0.163 HD
ATOM     14  H   UNL     1      -4.397  -3.078   0.112  0.00  0.00    +0.163 HD
ENDBRANCH   5  12
BRANCH   4  15
ATOM     15  S   UNL     1      -6.281  -0.862   0.331  0.00  0.00    -0.071 S 
BRANCH  15  16
ATOM     16  C   UNL     1      -7.159   0.714   0.147  0.00  0.00    +0.143 C 
BRANCH  16  17
ATOM     17  C   UNL     1      -8.577   0.558   0.633  0.00  0.00    +0.229 C 
ATOM     18  O   UNL     1      -9.137  -0.513   0.537  0.00  0.00    -0.274 OA
ATOM     19  N   UNL     1      -9.223   1.610   1.176  0.00  0.00    -0.301 N 
ATOM     20  C   UNL     1      -8.597   2.939   1.204  0.00  0.00    +0.108 C 
ATOM     21  C   UNL     1      -8.610   3.459   2.645  0.00  0.00    +0.022 C 
ATOM     22  C   UNL     1     -10.043   3.427   3.182  0.00  0.00    -0.011 C 
ATOM     23  C   UNL     1     -10.556   1.986   3.185  0.00  0.00    +0.022 C 
ATOM     24  C   UNL     1     -10.568   1.450   1.745  0.00  0.00    +0.108 C 
ATOM     25  C   UNL     1     -10.064   3.979   4.609  0.00  0.00    +0.007 C 
ENDBRANCH  16  17
BRANCH  16  26
ATOM     26  C   UNL     1      -7.168   1.124  -1.327  0.00  0.00    +0.005 C 
ATOM     27  C   UNL     1      -7.990   0.116  -2.132  0.00  0.00    +0.009 C 
ATOM     28  C   UNL     1      -7.790   2.515  -1.465  0.00  0.00    +0.009 C 
ENDBRANCH  16  26
ENDBRANCH  15  16
ENDBRANCH   4  15
TORSDOF 6
