REMARK  Name = ZINC22580083
REMARK  8 active torsions:
REMARK  status: ('A' for Active; 'I' for Inactive)
REMARK    1  A    between atoms: C_1  and  C_2
REMARK    2  A    between atoms: C_8  and  C_16
REMARK    3  A    between atoms: C_16  and  O_18
REMARK    4  A    between atoms: O_18  and  C_19
REMARK    5  A    between atoms: C_19  and  C_21
REMARK    6  A    between atoms: C_19  and  C_24
REMARK    7  A    between atoms: C_21  and  C_22
REMARK    8  A    between atoms: C_21  and  C_23
REMARK                            x       y       z     vdW  Elec       q    Type
REMARK                         _______ _______ _______ _____ _____    ______ ____
ROOT
ATOM      1  C   UNL     1      -1.036  -0.598   0.326  0.00  0.00    +0.341 C 
ATOM      2  O   UNL     1      -1.735  -0.507  -0.663  0.00  0.00    -0.245 OA
ENDROOT
BRANCH   1  10
ATOM      3  C   UNL     1      -2.058   4.180   2.080  0.00  0.00    +0.044 C 
ATOM      4  C   UNL     1      -0.805   3.453   1.663  0.00  0.00    -0.050 A 
ATOM      5  C   UNL     1       0.423   4.110   1.720  0.00  0.00    +0.005 A 
ATOM      6  C   UNL     1       1.572   3.482   1.350  0.00  0.00    +0.028 A 
ATOM      7  C   UNL     1       1.527   2.149   0.903  0.00  0.00    +0.072 A 
ATOM      8  C   UNL     1       0.276   1.485   0.849  0.00  0.00    +0.015 A 
ATOM      9  C   UNL     1      -0.887   2.160   1.241  0.00  0.00    +0.014 A 
ATOM     10  C   UNL     1       0.240   0.143   0.400  0.00  0.00    +0.073 A 
ATOM     11  C   UNL     1       1.441  -0.462   0.029  0.00  0.00    -0.012 A 
ATOM     12  C   UNL     1       2.625   0.258   0.108  0.00  0.00    +0.046 A 
ATOM     13  N   UNL     1       2.633   1.507   0.533  0.00  0.00    -0.251 NA
ATOM     14  C   UNL     1       3.953  -0.340  -0.287  0.00  0.00    +0.056 C 
ATOM     15  C   UNL     1       3.866  -1.863  -0.326  0.00  0.00    +0.006 C 
ATOM     16  C   UNL     1       2.665  -2.258  -1.193  0.00  0.00    +0.005 C 
ATOM     17  C   UNL     1       1.387  -1.891  -0.441  0.00  0.00    +0.038 C 
ENDBRANCH   1  10
BRANCH   1  18
ATOM     18  O   UNL     1      -1.425  -1.374   1.356  0.00  0.00    -0.448 OA
BRANCH  18  19
ATOM     19  C   UNL     1      -2.715  -2.030   1.237  0.00  0.00    +0.265 C 
BRANCH  19  20
ATOM     20  C   UNL     1      -3.548  -1.724   2.455  0.00  0.00    +0.261 C 
ATOM     21  O   UNL     1      -3.099  -1.022   3.336  0.00  0.00    -0.271 OA
ATOM     22  N   UNL     1      -4.793  -2.229   2.565  0.00  0.00    -0.237 N 
ATOM     23  C   UNL     1      -5.538  -1.956   3.654  0.00  0.00    +0.303 C 
ATOM     24  O   UNL     1      -5.087  -1.252   4.537  0.00  0.00    -0.253 OA
ATOM     25  N   UNL     1      -6.782  -2.461   3.764  0.00  0.00    -0.313 N 
ATOM     26  H   UNL     1      -5.200  -2.866   1.766  0.00  0.00    +0.159 HD
ATOM     27  H   UNL     1      -7.390  -2.238   4.653  0.00  0.00    +0.146 HD
ATOM     28  H   UNL     1      -7.190  -3.098   2.965  0.00  0.00    +0.146 HD
ENDBRANCH  19  20
BRANCH  19  29
ATOM     29  C   UNL     1      -2.511  -3.542   1.127  0.00  0.00    +0.033 C 
ATOM     30  C   UNL     1      -1.706  -3.857  -0.136  0.00  0.00    +0.011 C 
ATOM     31  C   UNL     1      -1.750  -4.045   2.355  0.00  0.00    +0.011 C 
ENDBRANCH  19  29
ENDBRANCH  18  19
ENDBRANCH   1  18
TORSDOF 5
