REMARK  Name = ZINC39448608
REMARK  8 active torsions:
REMARK  status: ('A' for Active; 'I' for Inactive)
REMARK    1  A    between atoms: C_1  and  C_2
REMARK    2  A    between atoms: C_2  and  C_14
REMARK    3  A    between atoms: N_6  and  C_8
REMARK    4  A    between atoms: C_17  and  N_20
REMARK    5  A    between atoms: C_21  and  C_24
REMARK    6  A    between atoms: N_22  and  O_23
REMARK    7  A    between atoms: C_24  and  C_27
REMARK    8  A    between atoms: N_25  and  O_26
REMARK                            x       y       z     vdW  Elec       q    Type
REMARK                         _______ _______ _______ _____ _____    ______ ____
ROOT
ATOM      1  C   UNL     1       0.588  -0.994  -1.141  0.00  0.00    -0.008 A 
ATOM      2  C   UNL     1       1.840  -1.581  -1.130  0.00  0.00    +0.009 A 
ATOM      3  C   UNL     1       2.486  -1.856  -2.319  0.00  0.00    +0.023 A 
ATOM      4  C   UNL     1       1.877  -1.542  -3.527  0.00  0.00    +0.033 A 
ATOM      5  C   UNL     1       0.619  -0.953  -3.535  0.00  0.00    +0.023 A 
ATOM      6  C   UNL     1      -0.024  -0.686  -2.342  0.00  0.00    +0.009 A 
ENDROOT
BRANCH   1   8
ATOM      7  C   UNL     1       0.226   0.717   0.637  0.00  0.00    +0.056 C 
ATOM      8  C   UNL     1      -0.114  -0.696   0.159  0.00  0.00    +0.126 C 
ATOM      9  N   UNL     1      -1.570  -0.851   0.008  0.00  0.00    -0.275 N 
ATOM     10  C   UNL     1      -1.948  -1.823   0.858  0.00  0.00    +0.322 C 
ATOM     11  O   UNL     1      -3.094  -2.208   0.990  0.00  0.00    -0.251 OA
ATOM     12  N   UNL     1      -0.907  -2.315   1.542  0.00  0.00    -0.187 N 
ATOM     13  N   UNL     1       0.254  -1.691   1.185  0.00  0.00    -0.205 NA
ATOM     14  H   UNL     1      -2.146  -0.349  -0.589  0.00  0.00    +0.152 HD
ATOM     15  H   UNL     1       0.924  -2.353   0.823  0.00  0.00    +0.148 HD
BRANCH  12  16
ATOM     16  C   UNL     1      -0.997  -3.334   2.497  0.00  0.00    +0.054 A 
ATOM     17  C   UNL     1      -2.042  -4.247   2.444  0.00  0.00    +0.025 A 
ATOM     18  C   UNL     1      -2.128  -5.252   3.387  0.00  0.00    +0.002 A 
ATOM     19  C   UNL     1      -1.174  -5.350   4.384  0.00  0.00    +0.000 A 
ATOM     20  C   UNL     1      -0.132  -4.443   4.440  0.00  0.00    +0.002 A 
ATOM     21  C   UNL     1      -0.038  -3.439   3.496  0.00  0.00    +0.025 A 
ENDBRANCH  12  16
ENDBRANCH   1   8
BRANCH   4  22
ATOM     22  N   UNL     1       2.528  -1.819  -4.733  0.00  0.00    -0.295 N 
ATOM     23  C   UNL     1       3.872  -2.159  -4.732  0.00  0.00    +0.191 C 
ATOM     24  N   UNL     1       4.558  -2.097  -3.629  0.00  0.00    -0.069 NA
ATOM     25  H   UNL     1       2.039  -1.772  -5.569  0.00  0.00    +0.154 HD
BRANCH  24  26
ATOM     26  O   UNL     1       5.909  -2.522  -3.611  0.00  0.00    -0.408 OA
ATOM     27  H   UNL     1       6.313  -2.510  -2.732  0.00  0.00    +0.328 HD
ENDBRANCH  24  26
BRANCH  23  28
ATOM     28  C   UNL     1       4.525  -2.593  -5.987  0.00  0.00    +0.153 C 
ATOM     29  N   UNL     1       3.869  -2.550  -7.111  0.00  0.00    -0.083 NA
BRANCH  28  30
ATOM     30  C   UNL     1       5.926  -3.076  -5.964  0.00  0.00    +0.007 A 
ATOM     31  C   UNL     1       6.194  -4.444  -5.908  0.00  0.00    +0.010 A 
ATOM     32  C   UNL     1       7.500  -4.888  -5.887  0.00  0.00    +0.001 A 
ATOM     33  C   UNL     1       8.543  -3.979  -5.921  0.00  0.00    +0.000 A 
ATOM     34  C   UNL     1       8.283  -2.621  -5.977  0.00  0.00    +0.001 A 
ATOM     35  C   UNL     1       6.981  -2.166  -6.004  0.00  0.00    +0.010 A 
ENDBRANCH  28  30
BRANCH  29  36
ATOM     36  O   UNL     1       4.457  -3.063  -8.293  0.00  0.00    -0.409 OA
ATOM     37  H   UNL     1       3.895  -2.987  -9.077  0.00  0.00    +0.328 HD
ENDBRANCH  29  36
ENDBRANCH  23  28
ENDBRANCH   4  22
TORSDOF 7
