REMARK  Name = ZINC08888300
REMARK  4 active torsions:
REMARK  status: ('A' for Active; 'I' for Inactive)
REMARK    1  A    between atoms: C_1  and  C_2
REMARK    2  A    between atoms: C_2  and  C_16
REMARK    3  A    between atoms: N_5  and  C_9
REMARK    4  A    between atoms: C_9  and  C_10
REMARK                            x       y       z     vdW  Elec       q    Type
REMARK                         _______ _______ _______ _____ _____    ______ ____
ROOT
ATOM      1  C   UNL     1      -0.019   1.526   0.010  0.00  0.00    +0.047 C 
ATOM      2  C   UNL     1       0.002  -0.004   0.002  0.00  0.00    +0.136 C 
ATOM      3  C   UNL     1       0.815  -0.520  -1.169  0.00  0.00    +0.251 C 
ATOM      4  O   UNL     1       0.595  -0.342  -2.348  0.00  0.00    -0.272 OA
ATOM      5  N   UNL     1       1.833  -1.217  -0.627  0.00  0.00    -0.220 N 
ATOM      6  C   UNL     1       1.777  -1.214   0.710  0.00  0.00    +0.310 C 
ATOM      7  O   UNL     1       2.586  -1.776   1.421  0.00  0.00    -0.252 OA
ATOM      8  N   UNL     1       0.724  -0.519   1.178  0.00  0.00    -0.281 N 
ATOM      9  H   UNL     1       0.487  -0.383   2.109  0.00  0.00    +0.152 HD
ENDROOT
BRANCH   2  10
ATOM     10  C   UNL     1      -1.401  -0.551  -0.040  0.00  0.00    -0.002 A 
ATOM     11  C   UNL     1      -1.863  -1.350   0.990  0.00  0.00    +0.007 A 
ATOM     12  C   UNL     1      -3.150  -1.852   0.952  0.00  0.00    +0.000 A 
ATOM     13  C   UNL     1      -3.977  -1.556  -0.116  0.00  0.00    +0.001 A 
ATOM     14  C   UNL     1      -3.516  -0.757  -1.146  0.00  0.00    +0.015 A 
ATOM     15  C   UNL     1      -2.229  -0.251  -1.106  0.00  0.00    +0.024 A 
ATOM     16 BR   UNL     1      -1.601   0.847  -2.511  0.00  0.00    -0.050 Br
ENDBRANCH   2  10
BRANCH   5  17
ATOM     17  C   UNL     1       2.871  -1.896  -1.406  0.00  0.00    +0.153 C 
BRANCH  17  18
ATOM     18  C   UNL     1       4.020  -0.950  -1.644  0.00  0.00    -0.030 A 
ATOM     19  C   UNL     1       4.027  -0.140  -2.764  0.00  0.00    +0.005 A 
ATOM     20  C   UNL     1       5.081   0.728  -2.982  0.00  0.00    +0.000 A 
ATOM     21  C   UNL     1       6.127   0.786  -2.080  0.00  0.00    +0.000 A 
ATOM     22  C   UNL     1       6.119  -0.023  -0.959  0.00  0.00    +0.000 A 
ATOM     23  C   UNL     1       5.063  -0.888  -0.739  0.00  0.00    +0.005 A 
ENDBRANCH  17  18
ENDBRANCH   5  17
TORSDOF 3
