REMARK  Name = ZINC23479551
REMARK  8 active torsions:
REMARK  status: ('A' for Active; 'I' for Inactive)
REMARK    1  A    between atoms: C_1  and  C_2
REMARK    2  A    between atoms: C_7  and  N_12
REMARK    3  A    between atoms: C_9  and  C_11
REMARK    4  A    between atoms: C_13  and  C_15
REMARK    5  A    between atoms: C_15  and  O_16
REMARK    6  A    between atoms: O_16  and  C_17
REMARK    7  A    between atoms: C_17  and  C_19
REMARK    8  A    between atoms: C_21  and  N_27
REMARK                            x       y       z     vdW  Elec       q    Type
REMARK                         _______ _______ _______ _____ _____    ______ ____
ROOT
ATOM      1  O   UNL     1       0.994   3.538   0.012  0.00  0.00    -0.451 OA
ENDROOT
BRANCH   1   2
ATOM      2  C   UNL     1       2.051   4.373   0.006  0.00  0.00    +0.360 C 
ATOM      3  O   UNL     1       3.179   3.925  -0.007  0.00  0.00    -0.243 OA
BRANCH   2   4
ATOM      4  C   UNL     1       1.837   5.837   0.016  0.00  0.00    +0.169 A 
ATOM      5  C   UNL     1       2.934   6.694   0.016  0.00  0.00    +0.095 A 
ATOM      6  C   UNL     1       2.715   8.072   0.020  0.00  0.00    +0.067 A 
ATOM      7  C   UNL     1       1.400   8.534   0.035  0.00  0.00    +0.100 A 
ATOM      8  C   UNL     1       0.361   7.617   0.040  0.00  0.00    +0.150 A 
ATOM      9  N   UNL     1       0.599   6.322   0.030  0.00  0.00    -0.226 NA
ATOM     10 CL   UNL     1      -1.280   8.184   0.058  0.00  0.00    -0.060 Cl
ATOM     11 CL   UNL     1       1.068  10.237   0.048  0.00  0.00    -0.078 Cl
ATOM     12 CL   UNL     1       4.550   6.058   0.004  0.00  0.00    -0.079 Cl
BRANCH   6  13
ATOM     13  N   UNL     1       3.785   8.965   0.015  0.00  0.00    -0.356 N 
ATOM     14  H   UNL     1       3.597  10.049   0.018  0.00  0.00    +0.142 HD
ATOM     15  H   UNL     1       4.818   8.586   0.007  0.00  0.00    +0.142 HD
ENDBRANCH   6  13
ENDBRANCH   2   4
ENDBRANCH   1   2
BRANCH   1  16
ATOM     16  C   UNL     1       1.278   2.115   0.001  0.00  0.00    +0.328 C 
BRANCH  16  18
ATOM     17  N   UNL     1       0.002  -0.004   0.002  0.00  0.00    -0.309 N 
ATOM     18  C   UNL     1      -0.016   1.344   0.009  0.00  0.00    +0.251 C 
ATOM     19  O   UNL     1      -1.075   1.936   0.018  0.00  0.00    -0.272 OA
ATOM     20  H   UNL     1       0.962  -0.541  -0.010  0.00  0.00    +0.149 HD
BRANCH  17  26
ATOM     21  C   UNL     1       0.252  -4.278   0.369  0.00  0.00    +0.008 C 
ATOM     22  C   UNL     1       0.015  -2.891  -0.231  0.00  0.00    -0.009 C 
ATOM     23  C   UNL     1      -0.501  -3.036  -1.664  0.00  0.00    +0.003 C 
ATOM     24  C   UNL     1      -0.738  -1.649  -2.264  0.00  0.00    +0.002 C 
ATOM     25  C   UNL     1      -1.773  -0.899  -1.423  0.00  0.00    +0.022 C 
ATOM     26  C   UNL     1      -1.256  -0.754   0.010  0.00  0.00    +0.076 C 
ATOM     27  C   UNL     1      -1.020  -2.141   0.610  0.00  0.00    +0.009 C 
ATOM     28  C   UNL     1      -0.504  -1.996   2.043  0.00  0.00    +0.009 C 
ENDBRANCH  17  26
ENDBRANCH  16  18
ENDBRANCH   1  16
TORSDOF 6
