REMARK  Name = ZINC04504914
REMARK  3 active torsions:
REMARK  status: ('A' for Active; 'I' for Inactive)
REMARK    1  A    between atoms: C_4  and  C_7
REMARK    2  A    between atoms: C_7  and  C_8
REMARK    3  A    between atoms: N_10  and  C_11
REMARK                            x       y       z     vdW  Elec       q    Type
REMARK                         _______ _______ _______ _____ _____    ______ ____
ROOT
ATOM      1  C   UNL     1      -3.438   1.691   3.045  0.00  0.00    +0.214 C 
ATOM      2  O   UNL     1      -3.079   0.563   3.307  0.00  0.00    -0.276 OA
ATOM      3  N   UNL     1      -3.112   2.244   1.860  0.00  0.00    -0.311 N 
ATOM      4  H   UNL     1      -3.399   3.146   1.650  0.00  0.00    +0.149 HD
ENDROOT
BRANCH   3   5
ATOM      5  C   UNL     1      -2.324   1.481   0.888  0.00  0.00    +0.095 C 
ATOM      6  C   UNL     1      -0.828   1.631   1.215  0.00  0.00    +0.046 C 
ATOM      7  C   UNL     1      -0.013   1.086   0.008  0.00  0.00    +0.168 C 
ATOM      8  S   UNL     1      -1.006   1.746  -1.397  0.00  0.00    -0.029 S 
ATOM      9  O   UNL     1      -0.474   3.005  -1.787  0.00  0.00    -0.174 OA
ATOM     10  O   UNL     1      -1.167   0.724  -2.370  0.00  0.00    -0.174 OA
ATOM     11  C   UNL     1      -2.609   2.015  -0.537  0.00  0.00    +0.188 C 
ENDBRANCH   3   5
BRANCH   1  12
ATOM     12  C   UNL     1      -4.248   2.476   4.045  0.00  0.00    +0.099 C 
BRANCH  12  16
ATOM     13  C   UNL     1      -6.283   0.401   7.251  0.00  0.00    +0.000 C 
ATOM     14  C   UNL     1      -5.420   1.613   7.609  0.00  0.00    +0.000 C 
ATOM     15  C   UNL     1      -5.191   2.463   6.358  0.00  0.00    +0.004 C 
ATOM     16  C   UNL     1      -4.477   1.625   5.295  0.00  0.00    -0.002 C 
ATOM     17  C   UNL     1      -5.340   0.414   4.937  0.00  0.00    +0.004 C 
ATOM     18  C   UNL     1      -5.569  -0.437   6.188  0.00  0.00    +0.000 C 
ENDBRANCH  12  16
ENDBRANCH   1  12
TORSDOF 3
