REMARK  Name = ZINC01242950
REMARK  8 active torsions:
REMARK  status: ('A' for Active; 'I' for Inactive)
REMARK    1  A    between atoms: C_1  and  C_2
REMARK    2  A    between atoms: C_2  and  O_3
REMARK    3  A    between atoms: O_3  and  C_4
REMARK    4  A    between atoms: C_4  and  C_6
REMARK    5  A    between atoms: C_7  and  C_26
REMARK    6  A    between atoms: N_11  and  C_12
REMARK    7  A    between atoms: C_12  and  C_14
REMARK    8  A    between atoms: C_19  and  C_23
REMARK                            x       y       z     vdW  Elec       q    Type
REMARK                         _______ _______ _______ _____ _____    ______ ____
ROOT
ATOM      1  C   UNL     1       1.449  -2.344  -2.517  0.00  0.00    +0.118 A 
ATOM      2  C   UNL     1       1.653  -3.643  -2.866  0.00  0.00    +0.036 A 
ATOM      3  N   UNL     1       2.308  -3.870  -4.018  0.00  0.00    -0.339 N 
ATOM      4  H   UNL     1       2.480  -4.778  -4.315  0.00  0.00    +0.167 HD
ATOM      5  C   UNL     1       2.727  -2.808  -4.767  0.00  0.00    +0.164 A 
ATOM      6  N   UNL     1       3.382  -2.822  -5.923  0.00  0.00    -0.152 NA
ATOM      7  S   UNL     1       2.208  -1.478  -3.878  0.00  0.00    -0.046 S 
ATOM      8  C   UNL     1       1.169  -4.777  -2.000  0.00  0.00    +0.065 C 
ENDROOT
BRANCH   1   9
ATOM      9  C   UNL     1       0.776  -1.800  -1.335  0.00  0.00    +0.348 C 
ATOM     10  O   UNL     1       0.312  -2.552  -0.499  0.00  0.00    -0.244 OA
BRANCH   9  11
ATOM     11  O   UNL     1       0.671  -0.465  -1.174  0.00  0.00    -0.461 OA
BRANCH  11  13
ATOM     12  C   UNL     1      -0.019   1.526   0.010  0.00  0.00    +0.048 C 
ATOM     13  C   UNL     1       0.002  -0.004   0.002  0.00  0.00    +0.229 C 
ENDBRANCH  11  13
ENDBRANCH   9  11
ENDBRANCH   1   9
BRANCH   6  14
ATOM     14  C   UNL     1       3.714  -1.669  -6.518  0.00  0.00    +0.278 C 
ATOM     15  O   UNL     1       3.415  -0.607  -5.999  0.00  0.00    -0.267 OA
BRANCH  14  16
ATOM     16  C   UNL     1       4.440  -1.685  -7.799  0.00  0.00    +0.095 A 
ATOM     17  C   UNL     1       4.864  -0.631  -8.545  0.00  0.00    +0.068 A 
ATOM     18  C   UNL     1       5.549  -0.857  -9.755  0.00  0.00    +0.008 A 
ATOM     19  C   UNL     1       6.066   0.102 -10.664  0.00  0.00    +0.011 A 
ATOM     20  C   UNL     1       6.706  -0.289 -11.796  0.00  0.00    +0.004 A 
ATOM     21  C   UNL     1       6.881  -1.632 -12.107  0.00  0.00    -0.049 A 
ATOM     22  C   UNL     1       6.394  -2.598 -11.249  0.00  0.00    +0.019 A 
ATOM     23  C   UNL     1       5.742  -2.216 -10.097  0.00  0.00    +0.022 A 
ATOM     24  S   UNL     1       4.986  -3.092  -8.751  0.00  0.00    -0.082 S 
ATOM     25  C   UNL     1       7.597  -2.031 -13.372  0.00  0.00    +0.044 C 
ATOM     26 CL   UNL     1       4.560   0.992  -8.008  0.00  0.00    -0.082 Cl
ENDBRANCH  14  16
ENDBRANCH   6  14
TORSDOF 5
