REMARK  Name = ZINC29282542
REMARK  11 active torsions:
REMARK  status: ('A' for Active; 'I' for Inactive)
REMARK    1  A    between atoms: C_1  and  C_2
REMARK    2  A    between atoms: C_3  and  S_12
REMARK    3  A    between atoms: S_12  and  C_13
REMARK    4  A    between atoms: C_13  and  C_15
REMARK    5  A    between atoms: C_13  and  C_16
REMARK    6  A    between atoms: N_18  and  C_19
REMARK    7  A    between atoms: C_19  and  C_20
REMARK    8  A    between atoms: C_19  and  C_21
REMARK    9  A    between atoms: C_19  and  C_23
REMARK   10  A    between atoms: C_23  and  C_24
REMARK   11  A    between atoms: C_23  and  C_25
REMARK                            x       y       z     vdW  Elec       q    Type
REMARK                         _______ _______ _______ _____ _____    ______ ____
ROOT
ATOM      1  C   UNL     1      -0.003  -1.077  -4.016  0.00  0.00    +0.135 C 
ATOM      2  C   UNL     1       1.316  -1.850  -3.950  0.00  0.00    +0.029 C 
ENDROOT
BRANCH   1   3
ATOM      3  C   UNL     1      -0.142  -0.436  -5.373  0.00  0.00    +0.227 C 
ATOM      4  O   UNL     1       0.206   0.714  -5.540  0.00  0.00    -0.275 OA
ATOM      5  N   UNL     1      -0.654  -1.141  -6.402  0.00  0.00    -0.296 N 
ATOM      6  H   UNL     1      -0.932  -2.061  -6.268  0.00  0.00    +0.150 HD
BRANCH   5   7
ATOM      7  C   UNL     1      -0.789  -0.519  -7.721  0.00  0.00    +0.121 C 
ATOM      8  C   UNL     1      -1.706   0.701  -7.617  0.00  0.00    +0.048 C 
BRANCH   7   9
ATOM      9  C   UNL     1      -1.391  -1.528  -8.701  0.00  0.00    +0.020 C 
ATOM     10  C   UNL     1      -1.649  -0.842 -10.044  0.00  0.00    +0.010 C 
ATOM     11  C   UNL     1      -0.416  -2.690  -8.900  0.00  0.00    +0.010 C 
ENDBRANCH   7   9
BRANCH   7  12
ATOM     12  C   UNL     1       0.536  -0.097  -8.203  0.00  0.00    +0.088 C 
ATOM     13  N   UNL     1       1.559   0.228  -8.575  0.00  0.00    -0.194 NA
ENDBRANCH   7  12
ENDBRANCH   5   7
ENDBRANCH   1   3
BRANCH   1  14
ATOM     14  S   UNL     1      -0.014   0.209  -2.736  0.00  0.00    -0.092 S 
BRANCH  14  17
ATOM     15  C   UNL     1      -0.018   1.503   0.010  0.00  0.00    +0.068 C 
ATOM     16  C   UNL     1       0.002  -0.004   0.002  0.00  0.00    +0.071 A 
ATOM     17  C   UNL     1       0.006  -0.694  -1.224  0.00  0.00    +0.119 A 
ATOM     18  N   UNL     1       0.024  -2.014  -1.249  0.00  0.00    -0.237 NA
ATOM     19  C   UNL     1       0.038  -2.699  -0.098  0.00  0.00    +0.090 A 
ATOM     20  C   UNL     1       0.058  -4.104  -0.092  0.00  0.00    +0.030 A 
ATOM     21  C   UNL     1       0.073  -4.773   1.093  0.00  0.00    +0.002 A 
ATOM     22  C   UNL     1       0.069  -4.085   2.304  0.00  0.00    +0.002 A 
ATOM     23  C   UNL     1       0.050  -2.724   2.337  0.00  0.00    +0.030 A 
ATOM     24  C   UNL     1       0.035  -1.999   1.133  0.00  0.00    +0.090 A 
ATOM     25  N   UNL     1       0.022  -0.659   1.137  0.00  0.00    -0.248 NA
ENDBRANCH  14  17
ENDBRANCH   1  14
TORSDOF 6
