REMARK  Name = ZINC66635378
REMARK  7 active torsions:
REMARK  status: ('A' for Active; 'I' for Inactive)
REMARK    1  A    between atoms: C_1  and  O_2
REMARK    2  A    between atoms: O_2  and  C_3
REMARK    3  A    between atoms: C_3  and  C_5
REMARK    4  A    between atoms: C_9  and  N_12
REMARK    5  A    between atoms: C_10  and  O_11
REMARK    6  A    between atoms: C_13  and  C_15
REMARK    7  A    between atoms: C_18  and  C_20
REMARK                            x       y       z     vdW  Elec       q    Type
REMARK                         _______ _______ _______ _____ _____    ______ ____
ROOT
ATOM      1  N   UNL     1       1.960  -4.723  -3.349  0.00  0.00    -0.282 N 
ATOM      2  C   UNL     1       2.097  -6.064  -3.357  0.00  0.00    +0.221 C 
ATOM      3  O   UNL     1       1.599  -6.729  -2.474  0.00  0.00    -0.275 OA
ATOM      4  H   UNL     1       2.301  -4.196  -4.088  0.00  0.00    +0.155 HD
ENDROOT
BRANCH   1   9
ATOM      5  C   UNL     1       1.116  -2.211  -0.770  0.00  0.00    +0.102 A 
ATOM      6  C   UNL     1       0.050  -2.853  -0.132  0.00  0.00    +0.019 A 
ATOM      7  C   UNL     1      -0.366  -4.093  -0.563  0.00  0.00    +0.003 A 
ATOM      8  C   UNL     1       0.267  -4.712  -1.628  0.00  0.00    +0.027 A 
ATOM      9  C   UNL     1       1.324  -4.090  -2.272  0.00  0.00    +0.076 A 
ATOM     10  C   UNL     1       1.752  -2.832  -1.851  0.00  0.00    +0.152 A 
BRANCH   5  11
ATOM     11  C   UNL     1       1.563  -0.883  -0.311  0.00  0.00    +0.343 C 
ATOM     12  O   UNL     1       2.486  -0.326  -0.871  0.00  0.00    -0.245 OA
BRANCH  11  14
ATOM     13  C   UNL     1       1.434   0.998   1.121  0.00  0.00    +0.280 C 
ATOM     14  O   UNL     1       0.949  -0.288   0.730  0.00  0.00    -0.464 OA
ENDBRANCH  11  14
ENDBRANCH   5  11
BRANCH  10  15
ATOM     15  O   UNL     1       2.784  -2.216  -2.482  0.00  0.00    -0.504 OA
ATOM     16  H   UNL     1       3.652  -2.422  -2.109  0.00  0.00    +0.292 HD
ENDBRANCH  10  15
ENDBRANCH   1   9
BRANCH   2  17
ATOM     17  C   UNL     1       2.868  -6.736  -4.463  0.00  0.00    +0.083 C 
ATOM     18  C   UNL     1       4.205  -7.384  -4.100  0.00  0.00    +0.022 C 
ATOM     19  C   UNL     1       2.990  -8.260  -4.415  0.00  0.00    +0.032 C 
BRANCH  19  20
ATOM     20  C   UNL     1       2.329  -8.975  -3.265  0.00  0.00    -0.041 A 
ATOM     21  C   UNL     1       2.704  -8.686  -1.965  0.00  0.00    +0.004 A 
ATOM     22  C   UNL     1       2.098  -9.341  -0.909  0.00  0.00    +0.003 A 
ATOM     23  C   UNL     1       1.118 -10.285  -1.151  0.00  0.00    +0.038 A 
ATOM     24  C   UNL     1       0.742 -10.575  -2.451  0.00  0.00    +0.124 A 
ATOM     25  C   UNL     1       1.345  -9.914  -3.509  0.00  0.00    +0.042 A 
ATOM     26  F   UNL     1      -0.215 -11.497  -2.689  0.00  0.00    -0.205 F 
ENDBRANCH  19  20
ENDBRANCH   2  17
TORSDOF 6
