REMARK  Name = ZINC27830409
REMARK  6 active torsions:
REMARK  status: ('A' for Active; 'I' for Inactive)
REMARK    1  A    between atoms: C_4  and  N_7
REMARK    2  A    between atoms: C_12  and  C_15
REMARK    3  A    between atoms: C_15  and  C_16
REMARK    4  A    between atoms: N_18  and  C_19
REMARK    5  A    between atoms: C_22  and  C_25
REMARK    6  A    between atoms: C_28  and  N_31
REMARK                            x       y       z     vdW  Elec       q    Type
REMARK                         _______ _______ _______ _____ _____    ______ ____
ROOT
ATOM      1  C   UNL     1       1.806   4.266  -1.167  0.00  0.00    +0.219 C 
ATOM      2  O   UNL     1       1.256   4.695  -0.174  0.00  0.00    -0.275 OA
ATOM      3  N   UNL     1       1.927   5.046  -2.260  0.00  0.00    -0.285 N 
ATOM      4  H   UNL     1       2.502   4.690  -3.128  0.00  0.00    +0.155 HD
ENDROOT
BRANCH   3   5
ATOM      5  C   UNL     1       1.323   6.306  -2.290  0.00  0.00    +0.033 A 
ATOM      6  C   UNL     1       0.116   6.513  -1.633  0.00  0.00    +0.024 A 
ATOM      7  C   UNL     1      -0.479   7.757  -1.656  0.00  0.00    +0.010 A 
ATOM      8  C   UNL     1       0.125   8.804  -2.350  0.00  0.00    -0.018 A 
ATOM      9  C   UNL     1       1.333   8.593  -3.013  0.00  0.00    +0.010 A 
ATOM     10  C   UNL     1       1.927   7.349  -2.982  0.00  0.00    +0.024 A 
BRANCH   8  11
ATOM     11  C   UNL     1      -0.515  10.142  -2.381  0.00  0.00    -0.018 A 
ATOM     12  C   UNL     1       0.090  11.191  -3.069  0.00  0.00    +0.011 A 
ATOM     13  C   UNL     1      -0.513  12.432  -3.100  0.00  0.00    +0.033 A 
ATOM     14  C   UNL     1      -1.712  12.638  -2.440  0.00  0.00    +0.126 A 
ATOM     15  C   UNL     1      -2.315  11.601  -1.751  0.00  0.00    +0.033 A 
ATOM     16  C   UNL     1      -1.723  10.354  -1.719  0.00  0.00    +0.011 A 
BRANCH  14  17
ATOM     17  N   UNL     1      -2.351  13.972  -2.472  0.00  0.00    +0.056 N 
ATOM     18  O   UNL     1      -3.406  14.156  -1.892  0.00  0.00    -0.126 OA
ATOM     19  O   UNL     1      -1.822  14.887  -3.078  0.00  0.00    -0.126 OA
ENDBRANCH  14  17
ENDBRANCH   8  11
ENDBRANCH   3   5
BRANCH   1  20
ATOM     20  C   UNL     1       2.355   2.863  -1.177  0.00  0.00    +0.120 C 
BRANCH  20  26
ATOM     21  N   UNL     1      -0.706  -0.645   0.741  0.00  0.00    -0.226 NA
ATOM     22  C   UNL     1       0.307   0.166   0.548  0.00  0.00    +0.161 C 
ATOM     23  N   UNL     1       1.636  -0.159   0.374  0.00  0.00    -0.264 N 
ATOM     24  C   UNL     1       2.570   0.759   0.188  0.00  0.00    +0.232 C 
ATOM     25  O   UNL     1       3.737   0.468   0.036  0.00  0.00    -0.274 OA
ATOM     26  C   UNL     1       2.088   2.200   0.175  0.00  0.00    +0.149 C 
ATOM     27  S   UNL     1       0.289   1.949   0.450  0.00  0.00    -0.077 S 
ATOM     28  H   UNL     1       1.952  -1.212   0.388  0.00  0.00    +0.157 HD
BRANCH  21  32
ATOM     29  C   UNL     1      -0.086  -4.735   0.882  0.00  0.00    +0.000 A 
ATOM     30  C   UNL     1      -0.898  -4.129   1.824  0.00  0.00    +0.002 A 
ATOM     31  C   UNL     1      -1.109  -2.766   1.783  0.00  0.00    +0.028 A 
ATOM     32  C   UNL     1      -0.501  -1.999   0.787  0.00  0.00    +0.066 A 
ATOM     33  C   UNL     1       0.312  -2.618  -0.164  0.00  0.00    +0.028 A 
ATOM     34  C   UNL     1       0.519  -3.981  -0.107  0.00  0.00    +0.002 A 
ENDBRANCH  21  32
ENDBRANCH  20  26
ENDBRANCH   1  20
TORSDOF 6
