REMARK  Name = ZINC47056745
REMARK  14 active torsions:
REMARK  status: ('A' for Active; 'I' for Inactive)
REMARK    1  A    between atoms: C_1  and  C_2
REMARK    2  A    between atoms: C_2  and  O_3
REMARK    3  A    between atoms: O_3  and  C_4
REMARK    4  A    between atoms: N_6  and  C_7
REMARK    5  A    between atoms: C_7  and  C_9
REMARK    6  A    between atoms: C_7  and  C_13
REMARK    7  A    between atoms: C_9  and  C_10
REMARK    8  A    between atoms: C_10  and  C_11
REMARK    9  A    between atoms: C_10  and  C_12
REMARK   10  A    between atoms: C_13  and  N_14
REMARK   11  A    between atoms: N_17  and  N_18
REMARK   12  A    between atoms: C_19  and  C_21
REMARK   13  A    between atoms: C_21  and  O_22
REMARK   14  A    between atoms: O_22  and  C_23
REMARK                            x       y       z     vdW  Elec       q    Type
REMARK                         _______ _______ _______ _____ _____    ______ ____
ROOT
ATOM      1  N   UNL     1       4.015  -3.365  -3.041  0.00  0.00    -0.296 N 
ATOM      2  C   UNL     1       5.207  -3.536  -3.644  0.00  0.00    +0.316 C 
ATOM      3  O   UNL     1       5.306  -4.293  -4.591  0.00  0.00    -0.251 OA
ATOM      4  N   UNL     1       6.290  -2.869  -3.199  0.00  0.00    -0.218 N 
ATOM      5  H   UNL     1       3.936  -2.762  -2.285  0.00  0.00    +0.150 HD
ATOM      6  H   UNL     1       7.149  -2.992  -3.634  0.00  0.00    +0.174 HD
ENDROOT
BRANCH   4   7
ATOM      7  N   UNL     1       6.176  -1.997  -2.108  0.00  0.00    -0.230 N 
ATOM      8  C   UNL     1       7.259  -1.330  -1.663  0.00  0.00    +0.267 C 
ATOM      9  O   UNL     1       8.332  -1.484  -2.206  0.00  0.00    -0.271 OA
ATOM     10  H   UNL     1       5.318  -1.874  -1.673  0.00  0.00    +0.173 HD
BRANCH   8  11
ATOM     11  C   UNL     1       7.136  -0.393  -0.489  0.00  0.00    +0.326 C 
BRANCH  11  12
ATOM     12  O   UNL     1       8.411   0.190  -0.209  0.00  0.00    -0.480 OA
BRANCH  12  13
ATOM     13  C   UNL     1       8.475   1.066   0.828  0.00  0.00    +0.156 A 
ATOM     14  C   UNL     1       7.336   1.355   1.565  0.00  0.00    +0.048 A 
ATOM     15  C   UNL     1       7.403   2.246   2.619  0.00  0.00    +0.004 A 
ATOM     16  C   UNL     1       8.604   2.851   2.940  0.00  0.00    +0.003 A 
ATOM     17  C   UNL     1       9.742   2.567   2.208  0.00  0.00    +0.042 A 
ATOM     18  C   UNL     1       9.682   1.670   1.155  0.00  0.00    +0.165 A 
ATOM     19  F   UNL     1      10.795   1.387   0.444  0.00  0.00    -0.202 F 
ENDBRANCH  12  13
ENDBRANCH  11  12
ENDBRANCH   8  11
ENDBRANCH   4   7
BRANCH   1  20
ATOM     20  C   UNL     1       2.838  -4.090  -3.525  0.00  0.00    +0.128 C 
BRANCH  20  21
ATOM     21  C   UNL     1       1.623  -3.719  -2.672  0.00  0.00    +0.093 C 
BRANCH  21  24
ATOM     22  C   UNL     1       0.870  -1.654  -1.620  0.00  0.00    +0.401 C 
ATOM     23  O   UNL     1       0.399  -2.317  -0.718  0.00  0.00    -0.226 OA
ATOM     24  N   UNL     1       1.453  -2.264  -2.671  0.00  0.00    -0.277 N 
ATOM     25  H   UNL     1       1.760  -1.739  -3.427  0.00  0.00    +0.152 HD
BRANCH  22  26
ATOM     26  O   UNL     1       0.809  -0.310  -1.571  0.00  0.00    -0.451 OA
BRANCH  26  28
ATOM     27  C   UNL     1       0.203   1.794  -0.548  0.00  0.00    +0.048 C 
ATOM     28  C   UNL     1       0.176   0.269  -0.428  0.00  0.00    +0.230 C 
ENDBRANCH  26  28
ENDBRANCH  22  26
ENDBRANCH  21  24
BRANCH  21  29
ATOM     29  C   UNL     1       0.371  -4.378  -3.253  0.00  0.00    +0.027 C 
BRANCH  29  30
ATOM     30  C   UNL     1       0.506  -5.900  -3.160  0.00  0.00    -0.015 C 
ATOM     31  C   UNL     1       0.511  -6.323  -1.690  0.00  0.00    +0.007 C 
ATOM     32  C   UNL     1      -0.674  -6.561  -3.877  0.00  0.00    +0.007 C 
ENDBRANCH  29  30
ENDBRANCH  21  29
ENDBRANCH  20  21
ENDBRANCH   1  20
TORSDOF 11
