REMARK  Name = ZINC67412229
REMARK  8 active torsions:
REMARK  status: ('A' for Active; 'I' for Inactive)
REMARK    1  A    between atoms: C_1  and  C_2
REMARK    2  A    between atoms: C_2  and  C_3
REMARK    3  A    between atoms: C_2  and  N_4
REMARK    4  A    between atoms: C_7  and  C_10
REMARK    5  A    between atoms: C_10  and  N_11
REMARK    6  A    between atoms: N_14  and  N_15
REMARK    7  A    between atoms: C_16  and  C_18
REMARK    8  A    between atoms: C_18  and  C_19
REMARK                            x       y       z     vdW  Elec       q    Type
REMARK                         _______ _______ _______ _____ _____    ______ ____
ROOT
ATOM      1  N   UNL     1      -0.601  -2.239   5.447  0.00  0.00    -0.298 N 
ATOM      2  C   UNL     1      -0.515  -2.268   6.792  0.00  0.00    +0.316 C 
ATOM      3  O   UNL     1      -0.099  -1.298   7.396  0.00  0.00    -0.251 OA
ATOM      4  N   UNL     1      -0.889  -3.373   7.467  0.00  0.00    -0.218 N 
ATOM      5  H   UNL     1      -0.933  -3.013   4.966  0.00  0.00    +0.150 HD
ATOM      6  H   UNL     1      -0.827  -3.394   8.435  0.00  0.00    +0.174 HD
ENDROOT
BRANCH   4   7
ATOM      7  N   UNL     1      -1.368  -4.490   6.772  0.00  0.00    -0.233 N 
ATOM      8  C   UNL     1      -1.743  -5.595   7.447  0.00  0.00    +0.229 C 
ATOM      9  O   UNL     1      -1.665  -5.621   8.657  0.00  0.00    -0.274 OA
ATOM     10  H   UNL     1      -1.431  -4.469   5.804  0.00  0.00    +0.173 HD
BRANCH   8  11
ATOM     11  C   UNL     1      -2.259  -6.797   6.699  0.00  0.00    +0.101 C 
BRANCH  11  12
ATOM     12  C   UNL     1      -2.611  -7.905   7.694  0.00  0.00    -0.002 C 
ATOM     13  C   UNL     1      -1.339  -8.381   8.398  0.00  0.00    +0.004 C 
ATOM     14  C   UNL     1      -1.691  -9.489   9.393  0.00  0.00    +0.000 C 
ATOM     15  C   UNL     1      -2.330 -10.661   8.646  0.00  0.00    +0.000 C 
ATOM     16  C   UNL     1      -3.602 -10.184   7.942  0.00  0.00    +0.000 C 
ATOM     17  C   UNL     1      -3.250  -9.077   6.947  0.00  0.00    +0.004 C 
ENDBRANCH  11  12
ENDBRANCH   8  11
ENDBRANCH   4   7
BRANCH   1  18
ATOM     18  C   UNL     1      -0.194  -1.038   4.713  0.00  0.00    +0.107 C 
BRANCH  18  22
ATOM     19  N   UNL     1       0.713  -0.491   1.192  0.00  0.00    +0.381 N 
ATOM     20  C   UNL     1       0.717  -1.969   1.199  0.00  0.00    -0.078 C 
ATOM     21  C   UNL     1       0.581  -2.358   2.692  0.00  0.00    -0.015 C 
ATOM     22  C   UNL     1      -0.391  -1.266   3.213  0.00  0.00    -0.012 C 
ATOM     23  C   UNL     1       0.026  -0.018   2.408  0.00  0.00    -0.074 C 
ATOM     24  H   UNL     1       1.662  -0.150   1.184  0.00  0.00    -0.081 HD
BRANCH  19  26
ATOM     25  C   UNL     1      -0.019   1.526   0.010  0.00  0.00    -0.014 C 
ATOM     26  C   UNL     1       0.002  -0.004   0.002  0.00  0.00    -0.075 C 
ATOM     27  C   UNL     1       0.718  -0.497  -1.257  0.00  0.00    -0.014 C 
ENDBRANCH  19  26
ENDBRANCH  18  22
ENDBRANCH   1  18
TORSDOF 6
