REMARK  Name = ZINC18216047
REMARK  9 active torsions:
REMARK  status: ('A' for Active; 'I' for Inactive)
REMARK    1  A    between atoms: C_1  and  C_2
REMARK    2  A    between atoms: C_2  and  C_3
REMARK    3  A    between atoms: C_3  and  C_4
REMARK    4  A    between atoms: N_9  and  C_10
REMARK    5  A    between atoms: C_10  and  C_11
REMARK    6  A    between atoms: N_13  and  C_14
REMARK    7  A    between atoms: C_14  and  C_15
REMARK    8  A    between atoms: C_15  and  N_16
REMARK    9  A    between atoms: C_20  and  C_23
REMARK                            x       y       z     vdW  Elec       q    Type
REMARK                         _______ _______ _______ _____ _____    ______ ____
ROOT
ATOM      1  C   UNL     1      -4.421  -1.844   4.760  0.00  0.00    +0.123 C 
ENDROOT
BRANCH   1   4
ATOM      2  C   UNL     1      -2.802  -2.328   3.004  0.00  0.00    +0.233 C 
ATOM      3  O   UNL     1      -3.728  -2.561   2.255  0.00  0.00    -0.274 OA
ATOM      4  N   UNL     1      -3.042  -1.961   4.278  0.00  0.00    -0.312 N 
ATOM      5  H   UNL     1      -2.302  -1.775   4.877  0.00  0.00    +0.149 HD
BRANCH   2   6
ATOM      6  C   UNL     1      -1.384  -2.448   2.508  0.00  0.00    +0.221 C 
BRANCH   6  12
ATOM      7  C   UNL     1      -1.413  -2.041   0.005  0.00  0.00    +0.135 A 
ATOM      8  N   UNL     1      -1.407  -2.807  -1.049  0.00  0.00    -0.133 NA
ATOM      9  N   UNL     1      -1.388  -4.043  -0.696  0.00  0.00    -0.122 NA
ATOM     10  C   UNL     1      -1.381  -4.132   0.614  0.00  0.00    +0.203 A 
ATOM     11  S   UNL     1      -1.356  -5.617   1.562  0.00  0.00    -0.009 SA
ATOM     12  N   UNL     1      -1.391  -2.857   1.102  0.00  0.00    -0.296 N 
BRANCH   7  13
ATOM     13  C   UNL     1      -1.433  -0.534   0.013  0.00  0.00    +0.076 C 
BRANCH  13  15
ATOM     14  C   UNL     1      -0.019   1.526   0.010  0.00  0.00    +0.004 C 
ATOM     15  C   UNL     1       0.002  -0.004   0.002  0.00  0.00    +0.004 C 
ENDBRANCH  13  15
ENDBRANCH   7  13
ENDBRANCH   6  12
ENDBRANCH   2   6
ENDBRANCH   1   4
BRANCH   1  16
ATOM     16  C   UNL     1      -4.413  -1.417   6.229  0.00  0.00    +0.121 C 
BRANCH  16  17
ATOM     17  N   UNL     1      -5.792  -1.300   6.711  0.00  0.00    -0.326 N 
ATOM     18  C   UNL     1      -6.040  -0.922   8.026  0.00  0.00    +0.137 A 
ATOM     19  C   UNL     1      -7.352  -0.819   8.479  0.00  0.00    +0.081 A 
ATOM     20  C   UNL     1      -7.583  -0.442   9.790  0.00  0.00    +0.037 A 
ATOM     21  C   UNL     1      -6.491  -0.181  10.607  0.00  0.00    +0.074 A 
ATOM     22  C   UNL     1      -5.216  -0.303  10.091  0.00  0.00    +0.125 A 
ATOM     23  N   UNL     1      -5.025  -0.669   8.838  0.00  0.00    -0.238 NA
ATOM     24 CL   UNL     1      -8.680  -1.157   7.413  0.00  0.00    -0.080 Cl
ATOM     25  H   UNL     1      -6.532  -1.487   6.112  0.00  0.00    +0.148 HD
BRANCH  21  26
ATOM     26  C   UNL     1      -6.695   0.233  12.041  0.00  0.00    +0.419 C 
ATOM     27  F   UNL     1      -6.731  -0.905  12.854  0.00  0.00    -0.166 F 
ATOM     28  F   UNL     1      -5.640   1.060  12.443  0.00  0.00    -0.166 F 
ATOM     29  F   UNL     1      -7.903   0.929  12.159  0.00  0.00    -0.166 F 
ENDBRANCH  21  26
ENDBRANCH  16  17
ENDBRANCH   1  16
TORSDOF 8
