REMARK  Name = ZINC43232006
REMARK  5 active torsions:
REMARK  status: ('A' for Active; 'I' for Inactive)
REMARK    1  A    between atoms: C_3  and  C_6
REMARK    2  A    between atoms: N_8  and  C_9
REMARK    3  A    between atoms: C_9  and  C_10
REMARK    4  A    between atoms: C_10  and  N_11
REMARK    5  A    between atoms: N_14  and  C_15
REMARK                            x       y       z     vdW  Elec       q    Type
REMARK                         _______ _______ _______ _____ _____    ______ ____
ROOT
ATOM      1  N   UNL     1       7.609  -2.090  -0.101  0.00  0.00    -0.298 N 
ATOM      2  C   UNL     1       8.255  -3.273  -0.102  0.00  0.00    +0.304 C 
ATOM      3  O   UNL     1       7.623  -4.311  -0.098  0.00  0.00    -0.253 OA
ATOM      4  N   UNL     1       9.603  -3.305  -0.109  0.00  0.00    -0.267 N 
ATOM      5  H   UNL     1       8.114  -1.262  -0.105  0.00  0.00    +0.150 HD
ATOM      6  H   UNL     1      10.107  -2.479  -0.178  0.00  0.00    +0.156 HD
ENDROOT
BRANCH   4   7
ATOM      7  C   UNL     1      10.275  -4.532  -0.016  0.00  0.00    +0.073 A 
ATOM      8  C   UNL     1       9.737  -5.666  -0.608  0.00  0.00    +0.029 A 
ATOM      9  C   UNL     1      10.400  -6.874  -0.516  0.00  0.00    +0.043 A 
ATOM     10  C   UNL     1      11.602  -6.957   0.166  0.00  0.00    +0.161 A 
ATOM     11  C   UNL     1      12.143  -5.827   0.759  0.00  0.00    +0.195 A 
ATOM     12  C   UNL     1      11.485  -4.612   0.664  0.00  0.00    +0.182 A 
ATOM     13  F   UNL     1      12.014  -3.509   1.236  0.00  0.00    -0.200 F 
ATOM     14  F   UNL     1      13.316  -5.909   1.425  0.00  0.00    -0.199 F 
ATOM     15  F   UNL     1      12.247  -8.140   0.255  0.00  0.00    -0.202 F 
ENDBRANCH   4   7
BRANCH   1  16
ATOM     16  C   UNL     1       6.145  -2.055  -0.094  0.00  0.00    +0.124 C 
BRANCH  16  17
ATOM     17  C   UNL     1       5.669  -0.601  -0.094  0.00  0.00    +0.123 C 
BRANCH  17  20
ATOM     18  C   UNL     1       3.559   0.617  -0.086  0.00  0.00    +0.279 C 
ATOM     19  O   UNL     1       4.192   1.656  -0.090  0.00  0.00    -0.267 OA
ATOM     20  N   UNL     1       4.205  -0.566  -0.087  0.00  0.00    -0.307 N 
ATOM     21  H   UNL     1       3.700  -1.395  -0.084  0.00  0.00    +0.149 HD
BRANCH  18  24
ATOM     22  C   UNL     1      -0.019   1.343  -0.070  0.00  0.00    +0.042 A 
ATOM     23  C   UNL     1       1.317   1.775  -0.077  0.00  0.00    +0.054 A 
ATOM     24  C   UNL     1       2.093   0.651  -0.079  0.00  0.00    +0.189 A 
ATOM     25  O   UNL     1       1.274  -0.421  -0.074  0.00  0.00    -0.458 OA
ATOM     26  C   UNL     1       0.000  -0.008  -0.069  0.00  0.00    +0.196 A 
ENDBRANCH  18  24
ENDBRANCH  17  20
ENDBRANCH  16  17
ENDBRANCH   1  16
TORSDOF 5
