REMARK  Name = ZINC67388255
REMARK  4 active torsions:
REMARK  status: ('A' for Active; 'I' for Inactive)
REMARK    1  A    between atoms: C_1  and  C_2
REMARK    2  A    between atoms: C_3  and  C_7
REMARK    3  A    between atoms: N_9  and  C_10
REMARK    4  A    between atoms: N_18  and  C_19
REMARK                            x       y       z     vdW  Elec       q    Type
REMARK                         _______ _______ _______ _____ _____    ______ ____
ROOT
ATOM      1  C   UNL     1      -4.894  -0.912   0.014  0.00  0.00    +0.076 C 
ATOM      2  C   UNL     1      -5.339  -0.658   1.456  0.00  0.00    +0.041 C 
ATOM      3  C   UNL     1      -6.802  -0.203   1.462  0.00  0.00    +0.111 C 
ATOM      4  N   UNL     1      -7.611  -1.200   0.748  0.00  0.00    -0.286 N 
ATOM      5  C   UNL     1      -7.216  -1.585  -0.614  0.00  0.00    +0.111 C 
ATOM      6  C   UNL     1      -5.749  -2.025  -0.597  0.00  0.00    +0.041 C 
ATOM      7  C   UNL     1      -8.693  -1.752   1.331  0.00  0.00    +0.303 C 
ATOM      8  O   UNL     1      -8.955  -1.497   2.491  0.00  0.00    -0.253 OA
ATOM      9  N   UNL     1      -9.485  -2.586   0.629  0.00  0.00    -0.292 N 
ATOM     10  H   UNL     1      -9.236  -2.850  -0.270  0.00  0.00    +0.151 HD
ENDROOT
BRANCH   9  11
ATOM     11  C   UNL     1     -10.724  -3.094   1.224  0.00  0.00    +0.106 C 
ATOM     12  C   UNL     1     -11.086  -4.426   0.571  0.00  0.00    +0.027 C 
ATOM     13  C   UNL     1     -12.491  -4.823   1.040  0.00  0.00    +0.008 C 
ATOM     14  C   UNL     1     -13.494  -3.854   0.419  0.00  0.00    +0.054 C 
ATOM     15  C   UNL     1     -13.077  -2.426   0.663  0.00  0.00    +0.024 A 
ATOM     16  C   UNL     1     -11.823  -2.084   1.020  0.00  0.00    -0.008 A 
ATOM     17  C   UNL     1     -11.501  -0.727   1.218  0.00  0.00    +0.012 A 
ATOM     18  C   UNL     1     -12.455   0.229   1.052  0.00  0.00    +0.070 A 
ATOM     19  C   UNL     1     -13.754  -0.162   0.686  0.00  0.00    +0.249 A 
ATOM     20  O   UNL     1     -14.627   0.678   0.535  0.00  0.00    -0.268 OA
ATOM     21  N   UNL     1     -14.031  -1.462   0.504  0.00  0.00    -0.326 N 
ATOM     22  H   UNL     1     -14.931  -1.723   0.253  0.00  0.00    +0.169 HD
ENDBRANCH   9  11
BRANCH   1  25
ATOM     23  C   UNL     1      -2.517  -0.378   0.002  0.00  0.00    +0.248 C 
ATOM     24  O   UNL     1      -2.811   0.801   0.011  0.00  0.00    -0.270 OA
ATOM     25  N   UNL     1      -3.486  -1.315   0.002  0.00  0.00    -0.308 N 
ATOM     26  H   UNL     1      -3.251  -2.256  -0.005  0.00  0.00    +0.149 HD
BRANCH  23  29
ATOM     27  C   UNL     1      -0.035   1.540  -0.004  0.00  0.00    +0.087 C 
ATOM     28  C   UNL     1      -0.008   0.033  -0.013  0.00  0.00    +0.114 A 
ATOM     29  C   UNL     1      -1.100  -0.784  -0.011  0.00  0.00    +0.077 A 
ATOM     30  C   UNL     1      -0.568  -2.155  -0.022  0.00  0.00    +0.054 A 
ATOM     31  C   UNL     1       0.768  -2.032  -0.030  0.00  0.00    +0.196 A 
ATOM     32  O   UNL     1       1.090  -0.729  -0.030  0.00  0.00    -0.467 OA
ENDBRANCH  23  29
ENDBRANCH   1  25
TORSDOF 3
