REMARK  Name = ZINC39596887
REMARK  8 active torsions:
REMARK  status: ('A' for Active; 'I' for Inactive)
REMARK    1  A    between atoms: C_1  and  C_2
REMARK    2  A    between atoms: C_2  and  C_3
REMARK    3  A    between atoms: C_3  and  C_5
REMARK    4  A    between atoms: C_3  and  C_11
REMARK    5  A    between atoms: C_15  and  C_24
REMARK    6  A    between atoms: N_26  and  C_27
REMARK    7  A    between atoms: C_27  and  C_29
REMARK    8  A    between atoms: C_27  and  C_30
REMARK                            x       y       z     vdW  Elec       q    Type
REMARK                         _______ _______ _______ _____ _____    ______ ____
ROOT
ATOM      1  C   UNL     1      -2.057  -0.056  -1.030  0.00  0.00    +0.223 C 
ATOM      2  O   UNL     1      -2.682  -0.871  -1.675  0.00  0.00    -0.275 OA
ATOM      3  N   UNL     1      -2.104   1.249  -1.364  0.00  0.00    -0.300 N 
ATOM      4  C   UNL     1      -1.487   2.392  -0.652  0.00  0.00    +0.121 C 
ATOM      5  C   UNL     1      -0.963   3.315  -1.775  0.00  0.00    +0.100 C 
ATOM      6  C   UNL     1      -1.820   2.965  -3.003  0.00  0.00    -0.004 C 
ATOM      7  C   UNL     1      -2.781   1.863  -2.532  0.00  0.00    +0.115 C 
ATOM      8  C   UNL     1      -0.937   2.439  -4.131  0.00  0.00    -0.010 C 
ATOM      9  C   UNL     1      -1.805   2.152  -5.360  0.00  0.00    -0.082 C 
ATOM     10  N   UNL     1      -2.487   3.383  -5.778  0.00  0.00    +0.379 N 
ATOM     11  C   UNL     1      -3.404   3.830  -4.723  0.00  0.00    -0.082 C 
ATOM     12  C   UNL     1      -2.604   4.188  -3.467  0.00  0.00    -0.010 C 
ATOM     13  H   UNL     1      -1.802   4.102  -5.954  0.00  0.00    -0.086 HD
ATOM     14  H   UNL     1      -3.010   3.206  -6.623  0.00  0.00    -0.086 HD
ENDROOT
BRANCH   5  15
ATOM     15  C   UNL     1      -1.150   4.761  -1.397  0.00  0.00    +0.219 C 
ATOM     16  O   UNL     1      -2.047   5.080  -0.644  0.00  0.00    -0.275 OA
ATOM     17  N   UNL     1      -0.322   5.701  -1.894  0.00  0.00    -0.308 N 
ATOM     18  H   UNL     1       0.395   5.446  -2.495  0.00  0.00    +0.149 HD
BRANCH  17  19
ATOM     19  C   UNL     1      -0.504   7.107  -1.526  0.00  0.00    +0.100 C 
ATOM     20  C   UNL     1       0.212   7.385  -0.203  0.00  0.00    +0.033 C 
BRANCH  19  21
ATOM     21  C   UNL     1       0.073   7.987  -2.604  0.00  0.00    -0.027 A 
ATOM     22  C   UNL     1       1.260   7.638  -3.220  0.00  0.00    +0.005 A 
ATOM     23  C   UNL     1       1.790   8.446  -4.209  0.00  0.00    +0.000 A 
ATOM     24  C   UNL     1       1.132   9.602  -4.583  0.00  0.00    +0.000 A 
ATOM     25  C   UNL     1      -0.056   9.951  -3.968  0.00  0.00    +0.000 A 
ATOM     26  C   UNL     1      -0.588   9.141  -2.982  0.00  0.00    +0.005 A 
ENDBRANCH  19  21
ENDBRANCH  17  19
ENDBRANCH   5  15
BRANCH   1  27
ATOM     27  C   UNL     1      -1.227  -0.502   0.146  0.00  0.00    +0.105 C 
BRANCH  27  28
ATOM     28  C   UNL     1      -2.088  -0.543   1.382  0.00  0.00    -0.036 A 
ATOM     29  C   UNL     1      -3.195  -1.371   1.427  0.00  0.00    +0.004 A 
ATOM     30  C   UNL     1      -3.985  -1.408   2.560  0.00  0.00    +0.000 A 
ATOM     31  C   UNL     1      -3.668  -0.618   3.650  0.00  0.00    +0.000 A 
ATOM     32  C   UNL     1      -2.562   0.209   3.606  0.00  0.00    +0.000 A 
ATOM     33  C   UNL     1      -1.769   0.243   2.474  0.00  0.00    +0.004 A 
ENDBRANCH  27  28
BRANCH  27  35
ATOM     34  C   UNL     1       0.323  -1.828  -1.296  0.00  0.00    +0.005 C 
ATOM     35  C   UNL     1      -0.663  -1.898  -0.128  0.00  0.00    +0.014 C 
ENDBRANCH  27  35
ENDBRANCH   1  27
TORSDOF 6
