REMARK  Name = ZINC02759822
REMARK  9 active torsions:
REMARK  status: ('A' for Active; 'I' for Inactive)
REMARK    1  A    between atoms: C_1  and  C_2
REMARK    2  A    between atoms: C_2  and  C_3
REMARK    3  A    between atoms: C_3  and  C_5
REMARK    4  A    between atoms: C_3  and  N_6
REMARK    5  A    between atoms: C_7  and  C_9
REMARK    6  A    between atoms: C_12  and  C_14
REMARK    7  A    between atoms: C_14  and  N_15
REMARK    8  A    between atoms: C_16  and  C_21
REMARK    9  A    between atoms: C_18  and  C_20
REMARK                            x       y       z     vdW  Elec       q    Type
REMARK                         _______ _______ _______ _____ _____    ______ ____
ROOT
ATOM      1  C   UNL     1      -3.814   6.259   3.321  0.00  0.00    +0.190 A 
ATOM      2  C   UNL     1      -4.401   6.030   2.110  0.00  0.00    +0.055 A 
ATOM      3  C   UNL     1      -4.379   4.641   1.907  0.00  0.00    +0.047 A 
ATOM      4  C   UNL     1      -3.795   4.090   2.993  0.00  0.00    +0.127 A 
ATOM      5  O   UNL     1      -3.453   5.068   3.841  0.00  0.00    -0.453 OA
ENDROOT
BRANCH   1   7
ATOM      6  N   UNL     1      -3.016   7.656   5.153  0.00  0.00    -0.306 N 
ATOM      7  C   UNL     1      -3.612   7.569   3.947  0.00  0.00    +0.280 C 
ATOM      8  O   UNL     1      -3.983   8.579   3.378  0.00  0.00    -0.267 OA
ATOM      9  H   UNL     1      -2.720   6.851   5.606  0.00  0.00    +0.149 HD
BRANCH   6  10
ATOM     10  C   UNL     1      -2.814   8.965   5.778  0.00  0.00    +0.070 C 
ATOM     11  C   UNL     1      -1.517   9.585   5.256  0.00  0.00    +0.028 C 
BRANCH  10  13
ATOM     12  C   UNL     1      -4.064   8.293   7.835  0.00  0.00    +0.005 C 
ATOM     13  C   UNL     1      -2.724   8.797   7.296  0.00  0.00    +0.018 C 
ENDBRANCH  10  13
ENDBRANCH   6  10
ENDBRANCH   1   7
BRANCH   4  14
ATOM     14  C   UNL     1      -3.561   2.617   3.211  0.00  0.00    +0.217 C 
BRANCH  14  15
ATOM     15  N   UNL     1      -2.254   2.244   2.665  0.00  0.00    -0.261 N 
ATOM     16  C   UNL     1      -1.082   2.258   3.333  0.00  0.00    +0.037 A 
ATOM     17  C   UNL     1      -0.116   1.847   2.480  0.00  0.00    +0.047 A 
ATOM     18  C   UNL     1      -0.718   1.572   1.248  0.00  0.00    +0.060 A 
ATOM     19  N   UNL     1      -1.999   1.815   1.356  0.00  0.00    -0.176 NA
ATOM     20  C   UNL     1      -0.013   1.086   0.008  0.00  0.00    +0.067 C 
ATOM     21  C   UNL     1      -0.884   2.660   4.772  0.00  0.00    +0.065 C 
ENDBRANCH  14  15
ENDBRANCH   4  14
TORSDOF 5
