REMARK  Name = ZINC37053448
REMARK  7 active torsions:
REMARK  status: ('A' for Active; 'I' for Inactive)
REMARK    1  A    between atoms: C_1  and  C_2
REMARK    2  A    between atoms: C_2  and  C_3
REMARK    3  A    between atoms: C_6  and  N_22
REMARK    4  A    between atoms: C_8  and  S_9
REMARK    5  A    between atoms: S_9  and  N_12
REMARK    6  A    between atoms: C_14  and  C_21
REMARK    7  A    between atoms: C_17  and  C_20
REMARK                            x       y       z     vdW  Elec       q    Type
REMARK                         _______ _______ _______ _____ _____    ______ ____
ROOT
ATOM      1  C   UNL     1      -3.155  -1.860  -1.207  0.00  0.00    -0.021 A 
ATOM      2  C   UNL     1      -3.927  -2.287  -0.142  0.00  0.00    +0.007 A 
ATOM      3  C   UNL     1      -4.064  -1.489   0.977  0.00  0.00    +0.023 A 
ATOM      4  C   UNL     1      -3.425  -0.257   1.032  0.00  0.00    +0.026 A 
ATOM      5  C   UNL     1      -2.650   0.169  -0.039  0.00  0.00    +0.051 A 
ATOM      6  C   UNL     1      -2.513  -0.636  -1.153  0.00  0.00    +0.110 A 
ENDROOT
BRANCH   6   7
ATOM      7  S   UNL     1      -1.524  -0.101  -2.509  0.00  0.00    +0.061 S 
ATOM      8  O   UNL     1      -0.271  -0.758  -2.383  0.00  0.00    -0.153 OA
ATOM      9  O   UNL     1      -2.332  -0.218  -3.672  0.00  0.00    -0.153 OA
BRANCH   7  10
ATOM     10  N   UNL     1      -1.234   1.516  -2.296  0.00  0.00    -0.176 NA
ATOM     11  C   UNL     1      -2.210   2.518  -2.746  0.00  0.00    +0.112 C 
ATOM     12  C   UNL     1      -1.499   3.526  -3.653  0.00  0.00    +0.002 C 
ATOM     13  C   UNL     1      -0.294   4.111  -2.912  0.00  0.00    +0.009 C 
ATOM     14  C   UNL     1       0.691   2.990  -2.571  0.00  0.00    +0.002 C 
ATOM     15  C   UNL     1       0.002   1.975  -1.647  0.00  0.00    +0.112 C 
ATOM     16  C   UNL     1       1.910   3.580  -1.861  0.00  0.00    +0.009 C 
ATOM     17  C   UNL     1      -2.467   4.652  -4.023  0.00  0.00    +0.009 C 
ENDBRANCH   7  10
ENDBRANCH   6   7
BRANCH   4  18
ATOM     18  N   UNL     1      -3.562   0.552   2.162  0.00  0.00    -0.358 N 
ATOM     19  H   UNL     1      -4.104   0.254   2.909  0.00  0.00    +0.142 HD
ATOM     20  H   UNL     1      -3.115   1.413   2.200  0.00  0.00    +0.142 HD
ENDBRANCH   4  18
BRANCH   1  22
ATOM     21  C   UNL     1      -1.745  -3.587  -2.293  0.00  0.00    +0.009 C 
ATOM     22  C   UNL     1      -3.008  -2.733  -2.427  0.00  0.00    +0.034 C 
ENDBRANCH   1  22
TORSDOF 4
