REMARK  Name = ZINC39631930
REMARK  13 active torsions:
REMARK  status: ('A' for Active; 'I' for Inactive)
REMARK    1  A    between atoms: C_1  and  C_2
REMARK    2  A    between atoms: C_2  and  C_4
REMARK    3  A    between atoms: C_2  and  N_11
REMARK    4  A    between atoms: C_4  and  C_5
REMARK    5  A    between atoms: C_5  and  C_6
REMARK    6  A    between atoms: C_6  and  C_7
REMARK    7  A    between atoms: C_7  and  C_8
REMARK    8  A    between atoms: C_7  and  C_9
REMARK    9  A    between atoms: C_7  and  O_10
REMARK   10  A    between atoms: C_12  and  C_14
REMARK   11  A    between atoms: C_25  and  C_27
REMARK   12  A    between atoms: C_30  and  O_33
REMARK   13  A    between atoms: O_33  and  C_34
REMARK                            x       y       z     vdW  Elec       q    Type
REMARK                         _______ _______ _______ _____ _____    ______ ____
ROOT
ATOM      1  C   UNL     1       2.315  -1.018  -4.285  0.00  0.00    +0.100 C 
ATOM      2  C   UNL     1       2.152   0.154  -5.278  0.00  0.00    +0.121 C 
ATOM      3  N   UNL     1       3.300   1.047  -4.995  0.00  0.00    -0.296 N 
ATOM      4  C   UNL     1       4.432   0.123  -4.742  0.00  0.00    +0.115 C 
ATOM      5  C   UNL     1       3.813  -1.038  -3.938  0.00  0.00    -0.004 C 
ATOM      6  C   UNL     1       4.013  -0.808  -2.443  0.00  0.00    -0.010 C 
ATOM      7  C   UNL     1       5.506  -0.888  -2.115  0.00  0.00    -0.082 C 
ATOM      8  N   UNL     1       6.024  -2.206  -2.501  0.00  0.00    +0.379 N 
ATOM      9  C   UNL     1       5.913  -2.381  -3.954  0.00  0.00    -0.082 C 
ATOM     10  C   UNL     1       4.436  -2.364  -4.361  0.00  0.00    -0.010 C 
ATOM     11  C   UNL     1       3.313   2.394  -4.971  0.00  0.00    +0.248 C 
ATOM     12  O   UNL     1       2.272   3.014  -5.078  0.00  0.00    -0.270 OA
ATOM     13  H   UNL     1       6.993  -2.278  -2.228  0.00  0.00    -0.086 HD
ATOM     14  H   UNL     1       5.492  -2.925  -2.035  0.00  0.00    -0.086 HD
ENDROOT
BRANCH  11  15
ATOM     15  C   UNL     1       4.590   3.118  -4.816  0.00  0.00    +0.055 A 
ATOM     16  C   UNL     1       5.807   2.485  -5.111  0.00  0.00    +0.020 A 
ATOM     17  C   UNL     1       6.975   3.203  -4.950  0.00  0.00    +0.068 A 
ATOM     18  C   UNL     1       6.908   4.520  -4.505  0.00  0.00    +0.220 A 
ATOM     19  N   UNL     1       5.743   5.089  -4.235  0.00  0.00    -0.220 NA
ATOM     20  C   UNL     1       4.605   4.443  -4.380  0.00  0.00    +0.127 A 
BRANCH  18  21
ATOM     21  O   UNL     1       8.051   5.229  -4.345  0.00  0.00    -0.438 OA
BRANCH  21  22
ATOM     22  C   UNL     1       7.946   6.536  -3.985  0.00  0.00    +0.130 A 
ATOM     23  C   UNL     1       7.869   6.883  -2.644  0.00  0.00    +0.046 A 
ATOM     24  C   UNL     1       7.763   8.211  -2.281  0.00  0.00    +0.004 A 
ATOM     25  C   UNL     1       7.732   9.195  -3.253  0.00  0.00    +0.000 A 
ATOM     26  C   UNL     1       7.809   8.851  -4.590  0.00  0.00    +0.004 A 
ATOM     27  C   UNL     1       7.921   7.524  -4.958  0.00  0.00    +0.046 A 
ENDBRANCH  21  22
ENDBRANCH  18  21
ENDBRANCH  11  15
BRANCH   1  29
ATOM     28  N   UNL     1       1.092  -1.814  -2.287  0.00  0.00    -0.312 N 
ATOM     29  C   UNL     1       1.493  -0.774  -3.046  0.00  0.00    +0.218 C 
ATOM     30  O   UNL     1       1.192   0.358  -2.731  0.00  0.00    -0.275 OA
ATOM     31  H   UNL     1       1.333  -2.719  -2.539  0.00  0.00    +0.149 HD
BRANCH  28  33
ATOM     32  C   UNL     1      -1.185  -1.474  -1.463  0.00  0.00    +0.028 C 
ATOM     33  C   UNL     1       0.293  -1.576  -1.082  0.00  0.00    +0.070 C 
BRANCH  33  34
ATOM     34  C   UNL     1       0.488  -2.736  -0.104  0.00  0.00    +0.022 C 
BRANCH  34  35
ATOM     35  C   UNL     1       1.942  -2.762   0.373  0.00  0.00    +0.005 C 
BRANCH  35  36
ATOM     36  C   UNL     1       2.137  -3.922   1.351  0.00  0.00    +0.034 C 
BRANCH  36  37
ATOM     37  C   UNL     1       3.591  -3.948   1.828  0.00  0.00    +0.061 C 
ATOM     38  C   UNL     1       3.817  -5.179   2.708  0.00  0.00    +0.041 C 
ATOM     39  C   UNL     1       4.524  -4.007   0.617  0.00  0.00    +0.041 C 
BRANCH  37  40
ATOM     40  O   UNL     1       3.865  -2.766   2.583  0.00  0.00    -0.389 OA
ATOM     41  H   UNL     1       3.309  -2.663   3.368  0.00  0.00    +0.210 HD
ENDBRANCH  37  40
ENDBRANCH  36  37
ENDBRANCH  35  36
ENDBRANCH  34  35
ENDBRANCH  33  34
ENDBRANCH  28  33
ENDBRANCH   1  29
TORSDOF 10
