REMARK  Name = ZINC09716549
REMARK  8 active torsions:
REMARK  status: ('A' for Active; 'I' for Inactive)
REMARK    1  A    between atoms: C_5  and  N_7
REMARK    2  A    between atoms: N_10  and  C_13
REMARK    3  A    between atoms: C_13  and  C_14
REMARK    4  A    between atoms: C_18  and  O_21
REMARK    5  A    between atoms: O_21  and  C_22
REMARK    6  A    between atoms: C_22  and  C_23
REMARK    7  A    between atoms: N_25  and  C_26
REMARK    8  A    between atoms: C_26  and  C_27
REMARK                            x       y       z     vdW  Elec       q    Type
REMARK                         _______ _______ _______ _____ _____    ______ ____
ROOT
ATOM      1  C   UNL     1       3.018  -6.662  -1.224  0.00  0.00    +0.092 A 
ATOM      2  C   UNL     1       3.934  -6.729  -2.211  0.00  0.00    +0.094 A 
ATOM      3  C   UNL     1       3.701  -7.596  -3.307  0.00  0.00    +0.226 A 
ATOM      4  O   UNL     1       4.508  -7.684  -4.220  0.00  0.00    -0.284 OA
ATOM      5  C   UNL     1       2.503  -8.362  -3.315  0.00  0.00    +0.202 A 
ATOM      6  C   UNL     1       1.640  -8.233  -2.284  0.00  0.00    +0.244 A 
ATOM      7  O   UNL     1       1.905  -7.403  -1.265  0.00  0.00    -0.466 OA
ENDROOT
BRANCH   1   8
ATOM      8  C   UNL     1       3.255  -5.744  -0.052  0.00  0.00    -0.003 C 
BRANCH   8  12
ATOM      9  N   UNL     1       1.236  -2.079  -0.021  0.00  0.00    -0.331 N 
ATOM     10  C   UNL     1       1.254  -2.842   1.236  0.00  0.00    +0.086 C 
ATOM     11  C   UNL     1       2.390  -3.869   1.165  0.00  0.00    -0.059 C 
ATOM     12  N   UNL     1       2.231  -4.691  -0.041  0.00  0.00    +0.386 N 
ATOM     13  C   UNL     1       2.378  -3.855  -1.239  0.00  0.00    -0.059 C 
ATOM     14  C   UNL     1       1.236  -2.828  -1.287  0.00  0.00    +0.086 C 
ATOM     15  H   UNL     1       1.315  -5.115  -0.039  0.00  0.00    -0.081 HD
BRANCH   9  20
ATOM     16  C   UNL     1      -0.017   1.377   0.010  0.00  0.00    +0.002 A 
ATOM     17  C   UNL     1       1.170   2.087   0.002  0.00  0.00    +0.003 A 
ATOM     18  C   UNL     1       2.380   1.418  -0.013  0.00  0.00    +0.040 A 
ATOM     19  C   UNL     1       2.406   0.035  -0.021  0.00  0.00    +0.144 A 
ATOM     20  C   UNL     1       1.214  -0.681  -0.013  0.00  0.00    +0.065 A 
ATOM     21  C   UNL     1       0.002  -0.004   0.002  0.00  0.00    +0.026 A 
ATOM     22  F   UNL     1       3.588  -0.619  -0.036  0.00  0.00    -0.204 F 
ENDBRANCH   9  20
ENDBRANCH   8  12
ENDBRANCH   1   8
BRANCH   5  23
ATOM     23  O   UNL     1       2.230  -9.210  -4.344  0.00  0.00    -0.476 OA
BRANCH  23  24
ATOM     24  C   UNL     1       1.005  -9.942  -4.274  0.00  0.00    +0.324 C 
BRANCH  24  25
ATOM     25  C   UNL     1       0.875 -10.822  -5.490  0.00  0.00    +0.251 C 
ATOM     26  O   UNL     1       1.746 -10.822  -6.334  0.00  0.00    -0.272 OA
ATOM     27  N   UNL     1      -0.209 -11.608  -5.640  0.00  0.00    -0.310 N 
ATOM     28  H   UNL     1      -0.906 -11.608  -4.965  0.00  0.00    +0.149 HD
BRANCH  27  29
ATOM     29  C   UNL     1      -0.336 -12.464  -6.823  0.00  0.00    +0.135 C 
BRANCH  29  30
ATOM     30  C   UNL     1      -1.647 -13.247  -6.748  0.00  0.00    +0.135 C 
ATOM     31  C   UNL     1      -1.784 -14.185  -7.973  0.00  0.00    +0.035 C 
ATOM     32  C   UNL     1      -2.738 -15.273  -7.407  0.00  0.00    +0.031 C 
ATOM     33  C   UNL     1      -2.307 -15.348  -5.926  0.00  0.00    +0.160 C 
ATOM     34  O   UNL     1      -1.644 -14.117  -5.605  0.00  0.00    -0.375 OA
ENDBRANCH  29  30
ENDBRANCH  27  29
ENDBRANCH  24  25
ENDBRANCH  23  24
ENDBRANCH   5  23
TORSDOF 8
