REMARK  Name = ZINC35455308
REMARK  9 active torsions:
REMARK  status: ('A' for Active; 'I' for Inactive)
REMARK    1  A    between atoms: C_1  and  C_2
REMARK    2  A    between atoms: C_2  and  C_4
REMARK    3  A    between atoms: C_10  and  O_34
REMARK    4  A    between atoms: C_16  and  O_33
REMARK    5  A    between atoms: C_21  and  O_31
REMARK    6  A    between atoms: C_22  and  O_29
REMARK    7  A    between atoms: C_25  and  O_28
REMARK    8  A    between atoms: O_29  and  C_30
REMARK    9  A    between atoms: O_31  and  C_32
REMARK                            x       y       z     vdW  Elec       q    Type
REMARK                         _______ _______ _______ _____ _____    ______ ____
ROOT
ATOM      1  C   UNL     1      -1.293  -0.775   0.010  0.00  0.00    +0.203 C 
ATOM      2  C   UNL     1      -2.092  -0.490   1.307  0.00  0.00    +0.091 C 
ATOM      3  C   UNL     1      -3.509  -0.476   0.801  0.00  0.00    +0.041 A 
ATOM      4  C   UNL     1      -3.449  -0.374  -0.597  0.00  0.00    +0.132 A 
ATOM      5  C   UNL     1      -4.620  -0.348  -1.361  0.00  0.00    +0.092 A 
ATOM      6  C   UNL     1      -5.831  -0.419  -0.688  0.00  0.00    +0.134 A 
ATOM      7  C   UNL     1      -5.886  -0.511   0.710  0.00  0.00    +0.104 A 
ATOM      8  C   UNL     1      -4.704  -0.551   1.484  0.00  0.00    +0.142 A 
ATOM      9  O   UNL     1      -4.748  -0.668   2.824  0.00  0.00    -0.478 OA
ATOM     10  C   UNL     1      -5.932  -0.294   3.532  0.00  0.00    +0.285 C 
ATOM     11  C   UNL     1      -5.830  -0.865   4.958  0.00  0.00    +0.350 C 
ATOM     12  O   UNL     1      -5.536  -2.259   4.856  0.00  0.00    -0.459 OA
ATOM     13  C   UNL     1      -6.277  -3.013   4.002  0.00  0.00    +0.134 A 
ATOM     14  C   UNL     1      -6.227  -4.398   4.126  0.00  0.00    +0.095 A 
ATOM     15  C   UNL     1      -6.961  -5.202   3.272  0.00  0.00    +0.165 A 
ATOM     16  C   UNL     1      -7.754  -4.622   2.286  0.00  0.00    +0.162 A 
ATOM     17  C   UNL     1      -7.805  -3.244   2.166  0.00  0.00    +0.060 A 
ATOM     18  C   UNL     1      -7.070  -2.439   3.022  0.00  0.00    +0.041 A 
ATOM     19  C   UNL     1      -7.155  -0.933   2.862  0.00  0.00    +0.200 C 
ATOM     20  C   UNL     1      -7.174  -0.564   1.409  0.00  0.00    +0.210 C 
ATOM     21  O   UNL     1      -8.214  -0.314   0.836  0.00  0.00    -0.288 OA
ATOM     22  O   UNL     1      -2.172  -0.305  -1.030  0.00  0.00    -0.484 OA
ENDROOT
BRANCH   1  24
ATOM     23  C   UNL     1      -0.018   1.503   0.010  0.00  0.00    +0.042 C 
ATOM     24  C   UNL     1       0.002  -0.004   0.002  0.00  0.00    -0.040 C 
ATOM     25  C   UNL     1       1.145  -0.644  -0.012  0.00  0.00    +0.011 C 
ENDBRANCH   1  24
BRANCH  19  26
ATOM     26  O   UNL     1      -8.346  -0.456   3.493  0.00  0.00    -0.373 OA
ATOM     27  H   UNL     1      -9.161  -0.819   3.120  0.00  0.00    +0.211 HD
ENDBRANCH  19  26
BRANCH  16  28
ATOM     28  O   UNL     1      -8.476  -5.407   1.442  0.00  0.00    -0.491 OA
ATOM     29  C   UNL     1      -9.267  -4.743   0.455  0.00  0.00    +0.277 C 
ENDBRANCH  16  28
BRANCH  15  30
ATOM     30  O   UNL     1      -6.909  -6.555   3.397  0.00  0.00    -0.491 OA
ATOM     31  C   UNL     1      -6.074  -7.079   4.431  0.00  0.00    +0.277 C 
ENDBRANCH  15  30
BRANCH  11  32
ATOM     32  O   UNL     1      -4.785  -0.201   5.671  0.00  0.00    -0.355 OA
ATOM     33  H   UNL     1      -4.668  -0.514   6.579  0.00  0.00    +0.214 HD
ENDBRANCH  11  32
BRANCH   6  34
ATOM     34  O   UNL     1      -6.987  -0.398  -1.397  0.00  0.00    -0.506 OA
ATOM     35  H   UNL     1      -7.303  -1.274  -1.660  0.00  0.00    +0.292 HD
ENDBRANCH   6  34
TORSDOF 6
