REMARK  Name = ZINC59155303
REMARK  3 active torsions:
REMARK  status: ('A' for Active; 'I' for Inactive)
REMARK    1  A    between atoms: C_3  and  C_7
REMARK    2  A    between atoms: N_8  and  N_9
REMARK    3  A    between atoms: C_10  and  C_12
REMARK                            x       y       z     vdW  Elec       q    Type
REMARK                         _______ _______ _______ _____ _____    ______ ____
ROOT
ATOM      1  N   UNL     1       5.627  -0.475  -0.055  0.00  0.00    -0.206 N 
ATOM      2  C   UNL     1       6.292  -1.648  -0.068  0.00  0.00    +0.238 C 
ATOM      3  O   UNL     1       5.677  -2.694  -0.067  0.00  0.00    -0.273 OA
ATOM      4  H   UNL     1       6.118   0.361  -0.056  0.00  0.00    +0.177 HD
ENDROOT
BRANCH   2   5
ATOM      5  C   UNL     1       7.798  -1.659  -0.083  0.00  0.00    +0.049 C 
ATOM      6  C   UNL     1       8.302  -0.935  -1.333  0.00  0.00    +0.019 C 
ATOM      7  C   UNL     1       9.832  -0.947  -1.348  0.00  0.00    -0.009 C 
ATOM      8  C   UNL     1      10.331  -2.393  -1.361  0.00  0.00    +0.007 C 
ATOM      9  C   UNL     1       9.827  -3.117  -0.110  0.00  0.00    -0.009 C 
ATOM     10  C   UNL     1       8.297  -3.106  -0.095  0.00  0.00    +0.019 C 
ATOM     11  C   UNL     1      10.355  -2.406   1.138  0.00  0.00    +0.007 C 
ATOM     12  C   UNL     1       9.856  -0.960   1.150  0.00  0.00    -0.009 C 
ATOM     13  C   UNL     1      10.359  -0.236  -0.100  0.00  0.00    +0.007 C 
ATOM     14  C   UNL     1       8.326  -0.948   1.165  0.00  0.00    +0.019 C 
ENDBRANCH   2   5
BRANCH   1  16
ATOM     15  C   UNL     1       3.584   0.666  -0.029  0.00  0.00    +0.156 C 
ATOM     16  N   UNL     1       4.226  -0.465  -0.041  0.00  0.00    -0.186 NA
BRANCH  15  19
ATOM     17  C   UNL     1      -0.016   1.347   0.009  0.00  0.00    +0.019 A 
ATOM     18  C   UNL     1       1.312   1.795  -0.001  0.00  0.00    +0.028 A 
ATOM     19  C   UNL     1       2.117   0.677  -0.015  0.00  0.00    +0.059 A 
ATOM     20  N   UNL     1       1.297  -0.425  -0.013  0.00  0.00    -0.360 N 
ATOM     21  H   UNL     1       1.592  -1.349  -0.020  0.00  0.00    +0.165 HD
ATOM     22  C   UNL     1       0.002  -0.004   0.002  0.00  0.00    +0.083 A 
ENDBRANCH  15  19
ENDBRANCH   1  16
TORSDOF 3
