REMARK  Name = ZINC44323335
REMARK  9 active torsions:
REMARK  status: ('A' for Active; 'I' for Inactive)
REMARK    1  A    between atoms: C_1  and  C_2
REMARK    2  A    between atoms: C_4  and  C_10
REMARK    3  A    between atoms: C_5  and  O_9
REMARK    4  A    between atoms: C_10  and  CA_11
REMARK    5  A    between atoms: CA_11  and  C_13
REMARK    6  A    between atoms: CA_11  and  N_16
REMARK    7  A    between atoms: C_17  and  O_19
REMARK    8  A    between atoms: O_19  and  C_20
REMARK    9  A    between atoms: C_20  and  C_21
REMARK                            x       y       z     vdW  Elec       q    Type
REMARK                         _______ _______ _______ _____ _____    ______ ____
ROOT
ATOM      1  N   UNL     1       1.978  -4.186  -2.009  0.00  0.00    -0.267 N 
ATOM      2  C   UNL     1       3.308  -4.364  -1.885  0.00  0.00    +0.401 C 
ATOM      3  O   UNL     1       4.075  -3.673  -2.525  0.00  0.00    -0.226 OA
ATOM      4  H   UNL     1       1.365  -4.737  -1.497  0.00  0.00    +0.153 HD
ENDROOT
BRANCH   1   5
ATOM      5  CA  UNL     1       1.457  -3.159  -2.915  0.00  0.00    +0.193 C 
BRANCH   5   6
ATOM      6  C   UNL     1       1.328  -3.733  -4.302  0.00  0.00    +0.376 C 
ATOM      7  O   UNL     1       1.087  -2.999  -5.245  0.00  0.00    -0.244 OA
ATOM      8  OXT UNL     1       1.464  -4.931  -4.482  0.00  0.00    -0.244 OA
ENDBRANCH   5   6
BRANCH   5   9
ATOM      9  C   UNL     1       0.084  -2.695  -2.425  0.00  0.00    +0.073 C 
BRANCH   9  13
ATOM     10  C   UNL     1      -0.111  -2.826   2.573  0.00  0.00    +0.044 C 
ATOM     11  C   UNL     1       0.141  -2.064   1.298  0.00  0.00    -0.049 A 
ATOM     12  C   UNL     1       0.003  -2.698   0.076  0.00  0.00    +0.010 A 
ATOM     13  C   UNL     1       0.233  -2.002  -1.095  0.00  0.00    -0.002 A 
ATOM     14  C   UNL     1       0.602  -0.666  -1.045  0.00  0.00    +0.138 A 
ATOM     15  C   UNL     1       0.739  -0.031   0.181  0.00  0.00    +0.083 A 
ATOM     16  C   UNL     1       0.503  -0.731   1.350  0.00  0.00    +0.027 A 
ATOM     17 CL   UNL     1       1.201   1.641   0.248  0.00  0.00    -0.080 Cl
BRANCH  14  18
ATOM     18  O   UNL     1       0.830   0.020  -2.196  0.00  0.00    -0.505 OA
ATOM     19  H   UNL     1       0.064   0.515  -2.517  0.00  0.00    +0.292 HD
ENDBRANCH  14  18
ENDBRANCH   9  13
ENDBRANCH   5   9
ENDBRANCH   1   5
BRANCH   2  20
ATOM     20  O   UNL     1       3.786  -5.308  -1.052  0.00  0.00    -0.449 OA
BRANCH  20  21
ATOM     21  C   UNL     1       5.206  -5.442  -0.970  0.00  0.00    +0.246 C 
BRANCH  21  22
ATOM     22  C   UNL     1       5.558  -6.555   0.019  0.00  0.00    +0.088 C 
ATOM     23  C   UNL     1       5.143  -7.895  -0.539  0.00  0.00    -0.029 A 
ATOM     24  C   UNL     1       3.915  -8.404  -0.906  0.00  0.00    +0.005 A 
ATOM     25  C   UNL     1       3.820  -9.694  -1.398  0.00  0.00    +0.000 A 
ATOM     26  C   UNL     1       4.955 -10.475  -1.522  0.00  0.00    +0.001 A 
ATOM     27  C   UNL     1       6.187  -9.973  -1.157  0.00  0.00    +0.009 A 
ATOM     28  C   UNL     1       6.291  -8.673  -0.660  0.00  0.00    -0.014 A 
ATOM     29  C   UNL     1       7.466  -7.893  -0.200  0.00  0.00    -0.014 A 
ATOM     30  C   UNL     1       7.053  -6.628   0.209  0.00  0.00    -0.029 A 
ATOM     31  C   UNL     1       7.971  -5.715   0.682  0.00  0.00    +0.005 A 
ATOM     32  C   UNL     1       9.311  -6.053   0.752  0.00  0.00    +0.000 A 
ATOM     33  C   UNL     1       9.732  -7.307   0.347  0.00  0.00    +0.001 A 
ATOM     34  C   UNL     1       8.820  -8.227  -0.126  0.00  0.00    +0.009 A 
ENDBRANCH  21  22
ENDBRANCH  20  21
ENDBRANCH   2  20
TORSDOF 8
