REMARK  Name = ZINC36612918
REMARK  11 active torsions:
REMARK  status: ('A' for Active; 'I' for Inactive)
REMARK    1  A    between atoms: C_1  and  C_2
REMARK    2  A    between atoms: C_2  and  O_3
REMARK    3  A    between atoms: O_3  and  C_4
REMARK    4  A    between atoms: C_6  and  C_17
REMARK    5  A    between atoms: C_9  and  O_10
REMARK    6  A    between atoms: O_10  and  C_11
REMARK    7  A    between atoms: C_11  and  C_12
REMARK    8  A    between atoms: C_17  and  N_18
REMARK    9  A    between atoms: N_18  and  C_19
REMARK   10  A    between atoms: C_19  and  C_20
REMARK   11  A    between atoms: C_19  and  C_21
REMARK                            x       y       z     vdW  Elec       q    Type
REMARK                         _______ _______ _______ _____ _____    ______ ____
ROOT
ATOM      1  C   UNL     1       0.777  -1.811  -1.336  0.00  0.00    +0.163 A 
ATOM      2  C   UNL     1       0.243  -2.669  -0.388  0.00  0.00    +0.052 A 
ATOM      3  C   UNL     1       0.351  -4.037  -0.554  0.00  0.00    -0.046 A 
ATOM      4  C   UNL     1       0.991  -4.553  -1.666  0.00  0.00    +0.037 A 
ATOM      5  C   UNL     1       1.526  -3.702  -2.617  0.00  0.00    +0.077 A 
ATOM      6  C   UNL     1       1.416  -2.329  -2.458  0.00  0.00    +0.178 A 
ATOM      7 BR   UNL     1       2.401  -4.411  -4.136  0.00  0.00    -0.045 Br
ATOM      8 BR   UNL     1       1.136  -6.426  -1.887  0.00  0.00    -0.049 Br
ENDROOT
BRANCH   1   9
ATOM      9  O   UNL     1       0.671  -0.465  -1.174  0.00  0.00    -0.489 OA
BRANCH   9  11
ATOM     10  C   UNL     1      -0.019   1.526   0.010  0.00  0.00    +0.048 C 
ATOM     11  C   UNL     1       0.002  -0.004   0.002  0.00  0.00    +0.226 C 
ENDBRANCH   9  11
ENDBRANCH   1   9
BRANCH   6  12
ATOM     12  O   UNL     1       1.936  -1.491  -3.394  0.00  0.00    -0.478 OA
BRANCH  12  13
ATOM     13  C   UNL     1       3.292  -1.079  -3.215  0.00  0.00    +0.324 C 
BRANCH  13  14
ATOM     14  C   UNL     1       3.692  -0.160  -4.340  0.00  0.00    +0.248 C 
ATOM     15  O   UNL     1       2.893   0.115  -5.210  0.00  0.00    -0.272 OA
ATOM     16  N   UNL     1       4.936   0.355  -4.380  0.00  0.00    -0.327 N 
ATOM     17  H   UNL     1       5.575   0.135  -3.684  0.00  0.00    +0.145 HD
ATOM     18  H   UNL     1       5.193   0.947  -5.104  0.00  0.00    +0.145 HD
ENDBRANCH  13  14
ENDBRANCH  12  13
ENDBRANCH   6  12
BRANCH   3  19
ATOM     19  C   UNL     1      -0.230  -4.968   0.479  0.00  0.00    -0.045 C 
BRANCH  19  20
ATOM     20  N   UNL     1      -1.469  -5.563  -0.040  0.00  0.00    +0.383 N 
ATOM     21  H   UNL     1      -2.133  -4.832  -0.245  0.00  0.00    -0.085 HD
ATOM     22  H   UNL     1      -1.266  -6.080  -0.882  0.00  0.00    -0.085 HD
BRANCH  20  23
ATOM     23  C   UNL     1      -2.035  -6.471   0.967  0.00  0.00    -0.078 C 
ATOM     24  C   UNL     1      -2.457  -5.666   2.199  0.00  0.00    -0.014 C 
ATOM     25  C   UNL     1      -3.255  -7.184   0.382  0.00  0.00    -0.014 C 
ENDBRANCH  20  23
ENDBRANCH  19  20
ENDBRANCH   3  19
TORSDOF 8
