REMARK  Name = ZINC52878704
REMARK  6 active torsions:
REMARK  status: ('A' for Active; 'I' for Inactive)
REMARK    1  A    between atoms: C_1  and  C_2
REMARK    2  A    between atoms: C_2  and  C_3
REMARK    3  A    between atoms: C_2  and  C_9
REMARK    4  A    between atoms: C_2  and  N_12
REMARK    5  A    between atoms: C_13  and  C_15
REMARK    6  A    between atoms: N_19  and  C_20
REMARK                            x       y       z     vdW  Elec       q    Type
REMARK                         _______ _______ _______ _____ _____    ______ ____
ROOT
ATOM      1  C   UNL     1       1.609   1.075  -0.915  0.00  0.00    +0.049 C 
ATOM      2  C   UNL     1       1.152  -0.369  -0.703  0.00  0.00    +0.159 C 
ENDROOT
BRANCH   2   3
ATOM      3  C   UNL     1       1.797  -0.922   0.541  0.00  0.00    -0.014 A 
ATOM      4  C   UNL     1       1.969  -0.114   1.649  0.00  0.00    +0.006 A 
ATOM      5  C   UNL     1       2.561  -0.621   2.791  0.00  0.00    +0.000 A 
ATOM      6  C   UNL     1       2.982  -1.938   2.824  0.00  0.00    +0.000 A 
ATOM      7  C   UNL     1       2.809  -2.747   1.716  0.00  0.00    +0.000 A 
ATOM      8  C   UNL     1       2.213  -2.240   0.577  0.00  0.00    +0.006 A 
ENDBRANCH   2   3
BRANCH   2   9
ATOM      9  N   UNL     1       1.543  -1.180  -1.858  0.00  0.00    -0.291 N 
ATOM     10  C   UNL     1       1.054  -0.893  -3.080  0.00  0.00    +0.262 C 
ATOM     11  O   UNL     1       0.362   0.096  -3.242  0.00  0.00    -0.269 OA
ATOM     12  H   UNL     1       2.154  -1.925  -1.743  0.00  0.00    +0.150 HD
BRANCH  10  13
ATOM     13  C   UNL     1       1.354  -1.771  -4.216  0.00  0.00    +0.105 A 
ATOM     14  C   UNL     1       2.183  -2.872  -4.197  0.00  0.00    +0.047 A 
ATOM     15  C   UNL     1       2.180  -3.411  -5.488  0.00  0.00    +0.036 A 
ATOM     16  C   UNL     1       1.368  -2.645  -6.256  0.00  0.00    +0.101 A 
ATOM     17  N   UNL     1       0.855  -1.648  -5.493  0.00  0.00    -0.345 N 
ATOM     18  C   UNL     1      -0.073  -0.612  -5.952  0.00  0.00    +0.149 C 
ATOM     19 BR   UNL     1       3.141  -4.936  -6.060  0.00  0.00    -0.049 Br
ENDBRANCH  10  13
ENDBRANCH   2   9
BRANCH   2  20
ATOM     20  C   UNL     1      -0.347  -0.404  -0.549  0.00  0.00    +0.383 C 
ATOM     21  O   UNL     1      -1.026  -1.047  -1.332  0.00  0.00    -0.244 OA
ATOM     22  O   UNL     1      -0.881   0.211   0.358  0.00  0.00    -0.244 OA
ENDBRANCH   2  20
TORSDOF 4
