REMARK  Name = ZINC02792974
REMARK  7 active torsions:
REMARK  status: ('A' for Active; 'I' for Inactive)
REMARK    1  A    between atoms: C_1  and  C_2
REMARK    2  A    between atoms: C_4  and  C_8
REMARK    3  A    between atoms: N_5  and  C_7
REMARK    4  A    between atoms: N_10  and  C_11
REMARK    5  A    between atoms: C_11  and  N_13
REMARK    6  A    between atoms: N_13  and  C_14
REMARK    7  A    between atoms: C_15  and  C_23
REMARK                            x       y       z     vdW  Elec       q    Type
REMARK                         _______ _______ _______ _____ _____    ______ ____
ROOT
ATOM      1  C   UNL     1      -2.282   7.221  -2.921  0.00  0.00    +0.141 C 
ATOM      2  S   UNL     1      -2.263   5.974  -4.094  0.00  0.00    -0.018 S 
ENDROOT
BRANCH   1   5
ATOM      3  C   UNL     1      -2.926   8.753  -4.561  0.00  0.00    +0.269 C 
ATOM      4  O   UNL     1      -2.821   7.891  -5.411  0.00  0.00    -0.268 OA
ATOM      5  N   UNL     1      -2.612   8.478  -3.279  0.00  0.00    -0.262 N 
ATOM      6  H   UNL     1      -2.623   9.184  -2.615  0.00  0.00    +0.157 HD
BRANCH   3  10
ATOM      7  C   UNL     1      -3.204  13.527  -6.250  0.00  0.00    +0.069 C 
ATOM      8  C   UNL     1      -3.535  12.179  -5.662  0.00  0.00    +0.075 A 
ATOM      9  C   UNL     1      -2.647  11.112  -5.502  0.00  0.00    +0.071 A 
ATOM     10  C   UNL     1      -3.396  10.096  -4.929  0.00  0.00    +0.138 A 
ATOM     11  N   UNL     1      -4.659  10.596  -4.772  0.00  0.00    -0.261 N 
ATOM     12  N   UNL     1      -4.702  11.803  -5.207  0.00  0.00    -0.175 NA
ATOM     13  C   UNL     1      -5.790   9.865  -4.195  0.00  0.00    +0.173 C 
ATOM     14 BR   UNL     1      -0.816  11.063  -5.969  0.00  0.00    -0.046 Br
ENDBRANCH   3  10
ENDBRANCH   1   5
BRANCH   1  15
ATOM     15  N   UNL     1      -1.968   6.946  -1.640  0.00  0.00    -0.290 N 
ATOM     16  H   UNL     1      -1.978   7.652  -0.975  0.00  0.00    +0.154 HD
BRANCH  15  17
ATOM     17  C   UNL     1      -1.628   5.652  -1.272  0.00  0.00    +0.089 A 
ATOM     18  C   UNL     1      -1.278   5.177  -0.016  0.00  0.00    +0.084 A 
ATOM     19  C   UNL     1      -0.964   3.764   0.104  0.00  0.00    -0.018 A 
ATOM     20  C   UNL     1      -1.049   3.056  -1.044  0.00  0.00    -0.004 A 
ATOM     21  S   UNL     1      -1.538   4.238  -2.268  0.00  0.00    -0.077 S 
ATOM     22  C   UNL     1      -0.784   1.593  -1.225  0.00  0.00    +0.043 C 
ATOM     23  C   UNL     1      -0.036   1.081   0.015  0.00  0.00    +0.005 C 
ATOM     24  C   UNL     1      -0.755   1.582   1.271  0.00  0.00    +0.005 C 
ATOM     25  C   UNL     1      -0.564   3.092   1.412  0.00  0.00    +0.037 C 
BRANCH  18  26
ATOM     26  C   UNL     1      -1.229   6.048   1.119  0.00  0.00    +0.102 C 
ATOM     27  N   UNL     1      -1.189   6.739   2.021  0.00  0.00    -0.191 NA
ENDBRANCH  18  26
ENDBRANCH  15  17
ENDBRANCH   1  15
TORSDOF 5
