REMARK  Name = ZINC34740652
REMARK  12 active torsions:
REMARK  status: ('A' for Active; 'I' for Inactive)
REMARK    1  A    between atoms: C_1  and  C_2
REMARK    2  A    between atoms: C_2  and  C_3
REMARK    3  A    between atoms: C_2  and  C_4
REMARK    4  A    between atoms: N_6  and  C_7
REMARK    5  A    between atoms: N_6  and  C_29
REMARK    6  A    between atoms: C_7  and  C_8
REMARK    7  A    between atoms: N_11  and  C_21
REMARK    8  A    between atoms: C_13  and  C_15
REMARK    9  A    between atoms: C_21  and  C_22
REMARK   10  A    between atoms: C_27  and  O_28
REMARK   11  A    between atoms: C_29  and  C_30
REMARK   12  A    between atoms: C_29  and  C_31
REMARK                            x       y       z     vdW  Elec       q    Type
REMARK                         _______ _______ _______ _____ _____    ______ ____
ROOT
ATOM      1  C   UNL     1       2.304  -0.322   3.962  0.00  0.00    -0.005 C 
ATOM      2  C   UNL     1       3.692   0.108   3.441  0.00  0.00    -0.073 C 
ATOM      3  N   UNL     1       4.482   0.385   4.668  0.00  0.00    +0.383 N 
ATOM      4  C   UNL     1       4.075  -0.685   5.614  0.00  0.00    -0.070 C 
ATOM      5  C   UNL     1       2.553  -0.843   5.392  0.00  0.00    +0.005 C 
ATOM      6  H   UNL     1       4.249   1.293   5.040  0.00  0.00    -0.081 HD
ENDROOT
BRANCH   5   7
ATOM      7  C   UNL     1       2.155  -2.292   5.498  0.00  0.00    -0.046 A 
ATOM      8  C   UNL     1       1.023  -2.648   6.208  0.00  0.00    +0.004 A 
ATOM      9  C   UNL     1       0.658  -3.978   6.305  0.00  0.00    +0.000 A 
ATOM     10  C   UNL     1       1.424  -4.952   5.692  0.00  0.00    +0.000 A 
ATOM     11  C   UNL     1       2.555  -4.596   4.982  0.00  0.00    +0.000 A 
ATOM     12  C   UNL     1       2.918  -3.265   4.881  0.00  0.00    +0.004 A 
ENDBRANCH   5   7
BRANCH   1  13
ATOM     13  C   UNL     1       1.728  -1.435   3.084  0.00  0.00    +0.110 C 
BRANCH  13  16
ATOM     14  C   UNL     1       2.287  -0.884   0.777  0.00  0.00    +0.218 C 
ATOM     15  O   UNL     1       3.361  -1.425   0.936  0.00  0.00    -0.275 OA
ATOM     16  N   UNL     1       1.376  -0.888   1.770  0.00  0.00    -0.299 N 
BRANCH  14  18
ATOM     17  C   UNL     1       3.271   0.232  -1.207  0.00  0.00    +0.017 C 
ATOM     18  C   UNL     1       1.970  -0.208  -0.532  0.00  0.00    +0.069 C 
ATOM     19  C   UNL     1       1.228  -1.186  -1.445  0.00  0.00    +0.017 C 
ENDBRANCH  14  18
BRANCH  16  20
ATOM     20  C   UNL     1       0.035  -0.347   1.538  0.00  0.00    +0.070 C 
ATOM     21  C   UNL     1      -1.010  -1.416   1.862  0.00  0.00    +0.028 C 
ATOM     22  C   UNL     1      -0.186   0.872   2.436  0.00  0.00    +0.028 C 
ENDBRANCH  16  20
ENDBRANCH  13  16
ENDBRANCH   1  13
BRANCH   3  23
ATOM     23  C   UNL     1       5.921   0.298   4.383  0.00  0.00    -0.039 C 
BRANCH  23  24
ATOM     24  C   UNL     1       6.701   0.702   5.607  0.00  0.00    -0.022 A 
ATOM     25  C   UNL     1       7.227   1.976   5.703  0.00  0.00    +0.005 A 
ATOM     26  C   UNL     1       7.943   2.347   6.826  0.00  0.00    +0.000 A 
ATOM     27  C   UNL     1       8.134   1.445   7.856  0.00  0.00    +0.004 A 
ATOM     28  C   UNL     1       7.610   0.170   7.766  0.00  0.00    +0.045 A 
ATOM     29  C   UNL     1       6.887  -0.203   6.642  0.00  0.00    +0.118 A 
BRANCH  29  30
ATOM     30  O   UNL     1       6.365  -1.455   6.553  0.00  0.00    -0.507 OA
ATOM     31  H   UNL     1       6.959  -2.100   6.146  0.00  0.00    +0.292 HD
ENDBRANCH  29  30
ENDBRANCH  23  24
ENDBRANCH   3  23
TORSDOF 8
