REMARK  Name = ZINC17344242
REMARK  10 active torsions:
REMARK  status: ('A' for Active; 'I' for Inactive)
REMARK    1  A    between atoms: C_1  and  C_2
REMARK    2  A    between atoms: C_2  and  C_3
REMARK    3  A    between atoms: C_3  and  C_4
REMARK    4  A    between atoms: C_4  and  N_5
REMARK    5  A    between atoms: C_6  and  N_34
REMARK    6  A    between atoms: C_7  and  N_14
REMARK    7  A    between atoms: N_14  and  C_15
REMARK    8  A    between atoms: C_15  and  C_16
REMARK    9  A    between atoms: C_22  and  C_24
REMARK   10  A    between atoms: C_25  and  C_26
REMARK                            x       y       z     vdW  Elec       q    Type
REMARK                         _______ _______ _______ _____ _____    ______ ____
ROOT
ATOM      1  N   UNL     1       4.062  -1.038  -1.425  0.00  0.00    -0.256 N 
ATOM      2  C   UNL     1       3.591  -2.149  -2.024  0.00  0.00    +0.244 C 
ATOM      3  O   UNL     1       3.829  -2.355  -3.201  0.00  0.00    -0.270 OA
ENDROOT
BRANCH   1   6
ATOM      4  N   UNL     1       7.058   0.846  -2.412  0.00  0.00    -0.280 N 
ATOM      5  C   UNL     1       6.235  -0.003  -1.709  0.00  0.00    +0.127 A 
ATOM      6  C   UNL     1       4.930  -0.174  -2.125  0.00  0.00    +0.140 A 
ATOM      7  C   UNL     1       4.483   0.524  -3.263  0.00  0.00    +0.277 A 
ATOM      8  O   UNL     1       3.337   0.387  -3.655  0.00  0.00    -0.266 OA
ATOM      9  N   UNL     1       5.329   1.347  -3.912  0.00  0.00    -0.273 N 
ATOM     10  H   UNL     1       5.009   1.849  -4.716  0.00  0.00    +0.173 HD
ATOM     11  C   UNL     1       6.597   1.501  -3.493  0.00  0.00    +0.331 A 
ATOM     12  O   UNL     1       7.340   2.247  -4.101  0.00  0.00    -0.246 OA
BRANCH   5  13
ATOM     13  N   UNL     1       6.707  -0.672  -0.605  0.00  0.00    -0.343 N 
ATOM     14  H   UNL     1       6.145  -1.324  -0.156  0.00  0.00    +0.144 HD
ATOM     15  H   UNL     1       7.601  -0.493  -0.274  0.00  0.00    +0.144 HD
ENDBRANCH   5  13
BRANCH   4  16
ATOM     16  C   UNL     1       8.445   1.038  -1.982  0.00  0.00    +0.128 C 
BRANCH  16  17
ATOM     17  C   UNL     1       9.341   0.007  -2.673  0.00  0.00    +0.021 C 
BRANCH  17  19
ATOM     18  C   UNL     1      11.685  -0.823  -2.915  0.00  0.00    +0.004 C 
ATOM     19  C   UNL     1      10.789   0.207  -2.224  0.00  0.00    -0.002 C 
ENDBRANCH  17  19
ENDBRANCH  16  17
ENDBRANCH   4  16
ENDBRANCH   1   6
BRANCH   2  20
ATOM     20  C   UNL     1       2.792  -3.109  -1.262  0.00  0.00    +0.068 C 
ATOM     21  C   UNL     1       2.321  -4.221  -1.861  0.00  0.00    +0.017 C 
BRANCH  21  22
ATOM     22  C   UNL     1       1.518  -5.186  -1.094  0.00  0.00    +0.029 A 
ATOM     23  C   UNL     1       0.291  -5.639  -1.597  0.00  0.00    +0.132 A 
ATOM     24  C   UNL     1      -0.455  -6.546  -0.869  0.00  0.00    +0.039 A 
ATOM     25  C   UNL     1       0.006  -7.005   0.352  0.00  0.00    +0.004 A 
ATOM     26  C   UNL     1       1.216  -6.562   0.855  0.00  0.00    +0.021 A 
ATOM     27  C   UNL     1       1.978  -5.661   0.140  0.00  0.00    +0.051 A 
ATOM     28 CL   UNL     1       3.499  -5.113   0.771  0.00  0.00    -0.083 Cl
ATOM     29  F   UNL     1      -0.160  -5.192  -2.789  0.00  0.00    -0.205 F 
ENDBRANCH  21  22
ENDBRANCH   2  20
BRANCH   1  30
ATOM     30  C   UNL     1       3.673  -0.727  -0.048  0.00  0.00    +0.149 C 
BRANCH  30  31
ATOM     31  C   UNL     1       2.368   0.028  -0.053  0.00  0.00    -0.030 A 
ATOM     32  C   UNL     1       1.171  -0.661  -0.089  0.00  0.00    +0.005 A 
ATOM     33  C   UNL     1      -0.026   0.031  -0.094  0.00  0.00    +0.000 A 
ATOM     34  C   UNL     1      -0.024   1.413  -0.062  0.00  0.00    +0.000 A 
ATOM     35  C   UNL     1       1.173   2.103  -0.026  0.00  0.00    +0.000 A 
ATOM     36  C   UNL     1       2.370   1.410  -0.021  0.00  0.00    +0.005 A 
ENDBRANCH  30  31
ENDBRANCH   1  30
TORSDOF 9
