REMARK  Name = ZINC07404858
REMARK  6 active torsions:
REMARK  status: ('A' for Active; 'I' for Inactive)
REMARK    1  A    between atoms: C_1  and  C_2
REMARK    2  A    between atoms: C_5  and  S_11
REMARK    3  A    between atoms: C_7  and  N_8
REMARK    4  A    between atoms: S_11  and  N_14
REMARK    5  A    between atoms: N_14  and  N_15
REMARK    6  A    between atoms: C_16  and  C_18
REMARK                            x       y       z     vdW  Elec       q    Type
REMARK                         _______ _______ _______ _____ _____    ______ ____
ROOT
ATOM      1  N   UNL     1      -6.464   0.219  -0.218  0.00  0.00    -0.108 NA
ATOM      2  H   UNL     1      -6.946  -0.365  -0.825  0.00  0.00    +0.172 HD
ENDROOT
BRANCH   1   3
ATOM      3  N   UNL     1      -5.131   0.559  -0.482  0.00  0.00    -0.227 N 
ATOM      4  C   UNL     1      -4.213  -0.410  -0.667  0.00  0.00    +0.265 C 
ATOM      5  O   UNL     1      -4.541  -1.580  -0.605  0.00  0.00    -0.268 OA
ATOM      6  H   UNL     1      -4.869   1.492  -0.532  0.00  0.00    +0.171 HD
BRANCH   4   7
ATOM      7  C   UNL     1      -2.818  -0.054  -0.943  0.00  0.00    +0.076 A 
ATOM      8  C   UNL     1      -1.732  -0.883  -1.161  0.00  0.00    +0.024 A 
ATOM      9  C   UNL     1      -0.495  -0.294  -1.400  0.00  0.00    -0.036 A 
ATOM     10  C   UNL     1      -0.466   1.057  -1.426  0.00  0.00    -0.006 A 
ATOM     11  S   UNL     1      -2.075   1.563  -1.088  0.00  0.00    -0.088 S 
ATOM     12  C   UNL     1       0.739   1.925  -1.714  0.00  0.00    +0.043 C 
ATOM     13  C   UNL     1       1.718   1.748  -0.541  0.00  0.00    +0.005 C 
ATOM     14  C   UNL     1       2.489   0.458  -0.688  0.00  0.00    +0.001 C 
ATOM     15  C   UNL     1       1.720  -0.816  -0.443  0.00  0.00    +0.005 C 
ATOM     16  C   UNL     1       0.768  -1.140  -1.596  0.00  0.00    +0.036 C 
ENDBRANCH   4   7
ENDBRANCH   1   3
BRANCH   1  17
ATOM     17  S   UNL     1      -7.219   0.813   1.131  0.00  0.00    +0.074 S 
ATOM     18  O   UNL     1      -8.580   0.414   1.044  0.00  0.00    -0.152 OA
ATOM     19  O   UNL     1      -6.396   0.474   2.239  0.00  0.00    -0.152 OA
BRANCH  17  24
ATOM     20  C   UNL     1      -7.152   6.831   0.708  0.00  0.00    +0.046 C 
ATOM     21  C   UNL     1      -7.169   5.328   0.814  0.00  0.00    -0.020 A 
ATOM     22  C   UNL     1      -6.127   4.667   1.437  0.00  0.00    +0.007 A 
ATOM     23  C   UNL     1      -6.144   3.289   1.539  0.00  0.00    +0.029 A 
ATOM     24  C   UNL     1      -7.199   2.570   1.008  0.00  0.00    +0.109 A 
ATOM     25  C   UNL     1      -8.242   3.231   0.385  0.00  0.00    +0.061 A 
ATOM     26  C   UNL     1      -8.226   4.610   0.288  0.00  0.00    +0.131 A 
BRANCH  26  27
ATOM     27  N   UNL     1      -9.343   5.317  -0.379  0.00  0.00    +0.057 N 
ATOM     28  O   UNL     1     -10.215   4.683  -0.944  0.00  0.00    -0.126 OA
ATOM     29  O   UNL     1      -9.389   6.534  -0.362  0.00  0.00    -0.126 OA
ENDBRANCH  26  27
ENDBRANCH  17  24
ENDBRANCH   1  17
TORSDOF 5
