REMARK  Name = ZINC09223432
REMARK  9 active torsions:
REMARK  status: ('A' for Active; 'I' for Inactive)
REMARK    1  A    between atoms: C_4  and  C_7
REMARK    2  A    between atoms: C_7  and  N_8
REMARK    3  A    between atoms: C_9  and  N_37
REMARK    4  A    between atoms: C_10  and  N_17
REMARK    5  A    between atoms: N_17  and  C_18
REMARK    6  A    between atoms: C_18  and  C_19
REMARK    7  A    between atoms: C_25  and  C_27
REMARK    8  A    between atoms: C_27  and  N_28
REMARK    9  A    between atoms: C_31  and  C_33
REMARK                            x       y       z     vdW  Elec       q    Type
REMARK                         _______ _______ _______ _____ _____    ______ ____
ROOT
ATOM      1  N   UNL     1      -2.755   1.695   2.870  0.00  0.00    -0.276 N 
ATOM      2  C   UNL     1      -2.359   0.609   3.615  0.00  0.00    +0.128 A 
ATOM      3  C   UNL     1      -2.888  -0.633   3.328  0.00  0.00    +0.140 A 
ATOM      4  C   UNL     1      -3.812  -0.751   2.273  0.00  0.00    +0.277 A 
ATOM      5  O   UNL     1      -4.291  -1.838   1.995  0.00  0.00    -0.266 OA
ATOM      6  N   UNL     1      -4.162   0.344   1.571  0.00  0.00    -0.273 N 
ATOM      7  H   UNL     1      -4.818   0.261   0.820  0.00  0.00    +0.173 HD
ATOM      8  C   UNL     1      -3.640   1.547   1.867  0.00  0.00    +0.331 A 
ATOM      9  O   UNL     1      -3.974   2.519   1.217  0.00  0.00    -0.246 OA
ENDROOT
BRANCH   3  10
ATOM     10  N   UNL     1      -2.506  -1.766   4.078  0.00  0.00    -0.260 N 
ATOM     11  C   UNL     1      -1.822  -2.767   3.486  0.00  0.00    +0.242 C 
ATOM     12  O   UNL     1      -1.457  -2.654   2.334  0.00  0.00    -0.273 OA
BRANCH  10  13
ATOM     13  C   UNL     1      -2.852  -1.855   5.498  0.00  0.00    +0.145 C 
BRANCH  13  14
ATOM     14  C   UNL     1      -4.148  -2.652   5.659  0.00  0.00    +0.136 C 
ATOM     15  C   UNL     1      -4.525  -2.745   7.150  0.00  0.00    +0.035 C 
ATOM     16  C   UNL     1      -5.932  -2.103   7.226  0.00  0.00    +0.031 C 
ATOM     17  C   UNL     1      -6.420  -2.215   5.760  0.00  0.00    +0.160 C 
ATOM     18  O   UNL     1      -5.223  -1.977   4.984  0.00  0.00    -0.375 OA
ENDBRANCH  13  14
ENDBRANCH  10  13
BRANCH  11  19
ATOM     19  C   UNL     1      -1.510  -4.025   4.255  0.00  0.00    +0.239 C 
BRANCH  19  20
ATOM     20  N   UNL     1      -0.765  -4.950   3.398  0.00  0.00    -0.262 N 
ATOM     21  C   UNL     1       0.435  -5.500   3.678  0.00  0.00    +0.109 A 
ATOM     22  C   UNL     1       0.776  -6.295   2.638  0.00  0.00    +0.053 A 
ATOM     23  C   UNL     1      -0.245  -6.221   1.685  0.00  0.00    +0.165 A 
ATOM     24  N   UNL     1      -1.170  -5.415   2.140  0.00  0.00    -0.167 NA
BRANCH  23  25
ATOM     25  C   UNL     1      -0.276  -6.945   0.364  0.00  0.00    +0.436 C 
ATOM     26  F   UNL     1      -1.398  -6.536  -0.366  0.00  0.00    -0.164 F 
ATOM     27  F   UNL     1       0.884  -6.646  -0.359  0.00  0.00    -0.164 F 
ATOM     28  F   UNL     1      -0.343  -8.324   0.589  0.00  0.00    -0.164 F 
ENDBRANCH  23  25
ENDBRANCH  19  20
ENDBRANCH  11  19
ENDBRANCH   3  10
BRANCH   2  29
ATOM     29  N   UNL     1      -1.451   0.759   4.635  0.00  0.00    -0.343 N 
ATOM     30  H   UNL     1      -1.046   1.625   4.800  0.00  0.00    +0.144 HD
ATOM     31  H   UNL     1      -1.215  -0.000   5.190  0.00  0.00    +0.144 HD
ENDBRANCH   2  29
BRANCH   1  32
ATOM     32  C   UNL     1      -2.206   3.021   3.167  0.00  0.00    +0.163 C 
BRANCH  32  36
ATOM     33  C   UNL     1      -4.696   4.992   6.024  0.00  0.00    +0.000 A 
ATOM     34  C   UNL     1      -3.642   4.205   6.451  0.00  0.00    +0.000 A 
ATOM     35  C   UNL     1      -2.839   3.564   5.527  0.00  0.00    +0.005 A 
ATOM     36  C   UNL     1      -3.086   3.715   4.175  0.00  0.00    -0.028 A 
ATOM     37  C   UNL     1      -4.142   4.498   3.748  0.00  0.00    +0.005 A 
ATOM     38  C   UNL     1      -4.946   5.138   4.673  0.00  0.00    +0.000 A 
ENDBRANCH  32  36
ENDBRANCH   1  32
TORSDOF 9
