REMARK  Name = ZINC20152230
REMARK  7 active torsions:
REMARK  status: ('A' for Active; 'I' for Inactive)
REMARK    1  A    between atoms: C_10  and  C_11
REMARK    2  A    between atoms: N_13  and  C_14
REMARK    3  A    between atoms: C_14  and  N_16
REMARK    4  A    between atoms: N_16  and  C_17
REMARK    5  A    between atoms: C_19  and  C_24
REMARK    6  A    between atoms: C_27  and  C_29
REMARK    7  A    between atoms: C_29  and  O_30
REMARK                            x       y       z     vdW  Elec       q    Type
REMARK                         _______ _______ _______ _____ _____    ______ ____
ROOT
ATOM      1  N   UNL     1       8.486  -0.568   0.122  0.00  0.00    -0.295 N 
ATOM      2  H   UNL     1       8.476  -1.530   0.246  0.00  0.00    +0.154 HD
ENDROOT
BRANCH   1   3
ATOM      3  C   UNL     1       9.691   0.138   0.220  0.00  0.00    +0.052 A 
ATOM      4  C   UNL     1       9.739   1.333   0.920  0.00  0.00    +0.036 A 
ATOM      5  C   UNL     1      10.943   2.032   1.014  0.00  0.00    +0.019 A 
ATOM      6  C   UNL     1      12.091   1.524   0.403  0.00  0.00    +0.013 A 
ATOM      7  C   UNL     1      12.032   0.333  -0.292  0.00  0.00    +0.022 A 
ATOM      8  C   UNL     1      10.840  -0.363  -0.382  0.00  0.00    +0.062 A 
ATOM      9 CL   UNL     1      10.778  -1.863  -1.252  0.00  0.00    -0.082 Cl
BRANCH   5  10
ATOM     10  C   UNL     1      11.002   3.307   1.759  0.00  0.00    +0.135 A 
ATOM     11  C   UNL     1      12.105   4.086   1.921  0.00  0.00    +0.050 A 
ATOM     12  C   UNL     1      11.708   5.197   2.692  0.00  0.00    +0.047 A 
ATOM     13  C   UNL     1      10.396   5.043   2.959  0.00  0.00    +0.131 A 
ATOM     14  O   UNL     1       9.972   3.903   2.390  0.00  0.00    -0.457 OA
BRANCH  13  15
ATOM     15  C   UNL     1       9.546   5.995   3.760  0.00  0.00    +0.230 C 
BRANCH  15  16
ATOM     16  O   UNL     1       8.969   6.968   2.887  0.00  0.00    -0.387 OA
ATOM     17  H   UNL     1       8.407   7.615   3.336  0.00  0.00    +0.210 HD
ENDBRANCH  15  16
ENDBRANCH  13  15
ENDBRANCH   5  10
ENDBRANCH   1   3
BRANCH   1  18
ATOM     18  C   UNL     1       7.340   0.090  -0.144  0.00  0.00    +0.141 C 
ATOM     19  S   UNL     1       7.375   1.766  -0.490  0.00  0.00    -0.018 S 
BRANCH  18  22
ATOM     20  C   UNL     1       5.020   0.085  -0.404  0.00  0.00    +0.250 C 
ATOM     21  O   UNL     1       5.045   1.275  -0.650  0.00  0.00    -0.270 OA
ATOM     22  N   UNL     1       6.166  -0.573  -0.138  0.00  0.00    -0.264 N 
ATOM     23  H   UNL     1       6.146  -1.522   0.059  0.00  0.00    +0.157 HD
BRANCH  20  33
ATOM     24  C   UNL     1       0.046   1.379  -0.857  0.00  0.00    +0.001 A 
ATOM     25  C   UNL     1       1.238   2.099  -0.869  0.00  0.00    +0.001 A 
ATOM     26  C   UNL     1       2.438   1.468  -0.722  0.00  0.00    +0.009 A 
ATOM     27  C   UNL     1       2.474   0.078  -0.558  0.00  0.00    -0.006 A 
ATOM     28  C   UNL     1       1.263  -0.657  -0.546  0.00  0.00    -0.017 A 
ATOM     29  C   UNL     1       0.044   0.027  -0.700  0.00  0.00    +0.008 A 
ATOM     30  C   UNL     1       1.303  -2.051  -0.380  0.00  0.00    +0.008 A 
ATOM     31  C   UNL     1       2.491  -2.699  -0.231  0.00  0.00    +0.001 A 
ATOM     32  C   UNL     1       3.701  -2.019  -0.237  0.00  0.00    +0.014 A 
ATOM     33  C   UNL     1       3.736  -0.640  -0.397  0.00  0.00    +0.045 A 
ENDBRANCH  20  33
ENDBRANCH  18  22
ENDBRANCH   1  18
TORSDOF 7
