REMARK  Name = ZINC61997366
REMARK  7 active torsions:
REMARK  status: ('A' for Active; 'I' for Inactive)
REMARK    1  A    between atoms: C_1  and  C_2
REMARK    2  A    between atoms: C_5  and  C_8
REMARK    3  A    between atoms: C_10  and  C_21
REMARK    4  A    between atoms: C_11  and  N_13
REMARK    5  A    between atoms: N_13  and  C_14
REMARK    6  A    between atoms: C_14  and  C_15
REMARK    7  A    between atoms: N_18  and  C_20
REMARK                            x       y       z     vdW  Elec       q    Type
REMARK                         _______ _______ _______ _____ _____    ______ ____
ROOT
ATOM      1  C   UNL     1       0.060  -4.251  -0.021  0.00  0.00    +0.231 A 
ATOM      2  N   UNL     1       0.070  -4.999  -1.094  0.00  0.00    -0.196 NA
ATOM      3  C   UNL     1       0.088  -6.303  -0.712  0.00  0.00    +0.201 A 
ATOM      4  C   UNL     1       0.088  -6.318   0.675  0.00  0.00    +0.225 A 
ATOM      5  O   UNL     1       0.076  -5.034   1.075  0.00  0.00    -0.421 OA
ENDROOT
BRANCH   1  10
ATOM      6  C   UNL     1      -0.018   1.503   0.010  0.00  0.00    +0.044 C 
ATOM      7  C   UNL     1       0.002  -0.004   0.002  0.00  0.00    -0.050 A 
ATOM      8  C   UNL     1       0.006  -0.686  -1.202  0.00  0.00    +0.004 A 
ATOM      9  C   UNL     1       0.024  -2.066  -1.216  0.00  0.00    +0.013 A 
ATOM     10  C   UNL     1       0.040  -2.773  -0.013  0.00  0.00    +0.037 A 
ATOM     11  C   UNL     1       0.037  -2.079   1.198  0.00  0.00    +0.013 A 
ATOM     12  C   UNL     1       0.023  -0.699   1.198  0.00  0.00    +0.004 A 
ENDBRANCH   1  10
BRANCH   4  13
ATOM     13  N   UNL     1       0.104  -7.432   1.485  0.00  0.00    -0.309 N 
ATOM     14  H   UNL     1       0.116  -8.318   1.091  0.00  0.00    +0.149 HD
BRANCH  13  15
ATOM     15  C   UNL     1       0.102  -7.277   2.942  0.00  0.00    +0.143 C 
BRANCH  15  16
ATOM     16  C   UNL     1       0.121  -8.637   3.591  0.00  0.00    +0.007 A 
ATOM     17  C   UNL     1      -1.000  -9.398   3.941  0.00  0.00    +0.139 A 
ATOM     18  N   UNL     1      -0.583 -10.516   4.479  0.00  0.00    -0.180 NA
ATOM     19  N   UNL     1       0.818 -10.501   4.489  0.00  0.00    -0.274 N 
ATOM     20  C   UNL     1       1.225  -9.341   3.934  0.00  0.00    +0.113 A 
ATOM     21  C   UNL     1       1.687 -11.562   5.005  0.00  0.00    +0.172 C 
ENDBRANCH  15  16
ENDBRANCH  13  15
ENDBRANCH   4  13
BRANCH   3  22
ATOM     22  C   UNL     1       0.102  -7.445  -1.577  0.00  0.00    +0.124 C 
ATOM     23  N   UNL     1       0.114  -8.350  -2.263  0.00  0.00    -0.189 NA
ENDBRANCH   3  22
TORSDOF 5
