REMARK  Name = ZINC60415350
REMARK  6 active torsions:
REMARK  status: ('A' for Active; 'I' for Inactive)
REMARK    1  A    between atoms: C_3  and  O_12
REMARK    2  A    between atoms: O_12  and  C_13
REMARK    3  A    between atoms: C_13  and  C_14
REMARK    4  A    between atoms: N_16  and  N_17
REMARK    5  A    between atoms: N_20  and  C_21
REMARK    6  A    between atoms: C_21  and  C_22
REMARK                            x       y       z     vdW  Elec       q    Type
REMARK                         _______ _______ _______ _____ _____    ______ ____
ROOT
ATOM      1  C   UNL     1       4.810   4.151  -0.023  0.00  0.00    +0.267 C 
ATOM      2  O   UNL     1       5.788   3.433  -0.036  0.00  0.00    -0.271 OA
ATOM      3  N   UNL     1       4.957   5.490  -0.018  0.00  0.00    -0.230 N 
ATOM      4  H   UNL     1       4.175   6.064  -0.007  0.00  0.00    +0.173 HD
ENDROOT
BRANCH   3   5
ATOM      5  N   UNL     1       6.239   6.055  -0.027  0.00  0.00    -0.218 N 
ATOM      6  C   UNL     1       6.386   7.394  -0.022  0.00  0.00    +0.316 C 
ATOM      7  O   UNL     1       7.499   7.884  -0.030  0.00  0.00    -0.251 OA
ATOM      8  N   UNL     1       5.299   8.191  -0.007  0.00  0.00    -0.290 N 
ATOM      9  H   UNL     1       7.021   5.481  -0.038  0.00  0.00    +0.174 HD
ATOM     10  H   UNL     1       4.411   7.801  -0.001  0.00  0.00    +0.151 HD
BRANCH   8  11
ATOM     11  C   UNL     1       5.459   9.648  -0.002  0.00  0.00    +0.219 C 
BRANCH  11  12
ATOM     12  C   UNL     1       4.080  10.312   0.015  0.00  0.00    +0.405 C 
ATOM     13  F   UNL     1       3.385   9.914   1.162  0.00  0.00    -0.169 F 
ATOM     14  F   UNL     1       4.233  11.702   0.021  0.00  0.00    -0.169 F 
ATOM     15  F   UNL     1       3.363   9.926  -1.122  0.00  0.00    -0.169 F 
ENDBRANCH  11  12
ENDBRANCH   8  11
ENDBRANCH   3   5
BRANCH   1  16
ATOM     16  C   UNL     1       3.430   3.544  -0.013  0.00  0.00    +0.326 C 
BRANCH  16  17
ATOM     17  O   UNL     1       3.537   2.119  -0.021  0.00  0.00    -0.483 OA
BRANCH  17  20
ATOM     18  C   UNL     1      -0.017   1.395   0.010  0.00  0.00    +0.015 A 
ATOM     19  C   UNL     1       1.158   2.089   0.002  0.00  0.00    +0.046 A 
ATOM     20  C   UNL     1       2.377   1.414  -0.013  0.00  0.00    +0.125 A 
ATOM     21  C   UNL     1       2.414   0.029  -0.021  0.00  0.00    +0.092 A 
ATOM     22  C   UNL     1       1.230  -0.692  -0.013  0.00  0.00    +0.143 A 
ATOM     23  C   UNL     1       0.002  -0.004   0.002  0.00  0.00    +0.018 A 
ATOM     24  C   UNL     1      -1.243  -0.775   0.009  0.00  0.00    +0.018 A 
ATOM     25  C   UNL     1      -1.158  -2.131   0.001  0.00  0.00    +0.092 A 
ATOM     26  C   UNL     1       0.107  -2.755  -0.015  0.00  0.00    +0.337 A 
ATOM     27  O   UNL     1       0.168  -3.971  -0.022  0.00  0.00    -0.245 OA
ATOM     28  O   UNL     1       1.244  -2.042  -0.021  0.00  0.00    -0.422 OA
ENDBRANCH  17  20
ENDBRANCH  16  17
ENDBRANCH   1  16
TORSDOF 6
