REMARK  Name = ZINC22133896
REMARK  9 active torsions:
REMARK  status: ('A' for Active; 'I' for Inactive)
REMARK    1  A    between atoms: C_1  and  C_2
REMARK    2  A    between atoms: C_2  and  N_3
REMARK    3  A    between atoms: C_4  and  C_25
REMARK    4  A    between atoms: C_7  and  S_8
REMARK    5  A    between atoms: S_8  and  C_9
REMARK    6  A    between atoms: C_9  and  C_10
REMARK    7  A    between atoms: N_12  and  C_13
REMARK    8  A    between atoms: C_13  and  C_14
REMARK    9  A    between atoms: C_25  and  N_26
REMARK                            x       y       z     vdW  Elec       q    Type
REMARK                         _______ _______ _______ _____ _____    ______ ____
ROOT
ATOM      1  S   UNL     1       1.338  11.736  -0.693  0.00  0.00    -0.077 S 
ENDROOT
BRANCH   1   6
ATOM      2  N   UNL     1       3.066  13.568  -1.913  0.00  0.00    -0.305 N 
ATOM      3  C   UNL     1       3.883  13.573  -3.009  0.00  0.00    +0.152 A 
ATOM      4  N   UNL     1       3.779  12.404  -3.576  0.00  0.00    -0.132 NA
ATOM      5  N   UNL     1       2.962  11.664  -2.915  0.00  0.00    -0.122 NA
ATOM      6  C   UNL     1       2.490  12.330  -1.886  0.00  0.00    +0.192 A 
BRANCH   2   8
ATOM      7  C   UNL     1       3.797  14.497   0.228  0.00  0.00    +0.027 C 
ATOM      8  C   UNL     1       2.852  14.663  -0.964  0.00  0.00    +0.122 C 
ENDBRANCH   2   8
BRANCH   3   9
ATOM      9  C   UNL     1       4.744  14.718  -3.476  0.00  0.00    +0.184 C 
BRANCH   9  10
ATOM     10  N   UNL     1       4.031  15.477  -4.506  0.00  0.00    -0.294 N 
ATOM     11  C   UNL     1       3.250  16.666  -4.128  0.00  0.00    +0.108 C 
ATOM     12  C   UNL     1       1.762  16.332  -4.244  0.00  0.00    +0.019 C 
ATOM     13  C   UNL     1       1.263  16.566  -5.659  0.00  0.00    +0.002 C 
ATOM     14  C   UNL     1       1.854  15.613  -6.682  0.00  0.00    +0.009 C 
ATOM     15  C   UNL     1       3.355  15.861  -6.851  0.00  0.00    +0.096 C 
ATOM     16  C   UNL     1       4.098  15.090  -5.780  0.00  0.00    +0.216 C 
ATOM     17  O   UNL     1       4.753  14.115  -6.082  0.00  0.00    -0.276 OA
ENDBRANCH   9  10
ENDBRANCH   3   9
ENDBRANCH   1   6
BRANCH   1  18
ATOM     18  C   UNL     1       1.060  10.064  -1.330  0.00  0.00    +0.173 C 
BRANCH  18  19
ATOM     19  C   UNL     1       0.077   9.345  -0.442  0.00  0.00    +0.223 C 
ATOM     20  O   UNL     1      -0.389   9.907   0.526  0.00  0.00    -0.275 OA
ATOM     21  N   UNL     1      -0.283   8.078  -0.724  0.00  0.00    -0.311 N 
ATOM     22  H   UNL     1       0.140   7.568  -1.602  0.00  0.00    +0.149 HD
BRANCH  21  23
ATOM     23  C   UNL     1      -1.238   7.378   0.140  0.00  0.00    +0.152 C 
BRANCH  23  24
ATOM     24  C   UNL     1      -1.473   5.966  -0.398  0.00  0.00    +0.228 C 
ATOM     25  C   UNL     1      -2.565   5.272   0.428  0.00  0.00    +0.275 C 
ATOM     26  O   UNL     1      -2.749   3.951  -0.093  0.00  0.00    -0.485 OA
ATOM     27  C   UNL     1      -1.622   3.228  -0.338  0.00  0.00    +0.162 A 
ATOM     28  C   UNL     1      -1.716   1.853  -0.495  0.00  0.00    +0.049 A 
ATOM     29  C   UNL     1      -0.581   1.105  -0.743  0.00  0.00    +0.004 A 
ATOM     30  C   UNL     1       0.650   1.726  -0.845  0.00  0.00    +0.004 A 
ATOM     31  C   UNL     1       0.750   3.096  -0.694  0.00  0.00    +0.049 A 
ATOM     32  C   UNL     1      -0.385   3.852  -0.439  0.00  0.00    +0.163 A 
ATOM     33  O   UNL     1      -0.269   5.199  -0.284  0.00  0.00    -0.480 OA
ENDBRANCH  23  24
ENDBRANCH  21  23
ENDBRANCH  18  19
ENDBRANCH   1  18
TORSDOF 8
