REMARK  Name = ZINC28052339
REMARK  6 active torsions:
REMARK  status: ('A' for Active; 'I' for Inactive)
REMARK    1  A    between atoms: C_1  and  C_2
REMARK    2  A    between atoms: C_7  and  C_8
REMARK    3  A    between atoms: C_11  and  C_32
REMARK    4  A    between atoms: C_21  and  C_24
REMARK    5  A    between atoms: C_27  and  O_30
REMARK    6  A    between atoms: O_30  and  C_31
REMARK                            x       y       z     vdW  Elec       q    Type
REMARK                         _______ _______ _______ _____ _____    ______ ____
ROOT
ATOM      1  C   UNL     1       8.165  -2.257  -0.262  0.00  0.00    +0.091 C 
ATOM      2  C   UNL     1       8.838  -2.946  -1.406  0.00  0.00    +0.049 A 
ATOM      3  C   UNL     1       9.931  -3.806  -1.472  0.00  0.00    +0.087 A 
ATOM      4  N   UNL     1      10.082  -4.105  -2.739  0.00  0.00    -0.081 NA
ATOM      5  O   UNL     1       9.250  -3.558  -3.437  0.00  0.00    -0.339 OA
ATOM      6  C   UNL     1       8.425  -2.814  -2.707  0.00  0.00    +0.226 A 
ATOM      7  N   UNL     1       7.342  -2.025  -3.036  0.00  0.00    -0.286 N 
ATOM      8  C   UNL     1       6.507  -1.602  -2.030  0.00  0.00    +0.019 C 
ATOM      9  C   UNL     1       6.835  -1.698  -0.724  0.00  0.00    +0.024 C 
ATOM     10  C   UNL     1       5.945  -1.272   0.279  0.00  0.00    +0.162 C 
ATOM     11  O   UNL     1       6.279  -1.356   1.444  0.00  0.00    -0.292 OA
ATOM     12  C   UNL     1       4.590  -0.715  -0.057  0.00  0.00    +0.088 C 
ATOM     13  C   UNL     1       4.122  -1.314  -1.388  0.00  0.00    +0.032 C 
ATOM     14  C   UNL     1       5.180  -1.011  -2.450  0.00  0.00    +0.059 C 
ATOM     15  C   UNL     1      10.771  -4.293  -0.320  0.00  0.00    +0.069 C 
ATOM     16  H   UNL     1       7.162  -1.748  -4.085  0.00  0.00    +0.155 HD
ENDROOT
BRANCH   1  23
ATOM     17  C   UNL     1       9.219  -2.319   2.427  0.00  0.00    +0.044 C 
ATOM     18  C   UNL     1       9.543  -1.162   1.517  0.00  0.00    -0.046 A 
ATOM     19  C   UNL     1      10.348  -0.132   1.968  0.00  0.00    +0.003 A 
ATOM     20  C   UNL     1      10.641   0.932   1.136  0.00  0.00    +0.000 A 
ATOM     21  C   UNL     1      10.132   0.964  -0.149  0.00  0.00    +0.000 A 
ATOM     22  C   UNL     1       9.331  -0.068  -0.602  0.00  0.00    +0.005 A 
ATOM     23  C   UNL     1       9.039  -1.132   0.231  0.00  0.00    -0.032 A 
ENDBRANCH   1  23
BRANCH  13  24
ATOM     24  C   UNL     1       2.807  -0.696  -1.789  0.00  0.00    -0.043 A 
ATOM     25  C   UNL     1       1.694  -1.497  -1.966  0.00  0.00    +0.007 A 
ATOM     26  C   UNL     1       0.488  -0.933  -2.334  0.00  0.00    +0.046 A 
ATOM     27  C   UNL     1       0.394   0.438  -2.526  0.00  0.00    +0.120 A 
ATOM     28  C   UNL     1       1.513   1.239  -2.348  0.00  0.00    +0.046 A 
ATOM     29  C   UNL     1       2.717   0.670  -1.980  0.00  0.00    +0.007 A 
BRANCH  27  30
ATOM     30  O   UNL     1      -0.790   0.995  -2.894  0.00  0.00    -0.495 OA
ATOM     31  C   UNL     1      -0.812   2.412  -3.074  0.00  0.00    +0.277 C 
ENDBRANCH  27  30
ENDBRANCH  13  24
TORSDOF 3
