REMARK  Name = ZINC63772663
REMARK  5 active torsions:
REMARK  status: ('A' for Active; 'I' for Inactive)
REMARK    1  A    between atoms: C_6  and  O_29
REMARK    2  A    between atoms: C_7  and  C_11
REMARK    3  A    between atoms: N_13  and  N_14
REMARK    4  A    between atoms: C_15  and  C_16
REMARK    5  A    between atoms: C_21  and  C_22
REMARK                            x       y       z     vdW  Elec       q    Type
REMARK                         _______ _______ _______ _____ _____    ______ ____
ROOT
ATOM      1  C   UNL     1       2.578  -4.197  -0.044  0.00  0.00    +0.267 C 
ATOM      2  O   UNL     1       3.656  -4.760  -0.058  0.00  0.00    -0.268 OA
ATOM      3  N   UNL     1       1.440  -4.919  -0.037  0.00  0.00    -0.203 N 
ATOM      4  H   UNL     1       0.581  -4.470  -0.027  0.00  0.00    +0.178 HD
ENDROOT
BRANCH   1  11
ATOM      5  C   UNL     1      -0.016   1.356   0.009  0.00  0.00    +0.001 A 
ATOM      6  C   UNL     1       1.169   2.090   0.002  0.00  0.00    +0.001 A 
ATOM      7  C   UNL     1       2.379   1.467  -0.013  0.00  0.00    +0.008 A 
ATOM      8  C   UNL     1       2.440   0.063  -0.021  0.00  0.00    -0.014 A 
ATOM      9  C   UNL     1       3.675  -0.607  -0.036  0.00  0.00    +0.054 A 
ATOM     10  C   UNL     1       3.711  -1.970  -0.043  0.00  0.00    +0.130 A 
ATOM     11  C   UNL     1       2.516  -2.722  -0.036  0.00  0.00    +0.080 A 
ATOM     12  C   UNL     1       1.286  -2.085  -0.021  0.00  0.00    +0.025 A 
ATOM     13  C   UNL     1       1.234  -0.684  -0.013  0.00  0.00    -0.017 A 
ATOM     14  C   UNL     1       0.002  -0.004   0.002  0.00  0.00    +0.008 A 
BRANCH  10  15
ATOM     15  O   UNL     1       4.907  -2.611  -0.058  0.00  0.00    -0.506 OA
ATOM     16  H   UNL     1       5.263  -2.801   0.821  0.00  0.00    +0.292 HD
ENDBRANCH  10  15
ENDBRANCH   1  11
BRANCH   3  17
ATOM     17  N   UNL     1       1.499  -6.319  -0.046  0.00  0.00    -0.191 NA
ATOM     18  C   UNL     1       0.418  -7.005  -0.039  0.00  0.00    +0.118 C 
BRANCH  18  19
ATOM     19  C   UNL     1       0.482  -8.510  -0.048  0.00  0.00    +0.125 C 
ATOM     20  C   UNL     1      -0.269  -9.084   1.137  0.00  0.00    +0.123 C 
ATOM     21  N   UNL     1      -1.225  -9.802   0.643  0.00  0.00    -0.161 NA
ATOM     22  N   UNL     1      -1.229  -9.799  -0.748  0.00  0.00    -0.153 NA
ATOM     23  C   UNL     1      -0.263  -9.069  -1.244  0.00  0.00    +0.084 C 
BRANCH  23  24
ATOM     24  C   UNL     1       0.038  -8.837  -2.665  0.00  0.00    -0.001 A 
ATOM     25  C   UNL     1       1.119  -8.027  -3.031  0.00  0.00    +0.011 A 
ATOM     26  C   UNL     1       1.395  -7.814  -4.365  0.00  0.00    +0.020 A 
ATOM     27  C   UNL     1       0.607  -8.400  -5.341  0.00  0.00    +0.041 A 
ATOM     28  C   UNL     1      -0.465  -9.204  -4.986  0.00  0.00    +0.020 A 
ATOM     29  C   UNL     1      -0.750  -9.430  -3.657  0.00  0.00    +0.011 A 
ATOM     30 CL   UNL     1       0.963  -8.127  -7.018  0.00  0.00    -0.084 Cl
ENDBRANCH  23  24
ENDBRANCH  18  19
ENDBRANCH   3  17
TORSDOF 5
