REMARK  Name = ZINC09058750
REMARK  8 active torsions:
REMARK  status: ('A' for Active; 'I' for Inactive)
REMARK    1  A    between atoms: C_1  and  O_2
REMARK    2  A    between atoms: O_2  and  C_3
REMARK    3  A    between atoms: C_13  and  C_17
REMARK    4  A    between atoms: C_18  and  O_34
REMARK    5  A    between atoms: C_20  and  O_33
REMARK    6  A    between atoms: N_21  and  C_24
REMARK    7  A    between atoms: C_24  and  C_25
REMARK    8  A    between atoms: C_25  and  C_26
REMARK                            x       y       z     vdW  Elec       q    Type
REMARK                         _______ _______ _______ _____ _____    ______ ____
ROOT
ATOM      1  C   UNL     1      -4.303   5.077   1.494  0.00  0.00    +0.070 A 
ATOM      2  C   UNL     1      -5.460   4.318   1.495  0.00  0.00    +0.224 A 
ATOM      3  N   UNL     1      -5.378   2.983   1.487  0.00  0.00    -0.161 NA
ATOM      4  C   UNL     1      -4.215   2.372   1.478  0.00  0.00    +0.302 A 
ATOM      5  N   UNL     1      -3.049   3.069   1.476  0.00  0.00    -0.262 N 
ATOM      6  C   UNL     1      -3.067   4.418   1.489  0.00  0.00    +0.262 A 
ATOM      7  O   UNL     1      -2.024   5.053   1.492  0.00  0.00    -0.267 OA
ENDROOT
BRANCH   1  18
ATOM      8  C   UNL     1      -1.675   9.252  -3.219  0.00  0.00    +0.121 A 
ATOM      9  C   UNL     1      -2.351   8.276  -3.940  0.00  0.00    +0.047 A 
ATOM     10  C   UNL     1      -3.166   7.340  -3.329  0.00  0.00    +0.030 A 
ATOM     11  C   UNL     1      -3.288   7.411  -1.943  0.00  0.00    +0.047 A 
ATOM     12  C   UNL     1      -2.599   8.406  -1.204  0.00  0.00    +0.006 A 
ATOM     13  C   UNL     1      -1.779   9.345  -1.839  0.00  0.00    +0.056 A 
ATOM     14  C   UNL     1      -2.949   8.186   0.182  0.00  0.00    -0.022 A 
ATOM     15  C   UNL     1      -3.791   7.124   0.217  0.00  0.00    +0.011 A 
ATOM     16  N   UNL     1      -3.995   6.656  -1.049  0.00  0.00    -0.359 N 
ATOM     17  H   UNL     1      -4.561   5.902  -1.279  0.00  0.00    +0.166 HD
ATOM     18  C   UNL     1      -4.371   6.583   1.502  0.00  0.00    +0.018 C 
ATOM     19  C   UNL     1      -3.456   8.569   2.560  0.00  0.00    -0.076 C 
ATOM     20  C   UNL     1      -2.511   8.944   1.410  0.00  0.00    +0.018 C 
ATOM     21  N   UNL     1      -3.581   7.099   2.641  0.00  0.00    +0.388 N 
ATOM     22  H   UNL     1      -2.644   6.679   2.620  0.00  0.00    -0.084 HD
ATOM     23  H   UNL     1      -4.049   6.848   3.519  0.00  0.00    -0.084 HD
BRANCH   8  25
ATOM     24  C   UNL     1      -0.817  10.006  -5.305  0.00  0.00    +0.277 C 
ATOM     25  O   UNL     1      -0.891  10.142  -3.884  0.00  0.00    -0.495 OA
ENDBRANCH   8  25
ENDBRANCH   1  18
BRANCH   4  26
ATOM     26  O   UNL     1      -4.179   1.024   1.470  0.00  0.00    -0.479 OA
ATOM     27  H   UNL     1      -5.028   0.561   1.472  0.00  0.00    +0.295 HD
ENDBRANCH   4  26
BRANCH   2  28
ATOM     28  O   UNL     1      -6.670   4.925   1.504  0.00  0.00    -0.492 OA
ATOM     29  H   UNL     1      -7.418   4.311   1.504  0.00  0.00    +0.294 HD
ENDBRANCH   2  28
BRANCH   5  30
ATOM     30  C   UNL     1      -1.770   2.354   1.466  0.00  0.00    +0.134 C 
BRANCH  30  31
ATOM     31  C   UNL     1      -1.332   2.113   0.020  0.00  0.00    +0.057 C 
BRANCH  31  32
ATOM     32  C   UNL     1      -0.017   1.378   0.010  0.00  0.00    -0.046 A 
ATOM     33  C   UNL     1       1.170   2.087   0.002  0.00  0.00    +0.006 A 
ATOM     34  C   UNL     1       2.377   1.414  -0.013  0.00  0.00    +0.038 A 
ATOM     35  C   UNL     1       2.397   0.029  -0.021  0.00  0.00    +0.123 A 
ATOM     36  C   UNL     1       1.208  -0.679  -0.014  0.00  0.00    +0.038 A 
ATOM     37  C   UNL     1       0.002  -0.004   0.002  0.00  0.00    +0.006 A 
ATOM     38  F   UNL     1       3.577  -0.630  -0.037  0.00  0.00    -0.205 F 
ENDBRANCH  31  32
ENDBRANCH  30  31
ENDBRANCH   5  30
TORSDOF 7
