REMARK  Name = ZINC62219762
REMARK  8 active torsions:
REMARK  status: ('A' for Active; 'I' for Inactive)
REMARK    1  A    between atoms: C_1  and  C_2
REMARK    2  A    between atoms: C_5  and  C_23
REMARK    3  A    between atoms: C_6  and  N_8
REMARK    4  A    between atoms: C_9  and  C_15
REMARK    5  A    between atoms: C_10  and  C_13
REMARK    6  A    between atoms: C_13  and  O_14
REMARK    7  A    between atoms: C_18  and  O_21
REMARK    8  A    between atoms: O_21  and  C_22
REMARK                            x       y       z     vdW  Elec       q    Type
REMARK                         _______ _______ _______ _____ _____    ______ ____
ROOT
ATOM      1  N   UNL     1       0.177  -2.554   2.377  0.00  0.00    -0.212 N 
ATOM      2  C   UNL     1       0.465  -1.846   3.515  0.00  0.00    +0.100 A 
ATOM      3  C   UNL     1       0.913  -2.752   4.430  0.00  0.00    +0.116 A 
ATOM      4  N   UNL     1       0.900  -3.963   3.877  0.00  0.00    -0.131 NA
ATOM      5  N   UNL     1       0.468  -3.895   2.667  0.00  0.00    -0.060 NA
ENDROOT
BRANCH   1  11
ATOM      6  C   UNL     1      -3.155   0.143  -0.033  0.00  0.00    +0.044 C 
ATOM      7  C   UNL     1      -1.928  -0.732  -0.027  0.00  0.00    -0.048 A 
ATOM      8  C   UNL     1      -1.286  -1.029  -1.216  0.00  0.00    +0.004 A 
ATOM      9  C   UNL     1      -0.160  -1.831  -1.214  0.00  0.00    +0.006 A 
ATOM     10  C   UNL     1       0.327  -2.338  -0.025  0.00  0.00    -0.025 A 
ATOM     11  C   UNL     1      -0.315  -2.041   1.169  0.00  0.00    +0.071 A 
ATOM     12  C   UNL     1      -1.443  -1.231   1.165  0.00  0.00    +0.031 A 
ATOM     13  C   UNL     1       1.554  -3.213  -0.024  0.00  0.00    +0.046 C 
ENDBRANCH   1  11
BRANCH   2  14
ATOM     14  C   UNL     1       0.320  -0.387   3.712  0.00  0.00    +0.003 A 
ATOM     15  C   UNL     1       0.893   0.502   2.801  0.00  0.00    +0.013 A 
ATOM     16  C   UNL     1       0.755   1.861   2.988  0.00  0.00    +0.046 A 
ATOM     17  C   UNL     1       0.048   2.346   4.079  0.00  0.00    +0.120 A 
ATOM     18  C   UNL     1      -0.524   1.464   4.987  0.00  0.00    +0.046 A 
ATOM     19  C   UNL     1      -0.396   0.104   4.804  0.00  0.00    +0.013 A 
BRANCH  17  20
ATOM     20  O   UNL     1      -0.086   3.686   4.260  0.00  0.00    -0.495 OA
ATOM     21  C   UNL     1      -0.827   4.116   5.404  0.00  0.00    +0.277 C 
ENDBRANCH  17  20
ENDBRANCH   2  14
BRANCH   3  22
ATOM     22  C   UNL     1       1.352  -2.435   5.836  0.00  0.00    +0.215 C 
BRANCH  22  23
ATOM     23  O   UNL     1       0.230  -2.519   6.716  0.00  0.00    -0.389 OA
ATOM     24  H   UNL     1       0.439  -2.326   7.640  0.00  0.00    +0.210 HD
ENDBRANCH  22  23
ENDBRANCH   3  22
TORSDOF 5
