REMARK  Name = ZINC13571463
REMARK  3 active torsions:
REMARK  status: ('A' for Active; 'I' for Inactive)
REMARK    1  A    between atoms: C_1  and  C_2
REMARK    2  A    between atoms: C_2  and  C_30
REMARK    3  A    between atoms: C_6  and  C_21
REMARK                            x       y       z     vdW  Elec       q    Type
REMARK                         _______ _______ _______ _____ _____    ______ ____
ROOT
ATOM      1  C   UNL     1      -0.019   1.526   0.010  0.00  0.00    +0.011 C 
ATOM      2  C   UNL     1       0.002  -0.004   0.002  0.00  0.00    -0.023 C 
ATOM      3  C   UNL     1       0.738  -0.501  -1.245  0.00  0.00    +0.058 C 
ATOM      4  C   UNL     1       2.165  -0.021  -1.214  0.00  0.00    +0.020 C 
ATOM      5  C   UNL     1       2.814   0.172  -0.045  0.00  0.00    +0.042 C 
ATOM      6  C   UNL     1       4.247   0.639  -0.039  0.00  0.00    +0.192 C 
ATOM      7  N   UNL     1       4.625   1.211  -1.323  0.00  0.00    -0.241 NA
ATOM      8  C   UNL     1       3.947   1.005  -2.406  0.00  0.00    +0.188 C 
ATOM      9  N   UNL     1       2.811   0.228  -2.397  0.00  0.00    -0.290 N 
ATOM     10  N   UNL     1       4.369   1.574  -3.589  0.00  0.00    -0.241 N 
ATOM     11  C   UNL     1       5.507   2.356  -3.611  0.00  0.00    +0.295 A 
ATOM     12  N   UNL     1       6.259   2.615  -2.573  0.00  0.00    -0.195 NA
ATOM     13  C   UNL     1       7.288   3.413  -2.967  0.00  0.00    +0.111 A 
ATOM     14  C   UNL     1       8.370   3.990  -2.301  0.00  0.00    +0.031 A 
ATOM     15  C   UNL     1       9.265   4.771  -3.000  0.00  0.00    +0.002 A 
ATOM     16  C   UNL     1       9.096   4.987  -4.359  0.00  0.00    +0.004 A 
ATOM     17  C   UNL     1       8.029   4.423  -5.030  0.00  0.00    +0.048 A 
ATOM     18  C   UNL     1       7.120   3.635  -4.343  0.00  0.00    +0.157 A 
ATOM     19  O   UNL     1       6.007   2.957  -4.705  0.00  0.00    -0.424 OA
ATOM     20  C   UNL     1       2.174  -0.055   1.185  0.00  0.00    +0.164 C 
ATOM     21  O   UNL     1       2.786   0.123   2.219  0.00  0.00    -0.292 OA
ATOM     22  C   UNL     1       0.743  -0.515   1.242  0.00  0.00    +0.086 C 
ATOM     23  C   UNL     1      -1.432  -0.537   0.004  0.00  0.00    +0.011 C 
ATOM     24  H   UNL     1       3.867   1.425  -4.405  0.00  0.00    +0.159 HD
ATOM     25  H   UNL     1       2.468  -0.143  -3.225  0.00  0.00    +0.154 HD
ENDROOT
BRANCH   6  26
ATOM     26  C   UNL     1       5.146  -0.533   0.262  0.00  0.00    +0.070 A 
ATOM     27  C   UNL     1       6.176  -0.844  -0.607  0.00  0.00    +0.026 A 
ATOM     28  C   UNL     1       6.998  -1.923  -0.321  0.00  0.00    +0.003 A 
ATOM     29  C   UNL     1       6.752  -2.653   0.832  0.00  0.00    +0.020 A 
ATOM     30  C   UNL     1       5.703  -2.283   1.652  0.00  0.00    +0.111 A 
ATOM     31  N   UNL     1       4.945  -1.246   1.352  0.00  0.00    -0.257 NA
ENDBRANCH   6  26
TORSDOF 1
