REMARK  Name = ZINC35590898
REMARK  11 active torsions:
REMARK  status: ('A' for Active; 'I' for Inactive)
REMARK    1  A    between atoms: C_1  and  C_2
REMARK    2  A    between atoms: N_4  and  C_5
REMARK    3  A    between atoms: C_7  and  O_39
REMARK    4  A    between atoms: C_9  and  O_38
REMARK    5  A    between atoms: C_11  and  C_36
REMARK    6  A    between atoms: C_14  and  N_16
REMARK    7  A    between atoms: N_19  and  C_30
REMARK    8  A    between atoms: C_20  and  C_22
REMARK    9  A    between atoms: C_22  and  O_23
REMARK   10  A    between atoms: O_23  and  C_24
REMARK   11  A    between atoms: C_36  and  O_37
REMARK                            x       y       z     vdW  Elec       q    Type
REMARK                         _______ _______ _______ _____ _____    ______ ____
ROOT
ATOM      1  N   UNL     1       2.090  -2.367  -2.639  0.00  0.00    -0.209 N 
ATOM      2  C   UNL     1       2.621  -1.760  -3.721  0.00  0.00    +0.185 A 
ATOM      3  S   UNL     1       1.920  -1.673  -5.281  0.00  0.00    -0.011 S 
ATOM      4  N   UNL     1       3.804  -1.234  -3.348  0.00  0.00    -0.272 N 
ATOM      5  C   UNL     1       4.005  -1.521  -2.018  0.00  0.00    +0.174 A 
ATOM      6  N   UNL     1       2.988  -2.191  -1.578  0.00  0.00    -0.149 NA
ENDROOT
BRANCH   1  12
ATOM      7  C   UNL     1       0.048  -2.653  -1.322  0.00  0.00    +0.155 C 
ATOM      8  C   UNL     1      -1.263  -3.441  -1.237  0.00  0.00    +0.170 C 
ATOM      9  C   UNL     1      -0.948  -4.939  -1.253  0.00  0.00    +0.176 C 
ATOM     10  C   UNL     1      -0.151  -5.272  -2.517  0.00  0.00    +0.177 C 
ATOM     11  O   UNL     1       1.040  -4.484  -2.549  0.00  0.00    -0.345 OA
ATOM     12  C   UNL     1       0.808  -3.074  -2.583  0.00  0.00    +0.262 C 
BRANCH   7  16
ATOM     13  C   UNL     1      -0.738   0.953  -0.308  0.00  0.00    +0.109 C 
ATOM     14  C   UNL     1      -0.437  -0.522  -0.245  0.00  0.00    +0.210 C 
ATOM     15  O   UNL     1      -0.366  -1.081   0.828  0.00  0.00    -0.276 OA
ATOM     16  N   UNL     1      -0.245  -1.219  -1.383  0.00  0.00    -0.306 N 
ATOM     17  H   UNL     1      -0.302  -0.772  -2.241  0.00  0.00    +0.149 HD
ENDBRANCH   7  16
BRANCH   9  18
ATOM     18  O   UNL     1      -0.177  -5.277  -0.098  0.00  0.00    -0.387 OA
ATOM     19  H   UNL     1       0.059  -6.213  -0.043  0.00  0.00    +0.210 HD
ENDBRANCH   9  18
BRANCH   8  20
ATOM     20  O   UNL     1      -2.091  -3.113  -2.355  0.00  0.00    -0.387 OA
ATOM     21  H   UNL     1      -2.939  -3.576  -2.366  0.00  0.00    +0.210 HD
ENDBRANCH   8  20
BRANCH  10  22
ATOM     22  C   UNL     1       0.220  -6.757  -2.511  0.00  0.00    +0.190 C 
BRANCH  22  23
ATOM     23  O   UNL     1       0.861  -7.093  -3.743  0.00  0.00    -0.392 OA
ATOM     24  H   UNL     1       1.124  -8.021  -3.809  0.00  0.00    +0.210 HD
ENDBRANCH  22  23
ENDBRANCH  10  22
ENDBRANCH   1  12
BRANCH   4  25
ATOM     25  C   UNL     1       4.681  -0.517  -4.173  0.00  0.00    +0.050 A 
ATOM     26  C   UNL     1       4.312   0.728  -4.664  0.00  0.00    +0.026 A 
ATOM     27  C   UNL     1       5.178   1.432  -5.478  0.00  0.00    +0.002 A 
ATOM     28  C   UNL     1       6.411   0.897  -5.804  0.00  0.00    +0.000 A 
ATOM     29  C   UNL     1       6.781  -0.343  -5.317  0.00  0.00    +0.002 A 
ATOM     30  C   UNL     1       5.922  -1.049  -4.498  0.00  0.00    +0.026 A 
ENDBRANCH   4  25
BRANCH   5  31
ATOM     31  C   UNL     1       5.207  -1.115  -1.204  0.00  0.00    +0.305 C 
BRANCH  31  32
ATOM     32  O   UNL     1       5.037  -1.553   0.145  0.00  0.00    -0.484 OA
BRANCH  32  33
ATOM     33  C   UNL     1       6.040  -1.265   1.017  0.00  0.00    +0.121 A 
ATOM     34  C   UNL     1       7.160  -0.571   0.584  0.00  0.00    +0.045 A 
ATOM     35  C   UNL     1       8.177  -0.279   1.472  0.00  0.00    +0.004 A 
ATOM     36  C   UNL     1       8.079  -0.679   2.792  0.00  0.00    +0.000 A 
ATOM     37  C   UNL     1       6.964  -1.372   3.227  0.00  0.00    +0.004 A 
ATOM     38  C   UNL     1       5.941  -1.660   2.344  0.00  0.00    +0.045 A 
ENDBRANCH  32  33
ENDBRANCH  31  32
ENDBRANCH   5  31
TORSDOF 10
