REMARK  Name = ZINC59251029
REMARK  2 active torsions:
REMARK  status: ('A' for Active; 'I' for Inactive)
REMARK    1  A    between atoms: C_4  and  C_7
REMARK    2  A    between atoms: C_10  and  C_15
REMARK                            x       y       z     vdW  Elec       q    Type
REMARK                         _______ _______ _______ _____ _____    ______ ____
ROOT
ATOM      1  C   UNL     1       3.737  -0.653  -0.320  0.00  0.00    +0.049 A 
ATOM      2  C   UNL     1       4.855  -0.074  -0.890  0.00  0.00    +0.027 A 
ATOM      3  C   UNL     1       6.055  -0.774  -0.926  0.00  0.00    +0.020 A 
ATOM      4  C   UNL     1       6.108  -2.059  -0.382  0.00  0.00    +0.101 A 
ATOM      5  C   UNL     1       4.939  -2.616   0.194  0.00  0.00    +0.261 A 
ATOM      6  O   UNL     1       4.970  -3.736   0.673  0.00  0.00    -0.267 OA
ATOM      7  N   UNL     1       3.795  -1.906   0.216  0.00  0.00    -0.321 N 
ATOM      8  H   UNL     1       3.000  -2.293   0.616  0.00  0.00    +0.169 HD
ENDROOT
BRANCH   4   9
ATOM      9  C   UNL     1       7.362  -2.824  -0.406  0.00  0.00    +0.255 C 
ATOM     10  O   UNL     1       8.388  -2.299  -0.795  0.00  0.00    -0.270 OA
ATOM     11  N   UNL     1       7.375  -4.108   0.003  0.00  0.00    -0.266 N 
ATOM     12  C   UNL     1       8.580  -4.797   0.092  0.00  0.00    +0.126 A 
ATOM     13  C   UNL     1       9.775  -4.074   0.199  0.00  0.00    +0.044 A 
ATOM     14  C   UNL     1      10.963  -4.735   0.287  0.00  0.00    +0.013 A 
ATOM     15  C   UNL     1      10.946  -6.145   0.267  0.00  0.00    +0.001 A 
ATOM     16  C   UNL     1      12.133  -6.889   0.354  0.00  0.00    +0.010 A 
ATOM     17  C   UNL     1      12.078  -8.250   0.331  0.00  0.00    +0.001 A 
ATOM     18  C   UNL     1      10.858  -8.913   0.222  0.00  0.00    +0.002 A 
ATOM     19  C   UNL     1       9.688  -8.222   0.135  0.00  0.00    +0.028 A 
ATOM     20  C   UNL     1       9.705  -6.817   0.156  0.00  0.00    +0.073 A 
ATOM     21  N   UNL     1       8.570  -6.114   0.078  0.00  0.00    -0.232 NA
ATOM     22  H   UNL     1       6.545  -4.552   0.236  0.00  0.00    +0.157 HD
ENDBRANCH   4   9
BRANCH   1  26
ATOM     23  C   UNL     1       0.081   1.504  -0.220  0.00  0.00    +0.000 A 
ATOM     24  C   UNL     1       1.202   2.076  -0.794  0.00  0.00    +0.001 A 
ATOM     25  C   UNL     1       2.393   1.381  -0.830  0.00  0.00    +0.010 A 
ATOM     26  C   UNL     1       2.466   0.097  -0.285  0.00  0.00    -0.002 A 
ATOM     27  C   UNL     1       1.329  -0.474   0.293  0.00  0.00    +0.010 A 
ATOM     28  C   UNL     1       0.145   0.232   0.322  0.00  0.00    +0.001 A 
ENDBRANCH   1  26
TORSDOF 2
