REMARK  Name = ZINC60350376
REMARK  8 active torsions:
REMARK  status: ('A' for Active; 'I' for Inactive)
REMARK    1  A    between atoms: C_3  and  S_23
REMARK    2  A    between atoms: C_6  and  O_7
REMARK    3  A    between atoms: O_7  and  C_8
REMARK    4  A    between atoms: C_8  and  C_9
REMARK    5  A    between atoms: C_9  and  N_10
REMARK    6  A    between atoms: C_13  and  C_17
REMARK    7  A    between atoms: C_13  and  C_20
REMARK    8  A    between atoms: S_23  and  N_26
REMARK                            x       y       z     vdW  Elec       q    Type
REMARK                         _______ _______ _______ _____ _____    ______ ____
ROOT
ATOM      1  O   UNL     1      -1.165  -0.701   0.010  0.00  0.00    -0.490 OA
ENDROOT
BRANCH   1   7
ATOM      2  C   UNL     1      -0.017   1.383   0.010  0.00  0.00    +0.047 A 
ATOM      3  C   UNL     1       1.171   2.089   0.002  0.00  0.00    +0.032 A 
ATOM      4  C   UNL     1       2.377   1.414  -0.013  0.00  0.00    +0.106 A 
ATOM      5  C   UNL     1       2.399   0.031  -0.021  0.00  0.00    +0.032 A 
ATOM      6  C   UNL     1       1.214  -0.679  -0.013  0.00  0.00    +0.047 A 
ATOM      7  C   UNL     1       0.002  -0.004   0.002  0.00  0.00    +0.121 A 
BRANCH   4   8
ATOM      8  S   UNL     1       3.890   2.317  -0.023  0.00  0.00    +0.061 S 
ATOM      9  O   UNL     1       4.872   1.459  -0.588  0.00  0.00    -0.153 OA
ATOM     10  O   UNL     1       3.595   3.597  -0.565  0.00  0.00    -0.153 OA
BRANCH   8  11
ATOM     11  N   UNL     1       4.326   2.560   1.556  0.00  0.00    -0.172 NA
ATOM     12  C   UNL     1       3.874   3.751   2.292  0.00  0.00    +0.137 C 
ATOM     13  C   UNL     1       3.264   3.295   3.622  0.00  0.00    +0.177 C 
ATOM     14  O   UNL     1       4.193   2.446   4.299  0.00  0.00    -0.377 OA
ATOM     15  C   UNL     1       4.503   1.240   3.596  0.00  0.00    +0.177 C 
ATOM     16  C   UNL     1       5.172   1.588   2.266  0.00  0.00    +0.137 C 
ENDBRANCH   8  11
ENDBRANCH   4   8
ENDBRANCH   1   7
BRANCH   1  17
ATOM     17  C   UNL     1      -1.069  -2.126   0.001  0.00  0.00    +0.248 C 
BRANCH  17  18
ATOM     18  C   UNL     1      -2.474  -2.732   0.012  0.00  0.00    +0.159 C 
BRANCH  18  19
ATOM     19  N   UNL     1      -3.166  -2.382  -1.231  0.00  0.00    -0.221 N 
ATOM     20  C   UNL     1      -3.914  -1.273  -1.395  0.00  0.00    +0.247 C 
ATOM     21  O   UNL     1      -4.134  -0.410  -0.573  0.00  0.00    -0.273 OA
ATOM     22  C   UNL     1      -4.424  -1.330  -2.822  0.00  0.00    +0.118 C 
ATOM     23  N   UNL     1      -3.850  -2.582  -3.345  0.00  0.00    -0.284 N 
ATOM     24  C   UNL     1      -3.129  -3.121  -2.346  0.00  0.00    +0.309 C 
ATOM     25  O   UNL     1      -2.514  -4.165  -2.443  0.00  0.00    -0.252 OA
ATOM     26  H   UNL     1      -3.967  -2.945  -4.237  0.00  0.00    +0.151 HD
BRANCH  22  27
ATOM     27  C   UNL     1      -3.917  -0.129  -3.623  0.00  0.00    +0.022 C 
ATOM     28  C   UNL     1      -3.219  -0.412  -4.954  0.00  0.00    +0.006 C 
ATOM     29  C   UNL     1      -2.402   0.049  -3.746  0.00  0.00    +0.006 C 
ENDBRANCH  22  27
BRANCH  22  30
ATOM     30  C   UNL     1      -5.953  -1.388  -2.845  0.00  0.00    +0.022 C 
ATOM     31  C   UNL     1      -6.693  -1.045  -1.551  0.00  0.00    +0.006 C 
ATOM     32  C   UNL     1      -6.630  -2.495  -2.035  0.00  0.00    +0.006 C 
ENDBRANCH  22  30
ENDBRANCH  18  19
ENDBRANCH  17  18
ENDBRANCH   1  17
TORSDOF 8
