REMARK  Name = ZINC64660670
REMARK  4 active torsions:
REMARK  status: ('A' for Active; 'I' for Inactive)
REMARK    1  A    between atoms: C_1  and  C_2
REMARK    2  A    between atoms: C_4  and  N_9
REMARK    3  A    between atoms: C_10  and  C_12
REMARK    4  A    between atoms: C_12  and  N_13
REMARK                            x       y       z     vdW  Elec       q    Type
REMARK                         _______ _______ _______ _____ _____    ______ ____
ROOT
ATOM      1  N   UNL     1      -0.240  -6.296  -3.473  0.00  0.00    -0.257 N 
ATOM      2  C   UNL     1      -1.522  -6.868  -3.549  0.00  0.00    +0.058 A 
ATOM      3  C   UNL     1      -2.490  -5.935  -3.871  0.00  0.00    +0.025 A 
ATOM      4  C   UNL     1      -3.813  -6.328  -3.987  0.00  0.00    +0.002 A 
ATOM      5  C   UNL     1      -4.166  -7.648  -3.782  0.00  0.00    +0.002 A 
ATOM      6  C   UNL     1      -3.201  -8.586  -3.460  0.00  0.00    +0.025 A 
ATOM      7  C   UNL     1      -1.876  -8.201  -3.343  0.00  0.00    +0.053 A 
ATOM      8  N   UNL     1      -1.043  -9.279  -3.016  0.00  0.00    -0.316 N 
ATOM      9  C   UNL     1       0.317  -9.295  -2.821  0.00  0.00    +0.016 C 
ATOM     10  C   UNL     1       1.047 -10.577  -2.475  0.00  0.00    +0.051 C 
ATOM     11  C   UNL     1       2.533 -10.285  -2.771  0.00  0.00    +0.011 C 
ATOM     12  C   UNL     1       2.594  -8.752  -2.602  0.00  0.00    +0.042 C 
ATOM     13  C   UNL     1       1.188  -8.267  -2.893  0.00  0.00    +0.032 C 
ATOM     14  H   UNL     1      -1.488 -10.134  -2.912  0.00  0.00    +0.152 HD
ATOM     15  C   UNL     1       0.926  -6.905  -3.194  0.00  0.00    +0.249 C 
ATOM     16  O   UNL     1       1.903  -6.178  -3.194  0.00  0.00    -0.270 OA
ENDROOT
BRANCH   1  17
ATOM     17  C   UNL     1      -0.165  -4.857  -3.736  0.00  0.00    +0.210 C 
BRANCH  17  19
ATOM     18  N   UNL     1      -0.059  -3.362  -5.705  0.00  0.00    -0.284 N 
ATOM     19  C   UNL     1      -0.129  -4.620  -5.224  0.00  0.00    +0.235 C 
ATOM     20  O   UNL     1      -0.164  -5.560  -5.989  0.00  0.00    -0.274 OA
ATOM     21  H   UNL     1       0.041  -2.615  -5.095  0.00  0.00    +0.155 HD
BRANCH  18  25
ATOM     22  C   UNL     1      -1.609  -4.776 -10.152  0.00  0.00    +0.047 C 
ATOM     23  C   UNL     1      -0.876  -3.804  -9.264  0.00  0.00    -0.014 A 
ATOM     24  C   UNL     1      -0.806  -4.030  -7.902  0.00  0.00    +0.029 A 
ATOM     25  C   UNL     1      -0.130  -3.135  -7.085  0.00  0.00    +0.034 A 
ATOM     26  C   UNL     1       0.476  -2.014  -7.637  0.00  0.00    +0.026 A 
ATOM     27  C   UNL     1       0.404  -1.792  -8.998  0.00  0.00    +0.040 A 
ATOM     28  C   UNL     1      -0.267  -2.689  -9.813  0.00  0.00    +0.126 A 
ATOM     29  F   UNL     1      -0.331  -2.472 -11.145  0.00  0.00    -0.205 F 
ENDBRANCH  18  25
ENDBRANCH  17  19
ENDBRANCH   1  17
TORSDOF 3
