REMARK  Name = ZINC60343165
REMARK  13 active torsions:
REMARK  status: ('A' for Active; 'I' for Inactive)
REMARK    1  A    between atoms: C_1  and  C_2
REMARK    2  A    between atoms: C_2  and  C_4
REMARK    3  A    between atoms: C_2  and  N_27
REMARK    4  A    between atoms: N_10  and  C_11
REMARK    5  A    between atoms: C_11  and  C_12
REMARK    6  A    between atoms: C_12  and  C_13
REMARK    7  A    between atoms: N_15  and  C_16
REMARK    8  A    between atoms: C_17  and  C_25
REMARK    9  A    between atoms: C_28  and  O_30
REMARK   10  A    between atoms: O_30  and  C_31
REMARK   11  A    between atoms: C_31  and  C_32
REMARK   12  A    between atoms: C_31  and  C_33
REMARK   13  A    between atoms: C_31  and  C_34
REMARK                            x       y       z     vdW  Elec       q    Type
REMARK                         _______ _______ _______ _____ _____    ______ ____
ROOT
ATOM      1  C   UNL     1       0.742  -0.511   1.242  0.00  0.00    -0.048 C 
ATOM      2  C   UNL     1      -0.043  -0.125   2.497  0.00  0.00    -0.014 C 
ATOM      3  C   UNL     1       0.701  -0.634   3.735  0.00  0.00    -0.003 C 
ATOM      4  C   UNL     1       2.120  -0.059   3.738  0.00  0.00    -0.019 C 
ATOM      5  C   UNL     1       2.825  -0.448   2.436  0.00  0.00    -0.078 C 
ATOM      6  N   UNL     1       2.080   0.091   1.292  0.00  0.00    +0.383 N 
ATOM      7  H   UNL     1       1.993   1.092   1.389  0.00  0.00    -0.081 HD
ENDROOT
BRANCH   1   9
ATOM      8  C   UNL     1      -0.019   1.526   0.010  0.00  0.00    +0.026 C 
ATOM      9  C   UNL     1       0.002  -0.004   0.002  0.00  0.00    +0.060 C 
BRANCH   9  10
ATOM     10  N   UNL     1      -1.372  -0.511   0.012  0.00  0.00    -0.280 N 
ATOM     11  C   UNL     1      -2.051  -0.643  -1.145  0.00  0.00    +0.401 C 
ATOM     12  O   UNL     1      -1.523  -0.341  -2.196  0.00  0.00    -0.226 OA
ATOM     13  H   UNL     1      -1.794  -0.752   0.852  0.00  0.00    +0.152 HD
BRANCH  11  14
ATOM     14  O   UNL     1      -3.314  -1.109  -1.135  0.00  0.00    -0.445 OA
BRANCH  14  15
ATOM     15  C   UNL     1      -3.973  -1.222  -2.398  0.00  0.00    +0.107 C 
ATOM     16  C   UNL     1      -3.189  -2.179  -3.298  0.00  0.00    +0.055 C 
ATOM     17  C   UNL     1      -5.388  -1.765  -2.188  0.00  0.00    +0.055 C 
ATOM     18  C   UNL     1      -4.048   0.155  -3.060  0.00  0.00    +0.055 C 
ENDBRANCH  14  15
ENDBRANCH  11  14
ENDBRANCH   9  10
ENDBRANCH   1   9
BRANCH   6  19
ATOM     19  C   UNL     1       2.801  -0.217   0.051  0.00  0.00    -0.069 C 
BRANCH  19  20
ATOM     20  C   UNL     1       4.146   0.513   0.048  0.00  0.00    +0.077 C 
BRANCH  20  21
ATOM     21  C   UNL     1       4.887   0.197  -1.226  0.00  0.00    +0.216 C 
ATOM     22  O   UNL     1       4.388  -0.540  -2.050  0.00  0.00    -0.276 OA
ATOM     23  N   UNL     1       6.104   0.732  -1.448  0.00  0.00    -0.279 N 
ATOM     24  H   UNL     1       6.503   1.321  -0.789  0.00  0.00    +0.155 HD
BRANCH  23  25
ATOM     25  C   UNL     1       6.786   0.441  -2.622  0.00  0.00    +0.090 A 
ATOM     26  C   UNL     1       8.035   0.891  -3.014  0.00  0.00    +0.084 A 
ATOM     27  C   UNL     1       8.532   0.436  -4.301  0.00  0.00    -0.018 A 
ATOM     28  C   UNL     1       7.686  -0.387  -4.960  0.00  0.00    -0.004 A 
ATOM     29  S   UNL     1       6.288  -0.544  -3.888  0.00  0.00    -0.077 S 
ATOM     30  C   UNL     1       7.907  -1.017  -6.300  0.00  0.00    +0.043 C 
ATOM     31  C   UNL     1       9.074  -0.293  -6.987  0.00  0.00    +0.005 C 
ATOM     32  C   UNL     1      10.236  -0.173  -5.996  0.00  0.00    +0.005 C 
ATOM     33  C   UNL     1       9.878   0.825  -4.893  0.00  0.00    +0.037 C 
BRANCH  26  34
ATOM     34  C   UNL     1       8.805   1.769  -2.186  0.00  0.00    +0.102 C 
ATOM     35  N   UNL     1       9.416   2.466  -1.529  0.00  0.00    -0.191 NA
ENDBRANCH  26  34
ENDBRANCH  23  25
ENDBRANCH  20  21
ENDBRANCH  19  20
ENDBRANCH   6  19
TORSDOF 9
