REMARK  Name = ZINC49542446
REMARK  5 active torsions:
REMARK  status: ('A' for Active; 'I' for Inactive)
REMARK    1  A    between atoms: C_1  and  C_2
REMARK    2  A    between atoms: C_2  and  C_4
REMARK    3  A    between atoms: C_2  and  O_21
REMARK    4  A    between atoms: C_9  and  N_10
REMARK    5  A    between atoms: N_10  and  C_11
REMARK                            x       y       z     vdW  Elec       q    Type
REMARK                         _______ _______ _______ _____ _____    ______ ____
ROOT
ATOM      1  N   UNL     1      -1.507  -0.315  -2.390  0.00  0.00    -0.341 N 
ATOM      2  H   UNL     1      -0.597   0.021  -2.398  0.00  0.00    +0.146 HD
ENDROOT
BRANCH   1   3
ATOM      3  C   UNL     1      -2.247  -0.459  -3.646  0.00  0.00    +0.071 C 
ATOM      4  C   UNL     1      -2.111  -1.895  -4.156  0.00  0.00    +0.027 C 
ATOM      5  C   UNL     1      -2.886  -2.047  -5.466  0.00  0.00    +0.067 C 
ATOM      6  C   UNL     1      -2.324  -1.076  -6.505  0.00  0.00    +0.170 C 
ATOM      7  C   UNL     1      -2.454   0.361  -5.997  0.00  0.00    +0.067 C 
ATOM      8  C   UNL     1      -1.679   0.509  -4.686  0.00  0.00    +0.027 C 
ATOM      9  O   UNL     1      -0.938  -1.376  -6.739  0.00  0.00    -0.346 OA
ATOM     10  C   UNL     1      -0.937  -2.233  -7.906  0.00  0.00    +0.191 C 
ATOM     11  C   UNL     1      -2.092  -1.628  -8.742  0.00  0.00    +0.191 C 
ATOM     12  O   UNL     1      -3.042  -1.218  -7.737  0.00  0.00    -0.346 OA
ENDBRANCH   1   3
BRANCH   1  18
ATOM     13  C   UNL     1      -1.412  -0.526   0.013  0.00  0.00    +0.001 A 
ATOM     14  C   UNL     1      -2.015  -0.864   1.208  0.00  0.00    +0.008 A 
ATOM     15  C   UNL     1      -3.312  -1.343   1.219  0.00  0.00    +0.000 A 
ATOM     16  C   UNL     1      -4.010  -1.485   0.034  0.00  0.00    +0.002 A 
ATOM     17  C   UNL     1      -3.413  -1.148  -1.165  0.00  0.00    +0.023 A 
ATOM     18  C   UNL     1      -2.112  -0.662  -1.179  0.00  0.00    +0.033 A 
BRANCH  13  20
ATOM     19  C   UNL     1      -0.019   1.526   0.010  0.00  0.00    +0.043 C 
ATOM     20  C   UNL     1       0.002  -0.004   0.002  0.00  0.00    +0.143 C 
BRANCH  20  21
ATOM     21  O   UNL     1       0.693  -0.477   1.160  0.00  0.00    -0.387 OA
ATOM     22  H   UNL     1       1.611  -0.180   1.219  0.00  0.00    +0.210 HD
ENDBRANCH  20  21
ENDBRANCH  13  20
ENDBRANCH   1  18
TORSDOF 4
