REMARK  Name = ZINC47759254
REMARK  9 active torsions:
REMARK  status: ('A' for Active; 'I' for Inactive)
REMARK    1  A    between atoms: C_1  and  C_2
REMARK    2  A    between atoms: C_5  and  C_20
REMARK    3  A    between atoms: C_7  and  N_8
REMARK    4  A    between atoms: N_11  and  C_12
REMARK    5  A    between atoms: N_11  and  C_13
REMARK    6  A    between atoms: C_13  and  C_14
REMARK    7  A    between atoms: C_16  and  C_19
REMARK    8  A    between atoms: C_24  and  C_31
REMARK    9  A    between atoms: C_27  and  C_30
REMARK                            x       y       z     vdW  Elec       q    Type
REMARK                         _______ _______ _______ _____ _____    ______ ____
ROOT
ATOM      1  C   UNL     1      -0.038   1.457  -0.020  0.00  0.00    +0.045 C 
ATOM      2  C   UNL     1       0.005  -0.049  -0.003  0.00  0.00    -0.029 A 
ATOM      3  C   UNL     1      -0.340  -0.761  -1.137  0.00  0.00    +0.006 A 
ATOM      4  C   UNL     1      -0.303  -2.141  -1.128  0.00  0.00    +0.013 A 
ATOM      5  C   UNL     1       0.083  -2.822   0.028  0.00  0.00    +0.039 A 
ATOM      6  C   UNL     1       0.431  -2.103   1.171  0.00  0.00    +0.036 A 
ATOM      7  C   UNL     1       0.396  -0.717   1.151  0.00  0.00    +0.038 A 
ENDROOT
BRANCH   5   8
ATOM      8  C   UNL     1       0.122  -4.300   0.040  0.00  0.00    +0.247 C 
ATOM      9  O   UNL     1      -0.281  -4.910   1.010  0.00  0.00    -0.270 OA
ATOM     10  N   UNL     1       0.606  -4.970  -1.025  0.00  0.00    -0.297 N 
ATOM     11  C   UNL     1       1.018  -4.250  -2.238  0.00  0.00    +0.111 C 
ATOM     12  C   UNL     1       2.454  -4.655  -2.587  0.00  0.00    +0.004 C 
ATOM     13  C   UNL     1       2.537  -6.179  -2.701  0.00  0.00    +0.009 C 
ATOM     14  C   UNL     1       2.168  -6.814  -1.358  0.00  0.00    +0.004 C 
ATOM     15  C   UNL     1       0.735  -6.433  -0.993  0.00  0.00    +0.111 C 
ATOM     16  C   UNL     1       3.121  -6.304  -0.274  0.00  0.00    +0.009 C 
ATOM     17  C   UNL     1       2.854  -4.020  -3.920  0.00  0.00    +0.009 C 
ENDBRANCH   5   8
BRANCH   7  18
ATOM     18  N   UNL     1       0.750   0.009   2.294  0.00  0.00    -0.269 N 
ATOM     19  C   UNL     1       0.610  -0.546   3.515  0.00  0.00    +0.307 C 
ATOM     20  O   UNL     1       0.249  -1.703   3.619  0.00  0.00    -0.252 OA
ATOM     21  N   UNL     1       0.869   0.181   4.619  0.00  0.00    -0.283 N 
ATOM     22  C   UNL     1       1.303   1.575   4.494  0.00  0.00    +0.134 C 
ATOM     23  H   UNL     1       1.095   0.911   2.208  0.00  0.00    +0.156 HD
BRANCH  21  24
ATOM     24  C   UNL     1       0.717  -0.422   5.946  0.00  0.00    +0.167 C 
BRANCH  24  25
ATOM     25  C   UNL     1       2.019  -1.054   6.363  0.00  0.00    +0.101 A 
ATOM     26  C   UNL     1       3.010  -0.455   7.162  0.00  0.00    +0.072 A 
ATOM     27  C   UNL     1       4.018  -1.335   7.310  0.00  0.00    +0.135 A 
ATOM     28  O   UNL     1       3.696  -2.451   6.638  0.00  0.00    -0.360 OA
ATOM     29  N   UNL     1       2.423  -2.253   6.051  0.00  0.00    -0.081 NA
ATOM     30  C   UNL     1       5.286  -1.107   8.092  0.00  0.00    +0.089 C 
ENDBRANCH  24  25
ENDBRANCH  21  24
ENDBRANCH   7  18
TORSDOF 4
