REMARK  Name = ZINC18062429
REMARK  7 active torsions:
REMARK  status: ('A' for Active; 'I' for Inactive)
REMARK    1  A    between atoms: C_1  and  C_2
REMARK    2  A    between atoms: C_7  and  C_28
REMARK    3  A    between atoms: C_10  and  C_12
REMARK    4  A    between atoms: C_12  and  S_13
REMARK    5  A    between atoms: S_13  and  C_14
REMARK    6  A    between atoms: C_16  and  N_27
REMARK    7  A    between atoms: C_17  and  C_21
REMARK                            x       y       z     vdW  Elec       q    Type
REMARK                         _______ _______ _______ _____ _____    ______ ____
ROOT
ATOM      1  C   UNL     1       3.176  -0.640   6.284  0.00  0.00    +0.171 A 
ATOM      2  N   UNL     1       3.776  -1.688   5.757  0.00  0.00    -0.208 NA
ATOM      3  C   UNL     1       4.838  -2.247   6.343  0.00  0.00    +0.132 A 
ATOM      4  C   UNL     1       5.328  -1.714   7.542  0.00  0.00    +0.086 A 
ATOM      5  C   UNL     1       4.676  -0.592   8.095  0.00  0.00    +0.262 A 
ATOM      6  O   UNL     1       5.069  -0.096   9.137  0.00  0.00    -0.267 OA
ATOM      7  N   UNL     1       3.611  -0.076   7.445  0.00  0.00    -0.301 N 
ATOM      8  H   UNL     1       3.152   0.698   7.808  0.00  0.00    +0.171 HD
ENDROOT
BRANCH   4   9
ATOM      9  C   UNL     1       6.503  -2.313   8.213  0.00  0.00    -0.009 A 
ATOM     10  C   UNL     1       6.433  -3.611   8.721  0.00  0.00    +0.009 A 
ATOM     11  C   UNL     1       7.532  -4.165   9.345  0.00  0.00    +0.001 A 
ATOM     12  C   UNL     1       8.701  -3.435   9.468  0.00  0.00    +0.000 A 
ATOM     13  C   UNL     1       8.777  -2.148   8.968  0.00  0.00    +0.001 A 
ATOM     14  C   UNL     1       7.687  -1.585   8.336  0.00  0.00    +0.009 A 
ENDBRANCH   4   9
BRANCH   3  15
ATOM     15  N   UNL     1       5.449  -3.343   5.771  0.00  0.00    -0.342 N 
ATOM     16  H   UNL     1       5.107  -3.710   4.941  0.00  0.00    +0.144 HD
ATOM     17  H   UNL     1       6.220  -3.747   6.199  0.00  0.00    +0.144 HD
ENDBRANCH   3  15
BRANCH   1  18
ATOM     18  S   UNL     1       1.779   0.052   5.463  0.00  0.00    -0.078 S 
BRANCH  18  19
ATOM     19  C   UNL     1       1.566  -0.997   3.999  0.00  0.00    +0.173 C 
BRANCH  19  27
ATOM     20  C   UNL     1      -1.208   1.255   1.944  0.00  0.00    +0.028 C 
ATOM     21  C   UNL     1      -0.477   0.261   1.040  0.00  0.00    +0.073 C 
ATOM     22  C   UNL     1       0.368   1.024   0.014  0.00  0.00    +0.022 C 
ATOM     23  C   UNL     1       1.202   0.028  -0.795  0.00  0.00    +0.004 C 
ATOM     24  C   UNL     1       2.147  -0.728   0.142  0.00  0.00    +0.022 C 
ATOM     25  C   UNL     1       1.323  -1.511   1.169  0.00  0.00    +0.073 C 
ATOM     26  N   UNL     1       0.409  -0.584   1.852  0.00  0.00    -0.295 N 
ATOM     27  C   UNL     1       0.388  -0.507   3.197  0.00  0.00    +0.226 C 
ATOM     28  O   UNL     1      -0.580  -0.044   3.763  0.00  0.00    -0.275 OA
ATOM     29  C   UNL     1       2.258  -2.160   2.191  0.00  0.00    +0.028 C 
ENDBRANCH  19  27
ENDBRANCH  18  19
ENDBRANCH   1  18
TORSDOF 5
