REMARK  Name = ZINC22901598
REMARK  9 active torsions:
REMARK  status: ('A' for Active; 'I' for Inactive)
REMARK    1  A    between atoms: C_1  and  C_2
REMARK    2  A    between atoms: C_2  and  C_4
REMARK    3  A    between atoms: C_2  and  N_23
REMARK    4  A    between atoms: N_9  and  C_12
REMARK    5  A    between atoms: C_12  and  C_13
REMARK    6  A    between atoms: C_15  and  C_18
REMARK    7  A    between atoms: N_23  and  S_24
REMARK    8  A    between atoms: S_24  and  C_27
REMARK    9  A    between atoms: C_28  and  C_29
REMARK                            x       y       z     vdW  Elec       q    Type
REMARK                         _______ _______ _______ _____ _____    ______ ____
ROOT
ATOM      1  C   UNL     1      -2.497   1.052  -4.755  0.00  0.00    +0.234 C 
ATOM      2  O   UNL     1      -3.709   1.021  -4.758  0.00  0.00    -0.274 OA
ATOM      3  N   UNL     1      -1.826   1.059  -3.586  0.00  0.00    -0.298 N 
ATOM      4  C   UNL     1      -0.357   0.986  -3.559  0.00  0.00    +0.123 C 
ATOM      5  C   UNL     1       0.057  -0.135  -2.600  0.00  0.00    +0.104 C 
ATOM      6  N   UNL     1      -0.578   0.083  -1.294  0.00  0.00    -0.291 NA
ATOM      7  C   UNL     1      -2.042   0.013  -1.395  0.00  0.00    +0.104 C 
ATOM      8  C   UNL     1      -2.542   1.141  -2.305  0.00  0.00    +0.123 C 
ENDROOT
BRANCH   1  10
ATOM      9  C   UNL     1      -1.267   2.511  -6.339  0.00  0.00    +0.035 C 
ATOM     10  C   UNL     1      -1.741   1.084  -6.059  0.00  0.00    +0.159 C 
BRANCH  10  11
ATOM     11  N   UNL     1      -2.620   0.639  -7.143  0.00  0.00    -0.179 NA
ATOM     12  H   UNL     1      -3.711   0.741  -7.044  0.00  0.00    +0.149 HD
BRANCH  11  13
ATOM     13  S   UNL     1      -2.000  -0.236  -8.405  0.00  0.00    +0.052 S 
ATOM     14  O   UNL     1      -3.090  -0.535  -9.266  0.00  0.00    -0.154 OA
ATOM     15  O   UNL     1      -0.844   0.459  -8.852  0.00  0.00    -0.154 OA
BRANCH  13  16
ATOM     16  C   UNL     1      -1.441  -1.773  -7.747  0.00  0.00    +0.153 C 
ATOM     17  C   UNL     1      -2.027  -2.903  -8.116  0.00  0.00    +0.028 C 
BRANCH  17  18
ATOM     18  C   UNL     1      -1.558  -4.192  -7.565  0.00  0.00    -0.024 A 
ATOM     19  C   UNL     1      -0.495  -4.223  -6.660  0.00  0.00    +0.008 A 
ATOM     20  C   UNL     1      -0.067  -5.428  -6.145  0.00  0.00    +0.001 A 
ATOM     21  C   UNL     1      -0.679  -6.607  -6.532  0.00  0.00    +0.000 A 
ATOM     22  C   UNL     1      -1.730  -6.584  -7.432  0.00  0.00    +0.001 A 
ATOM     23  C   UNL     1      -2.172  -5.384  -7.951  0.00  0.00    +0.008 A 
ENDBRANCH  17  18
ENDBRANCH  13  16
ENDBRANCH  11  13
ENDBRANCH  10  11
ENDBRANCH   1  10
BRANCH   6  24
ATOM     24  C   UNL     1      -0.074  -0.872  -0.297  0.00  0.00    +0.183 C 
BRANCH  24  25
ATOM     25  C   UNL     1      -0.555  -0.469   1.073  0.00  0.00    +0.242 A 
ATOM     26  N   UNL     1      -1.666  -0.852   1.651  0.00  0.00    -0.190 NA
ATOM     27  C   UNL     1      -1.675  -0.244   2.859  0.00  0.00    +0.203 A 
ATOM     28  N   UNL     1      -0.579   0.466   2.942  0.00  0.00    -0.056 NA
ATOM     29  O   UNL     1       0.075   0.342   1.928  0.00  0.00    -0.336 OA
BRANCH  27  30
ATOM     30  C   UNL     1      -2.729  -0.361   3.895  0.00  0.00    +0.029 A 
ATOM     31  C   UNL     1      -2.616   0.316   5.108  0.00  0.00    +0.019 A 
ATOM     32  C   UNL     1      -3.617   0.169   6.005  0.00  0.00    +0.046 A 
ATOM     33  S   UNL     1      -4.727  -0.939   5.157  0.00  0.00    -0.104 S 
ATOM     34  C   UNL     1      -3.831  -1.139   3.687  0.00  0.00    +0.057 A 
ENDBRANCH  27  30
ENDBRANCH  24  25
ENDBRANCH   6  24
TORSDOF 8
