REMARK  Name = ZINC54336768
REMARK  6 active torsions:
REMARK  status: ('A' for Active; 'I' for Inactive)
REMARK    1  A    between atoms: C_1  and  C_2
REMARK    2  A    between atoms: C_6  and  C_20
REMARK    3  A    between atoms: N_12  and  C_13
REMARK    4  A    between atoms: C_13  and  C_14
REMARK    5  A    between atoms: C_14  and  C_16
REMARK    6  A    between atoms: C_14  and  C_17
REMARK                            x       y       z     vdW  Elec       q    Type
REMARK                         _______ _______ _______ _____ _____    ______ ____
ROOT
ATOM      1  C   UNL     1      -0.017   1.526   0.009  0.00  0.00    +0.028 C 
ATOM      2  C   UNL     1       0.001  -0.004   0.003  0.00  0.00    +0.074 C 
ATOM      3  C   UNL     1      -1.429  -0.535   0.148  0.00  0.00    +0.023 C 
ATOM      4  C   UNL     1      -1.392  -2.059   0.282  0.00  0.00    +0.016 C 
ATOM      5  C   UNL     1      -0.604  -2.444   1.536  0.00  0.00    +0.092 C 
ATOM      6  C   UNL     1       0.835  -1.935   1.406  0.00  0.00    +0.122 C 
ATOM      7  N   UNL     1       0.806  -0.492   1.131  0.00  0.00    -0.282 N 
ATOM      8  C   UNL     1       1.502   0.368   1.901  0.00  0.00    +0.302 C 
ATOM      9  O   UNL     1       1.395   1.567   1.723  0.00  0.00    -0.253 OA
ATOM     10  N   UNL     1       2.316  -0.099   2.868  0.00  0.00    -0.298 N 
ATOM     11  H   UNL     1       2.458  -1.054   2.962  0.00  0.00    +0.150 HD
ENDROOT
BRANCH   5  12
ATOM     12  C   UNL     1      -0.596  -3.944   1.684  0.00  0.00    +0.215 C 
ATOM     13  O   UNL     1      -1.165  -4.637   0.867  0.00  0.00    -0.276 OA
ATOM     14  N   UNL     1       0.043  -4.515   2.724  0.00  0.00    -0.329 N 
ATOM     15  H   UNL     1       0.497  -3.961   3.378  0.00  0.00    +0.145 HD
ATOM     16  H   UNL     1       0.048  -5.480   2.820  0.00  0.00    +0.145 HD
ENDBRANCH   5  12
BRANCH  10  17
ATOM     17  C   UNL     1       2.985   0.835   3.777  0.00  0.00    +0.120 C 
BRANCH  17  18
ATOM     18  C   UNL     1       3.843   0.051   4.772  0.00  0.00    +0.116 C 
ATOM     19  C   UNL     1       4.970  -0.662   4.022  0.00  0.00    +0.021 C 
BRANCH  18  20
ATOM     20  C   UNL     1       4.434   1.000   5.783  0.00  0.00    +0.360 C 
ATOM     21  O   UNL     1       4.500   0.677   6.957  0.00  0.00    -0.246 OA
ATOM     22  O   UNL     1       4.845   2.091   5.427  0.00  0.00    -0.246 OA
ENDBRANCH  18  20
ENDBRANCH  17  18
ENDBRANCH  10  17
TORSDOF 4
