REMARK  Name = ZINC63351157
REMARK  7 active torsions:
REMARK  status: ('A' for Active; 'I' for Inactive)
REMARK    1  A    between atoms: C_1  and  C_2
REMARK    2  A    between atoms: N_18  and  C_21
REMARK    3  A    between atoms: C_24  and  C_27
REMARK    4  A    between atoms: N_29  and  C_30
REMARK    5  A    between atoms: C_30  and  C_31
REMARK    6  A    between atoms: C_31  and  O_32
REMARK    7  A    between atoms: O_32  and  C_33
REMARK                            x       y       z     vdW  Elec       q    Type
REMARK                         _______ _______ _______ _____ _____    ______ ____
ROOT
ATOM      1  C   UNL     1      -0.026   1.515  -0.022  0.00  0.00    +0.044 C 
ATOM      2  C   UNL     1       0.005  -0.015  -0.005  0.00  0.00    +0.137 C 
ATOM      3  C   UNL     1       0.745  -0.584  -1.221  0.00  0.00    +0.139 C 
ATOM      4  C   UNL     1       2.232  -0.383  -0.954  0.00  0.00    -0.034 C 
ATOM      5  C   UNL     1       2.701   0.334  -1.971  0.00  0.00    -0.001 A 
ATOM      6  C   UNL     1       4.062   0.788  -2.300  0.00  0.00    +0.010 A 
ATOM      7  C   UNL     1       4.189   1.526  -3.435  0.00  0.00    +0.001 A 
ATOM      8  C   UNL     1       3.111   1.854  -4.263  0.00  0.00    +0.002 A 
ATOM      9  C   UNL     1       1.828   1.474  -4.039  0.00  0.00    +0.026 A 
ATOM     10  C   UNL     1       1.569   0.690  -2.878  0.00  0.00    +0.043 A 
ATOM     11  N   UNL     1       0.444   0.179  -2.435  0.00  0.00    -0.375 N 
ATOM     12  C   UNL     1       2.925  -0.883   0.290  0.00  0.00    +0.052 C 
ATOM     13  C   UNL     1       2.113  -0.374   1.498  0.00  0.00    +0.115 C 
ATOM     14  N   UNL     1       0.688  -0.542   1.198  0.00  0.00    -0.268 N 
ATOM     15  C   UNL     1      -0.236  -1.200   1.910  0.00  0.00    +0.316 C 
ATOM     16  O   UNL     1      -0.029  -1.682   3.006  0.00  0.00    -0.252 OA
ATOM     17  N   UNL     1      -1.414  -1.265   1.276  0.00  0.00    -0.192 N 
ATOM     18  C   UNL     1      -1.383  -0.608   0.098  0.00  0.00    +0.253 C 
ATOM     19  O   UNL     1      -2.281  -0.512  -0.711  0.00  0.00    -0.272 OA
ATOM     20  H   UNL     1      -0.434   0.287  -2.833  0.00  0.00    +0.160 HD
ENDROOT
BRANCH  17  21
ATOM     21  C   UNL     1      -2.538  -1.932   1.773  0.00  0.00    +0.045 A 
ATOM     22  C   UNL     1      -3.752  -1.841   1.101  0.00  0.00    +0.025 A 
ATOM     23  C   UNL     1      -4.861  -2.497   1.588  0.00  0.00    +0.015 A 
ATOM     24  C   UNL     1      -4.764  -3.254   2.759  0.00  0.00    +0.037 A 
ATOM     25  C   UNL     1      -3.543  -3.343   3.431  0.00  0.00    +0.015 A 
ATOM     26  C   UNL     1      -2.437  -2.689   2.935  0.00  0.00    +0.025 A 
BRANCH  24  27
ATOM     27  C   UNL     1      -5.951  -3.958   3.284  0.00  0.00    +0.244 C 
ATOM     28  O   UNL     1      -7.014  -3.879   2.699  0.00  0.00    -0.270 OA
ATOM     29  N   UNL     1      -5.857  -4.687   4.414  0.00  0.00    -0.309 N 
ATOM     30  H   UNL     1      -5.009  -4.750   4.881  0.00  0.00    +0.149 HD
BRANCH  29  31
ATOM     31  C   UNL     1      -7.034  -5.386   4.935  0.00  0.00    +0.132 C 
BRANCH  31  32
ATOM     32  C   UNL     1      -6.658  -6.134   6.216  0.00  0.00    +0.178 C 
BRANCH  32  33
ATOM     33  O   UNL     1      -6.297  -5.192   7.229  0.00  0.00    -0.381 OA
ATOM     34  C   UNL     1      -5.926  -5.790   8.472  0.00  0.00    +0.194 C 
ENDBRANCH  32  33
ENDBRANCH  31  32
ENDBRANCH  29  31
ENDBRANCH  24  27
ENDBRANCH  17  21
TORSDOF 5
