REMARK  Name = ZINC44265874
REMARK  4 active torsions:
REMARK  status: ('A' for Active; 'I' for Inactive)
REMARK    1  A    between atoms: C_4  and  C_8
REMARK    2  A    between atoms: C_8  and  C_9
REMARK    3  A    between atoms: C_11  and  C_14
REMARK    4  A    between atoms: C_15  and  N_19
REMARK                            x       y       z     vdW  Elec       q    Type
REMARK                         _______ _______ _______ _____ _____    ______ ____
ROOT
ATOM      1  C   UNL     1       4.166  -0.960   1.376  0.00  0.00    +0.176 A 
ATOM      2  N   UNL     1       4.924  -0.138   2.103  0.00  0.00    -0.191 NA
ATOM      3  C   UNL     1       5.136  -0.660   3.297  0.00  0.00    +0.267 A 
ATOM      4  O   UNL     1       4.501  -1.847   3.348  0.00  0.00    -0.332 OA
ATOM      5  N   UNL     1       3.874  -2.014   2.086  0.00  0.00    -0.061 NA
ENDROOT
BRANCH   3   6
ATOM      6  C   UNL     1       5.920  -0.056   4.374  0.00  0.00    +0.097 A 
ATOM      7  C   UNL     1       6.188  -0.550   5.648  0.00  0.00    +0.044 A 
ATOM      8  C   UNL     1       6.971   0.263   6.447  0.00  0.00    +0.031 A 
ATOM      9  C   UNL     1       7.410   1.443   5.954  0.00  0.00    +0.048 A 
ATOM     10  S   UNL     1       6.790   1.500   4.394  0.00  0.00    -0.090 S 
BRANCH   7  11
ATOM     11  N   UNL     1       5.699  -1.781   6.089  0.00  0.00    -0.357 N 
ATOM     12  H   UNL     1       5.152  -2.324   5.500  0.00  0.00    +0.142 HD
ATOM     13  H   UNL     1       5.906  -2.092   6.984  0.00  0.00    +0.142 HD
ENDBRANCH   7  11
ENDBRANCH   3   6
BRANCH   1  14
ATOM     14  C   UNL     1       3.713  -0.707  -0.038  0.00  0.00    +0.117 C 
BRANCH  14  18
ATOM     15  C   UNL     1      -0.017   1.378   0.010  0.00  0.00    +0.003 A 
ATOM     16  C   UNL     1       1.171   2.086   0.002  0.00  0.00    +0.020 A 
ATOM     17  C   UNL     1       2.378   1.411  -0.013  0.00  0.00    +0.046 A 
ATOM     18  C   UNL     1       2.398   0.028  -0.021  0.00  0.00    -0.003 A 
ATOM     19  C   UNL     1       1.209  -0.680  -0.013  0.00  0.00    +0.046 A 
ATOM     20  C   UNL     1       0.002  -0.004   0.002  0.00  0.00    +0.020 A 
ATOM     21 CL   UNL     1       1.233  -2.416  -0.023  0.00  0.00    -0.083 Cl
ATOM     22 CL   UNL     1       3.869   2.300  -0.024  0.00  0.00    -0.083 Cl
ENDBRANCH  14  18
ENDBRANCH   1  14
TORSDOF 4
