REMARK  Name = ZINC42709479
REMARK  7 active torsions:
REMARK  status: ('A' for Active; 'I' for Inactive)
REMARK    1  A    between atoms: C_1  and  C_2
REMARK    2  A    between atoms: C_2  and  C_4
REMARK    3  A    between atoms: C_2  and  C_19
REMARK    4  A    between atoms: C_4  and  N_5
REMARK    5  A    between atoms: N_5  and  C_6
REMARK    6  A    between atoms: N_9  and  C_10
REMARK    7  A    between atoms: C_16  and  N_18
REMARK                            x       y       z     vdW  Elec       q    Type
REMARK                         _______ _______ _______ _____ _____    ______ ____
ROOT
ATOM      1  N   UNL     1       2.125  -0.091  -1.209  0.00  0.00    -0.288 N 
ATOM      2  C   UNL     1       3.121  -0.971  -0.594  0.00  0.00    +0.133 C 
ATOM      3  C   UNL     1       2.502   1.093  -1.732  0.00  0.00    +0.302 C 
ATOM      4  O   UNL     1       1.675   1.823  -2.242  0.00  0.00    -0.253 OA
ATOM      5  N   UNL     1       3.796   1.467  -1.688  0.00  0.00    -0.298 N 
ATOM      6  H   UNL     1       4.456   0.884  -1.281  0.00  0.00    +0.150 HD
ENDROOT
BRANCH   5   7
ATOM      7  C   UNL     1       4.207   2.753  -2.256  0.00  0.00    +0.060 C 
ATOM      8  C   UNL     1       4.005   3.857  -1.216  0.00  0.00    +0.021 C 
ATOM      9  C   UNL     1       4.433   5.201  -1.809  0.00  0.00    +0.002 C 
ATOM     10  C   UNL     1       5.910   5.136  -2.204  0.00  0.00    -0.001 C 
ATOM     11  C   UNL     1       6.112   4.032  -3.244  0.00  0.00    -0.014 C 
ATOM     12  C   UNL     1       5.683   2.689  -2.651  0.00  0.00    -0.054 C 
BRANCH  12  13
ATOM     13  N   UNL     1       5.877   1.629  -3.650  0.00  0.00    +0.381 N 
ATOM     14  H   UNL     1       5.319   1.830  -4.466  0.00  0.00    -0.090 HD
ATOM     15  H   UNL     1       6.851   1.586  -3.910  0.00  0.00    -0.090 HD
ATOM     16  H   UNL     1       5.595   0.743  -3.259  0.00  0.00    -0.090 HD
ENDBRANCH  12  13
ENDBRANCH   5   7
BRANCH   1  17
ATOM     17  C   UNL     1       0.718  -0.497  -1.257  0.00  0.00    +0.123 C 
BRANCH  17  19
ATOM     18  C   UNL     1      -0.019   1.526   0.010  0.00  0.00    +0.021 C 
ATOM     19  C   UNL     1       0.002  -0.004   0.002  0.00  0.00    +0.116 C 
BRANCH  19  20
ATOM     20  C   UNL     1      -1.412  -0.526   0.013  0.00  0.00    +0.360 C 
ATOM     21  O   UNL     1      -1.810  -1.227  -0.902  0.00  0.00    -0.246 OA
ATOM     22  O   UNL     1      -2.158  -0.246   0.936  0.00  0.00    -0.246 OA
ENDBRANCH  19  20
ENDBRANCH  17  19
ENDBRANCH   1  17
TORSDOF 5
