REMARK  Name = ZINC55527744
REMARK  8 active torsions:
REMARK  status: ('A' for Active; 'I' for Inactive)
REMARK    1  A    between atoms: C_1  and  C_2
REMARK    2  A    between atoms: C_8  and  N_10
REMARK    3  A    between atoms: N_10  and  C_11
REMARK    4  A    between atoms: C_11  and  N_13
REMARK    5  A    between atoms: N_13  and  N_14
REMARK    6  A    between atoms: C_15  and  C_17
REMARK    7  A    between atoms: N_20  and  S_23
REMARK    8  A    between atoms: S_23  and  C_26
REMARK                            x       y       z     vdW  Elec       q    Type
REMARK                         _______ _______ _______ _____ _____    ______ ____
ROOT
ATOM      1  N   UNL     1      -1.257   0.843   4.663  0.00  0.00    -0.235 N 
ATOM      2  C   UNL     1      -1.888   1.278   5.772  0.00  0.00    +0.232 C 
ATOM      3  O   UNL     1      -1.275   1.396   6.811  0.00  0.00    -0.274 OA
ATOM      4  H   UNL     1      -1.748   0.748   3.831  0.00  0.00    +0.173 HD
ENDROOT
BRANCH   2   5
ATOM      5  C   UNL     1      -3.356   1.616   5.720  0.00  0.00    +0.079 C 
ATOM      6  C   UNL     1      -3.585   2.734   4.700  0.00  0.00    +0.030 C 
ATOM      7  C   UNL     1      -5.082   3.052   4.625  0.00  0.00    +0.110 C 
ATOM      8  N   UNL     1      -5.568   3.359   5.977  0.00  0.00    -0.181 NA
ATOM      9  C   UNL     1      -5.320   2.391   7.054  0.00  0.00    +0.110 C 
ATOM     10  C   UNL     1      -3.821   2.081   7.102  0.00  0.00    +0.030 C 
BRANCH   8  11
ATOM     11  S   UNL     1      -6.381   4.770   6.280  0.00  0.00    +0.029 S 
ATOM     12  O   UNL     1      -6.153   5.030   7.659  0.00  0.00    -0.158 OA
ATOM     13  O   UNL     1      -5.920   5.675   5.287  0.00  0.00    -0.158 OA
ATOM     14  C   UNL     1      -8.128   4.371   6.000  0.00  0.00    +0.215 C 
ENDBRANCH   8  11
ENDBRANCH   2   5
BRANCH   1  15
ATOM     15  N   UNL     1       0.107   0.528   4.711  0.00  0.00    -0.246 N 
ATOM     16  H   UNL     1       0.598   0.623   5.542  0.00  0.00    +0.172 HD
BRANCH  15  17
ATOM     17  C   UNL     1       0.738   0.093   3.602  0.00  0.00    +0.147 C 
ATOM     18  S   UNL     1       2.405  -0.292   3.661  0.00  0.00    -0.017 S 
BRANCH  17  19
ATOM     19  N   UNL     1       0.056  -0.038   2.447  0.00  0.00    -0.322 N 
ATOM     20  H   UNL     1      -0.888   0.180   2.413  0.00  0.00    +0.148 HD
BRANCH  19  27
ATOM     21  C   UNL     1      -0.019   1.526   0.010  0.00  0.00    +0.009 C 
ATOM     22  C   UNL     1       0.002  -0.004   0.002  0.00  0.00    +0.006 C 
ATOM     23  C   UNL     1       0.718  -0.497  -1.257  0.00  0.00    +0.005 C 
ATOM     24  C   UNL     1       0.739  -2.027  -1.265  0.00  0.00    +0.000 C 
ATOM     25  C   UNL     1       1.479  -2.534  -0.026  0.00  0.00    +0.002 C 
ATOM     26  C   UNL     1       0.763  -2.041   1.233  0.00  0.00    +0.022 C 
ATOM     27  C   UNL     1       0.742  -0.511   1.242  0.00  0.00    +0.075 C 
ENDBRANCH  19  27
ENDBRANCH  17  19
ENDBRANCH  15  17
ENDBRANCH   1  15
TORSDOF 6
