REMARK  Name = ZINC66390221
REMARK  10 active torsions:
REMARK  status: ('A' for Active; 'I' for Inactive)
REMARK    1  A    between atoms: C_1  and  C_2
REMARK    2  A    between atoms: C_2  and  C_4
REMARK    3  A    between atoms: C_2  and  N_14
REMARK    4  A    between atoms: N_9  and  C_10
REMARK    5  A    between atoms: C_10  and  C_11
REMARK    6  A    between atoms: C_10  and  C_12
REMARK    7  A    between atoms: C_10  and  C_13
REMARK    8  A    between atoms: N_14  and  C_15
REMARK    9  A    between atoms: C_15  and  C_16
REMARK   10  A    between atoms: C_16  and  C_22
REMARK                            x       y       z     vdW  Elec       q    Type
REMARK                         _______ _______ _______ _____ _____    ______ ____
ROOT
ATOM      1  N   UNL     1       0.663  -0.463   1.282  0.00  0.00    +0.387 N 
ATOM      2  H   UNL     1       0.237   0.075   2.021  0.00  0.00    -0.085 HD
ATOM      3  H   UNL     1       0.600  -1.446   1.502  0.00  0.00    -0.085 HD
ENDROOT
BRANCH   1   5
ATOM      4  C   UNL     1      -0.048   1.307  -0.254  0.00  0.00    -0.004 C 
ATOM      5  C   UNL     1      -0.036  -0.199   0.017  0.00  0.00    +0.013 C 
BRANCH   5   6
ATOM      6  C   UNL     1      -1.453  -0.703   0.112  0.00  0.00    +0.206 C 
ATOM      7  O   UNL     1      -1.842  -1.231   1.132  0.00  0.00    -0.277 OA
ATOM      8  N   UNL     1      -2.288  -0.568  -0.937  0.00  0.00    -0.242 N 
ATOM      9  C   UNL     1      -3.555  -1.019  -0.852  0.00  0.00    +0.306 C 
ATOM     10  O   UNL     1      -3.945  -1.548   0.170  0.00  0.00    -0.252 OA
ATOM     11  N   UNL     1      -4.391  -0.883  -1.901  0.00  0.00    -0.294 N 
ATOM     12  H   UNL     1      -1.977  -0.145  -1.753  0.00  0.00    +0.159 HD
ATOM     13  H   UNL     1      -4.080  -0.461  -2.717  0.00  0.00    +0.151 HD
BRANCH  11  14
ATOM     14  C   UNL     1      -5.768  -1.374  -1.809  0.00  0.00    +0.028 C 
ATOM     15  C   UNL     1      -6.490  -0.656  -0.667  0.00  0.00    +0.031 C 
ATOM     16  C   UNL     1      -6.497  -1.098  -3.126  0.00  0.00    +0.031 C 
ATOM     17  C   UNL     1      -5.756  -2.879  -1.538  0.00  0.00    +0.031 C 
ENDBRANCH  11  14
ENDBRANCH   5   6
ENDBRANCH   1   5
BRANCH   1  18
ATOM     18  C   UNL     1       2.076  -0.081   1.149  0.00  0.00    -0.070 C 
BRANCH  18  19
ATOM     19  C   UNL     1       2.833  -0.480   2.417  0.00  0.00    -0.015 C 
ATOM     20  C   UNL     1       2.139   0.125   3.641  0.00  0.00    +0.038 C 
ATOM     21  C   UNL     1       2.190   1.652   3.544  0.00  0.00    +0.160 C 
ATOM     22  O   UNL     1       3.551   2.076   3.449  0.00  0.00    -0.380 OA
ATOM     23  C   UNL     1       4.238   1.579   2.298  0.00  0.00    +0.160 C 
ATOM     24  C   UNL     1       4.269   0.050   2.345  0.00  0.00    +0.038 C 
BRANCH  19  25
ATOM     25  C   UNL     1       2.856  -1.982   2.539  0.00  0.00    -0.040 A 
ATOM     26  C   UNL     1       2.380  -2.767   1.505  0.00  0.00    +0.004 A 
ATOM     27  C   UNL     1       2.400  -4.144   1.615  0.00  0.00    +0.003 A 
ATOM     28  C   UNL     1       2.895  -4.739   2.760  0.00  0.00    +0.038 A 
ATOM     29  C   UNL     1       3.371  -3.955   3.797  0.00  0.00    +0.124 A 
ATOM     30  C   UNL     1       3.357  -2.575   3.683  0.00  0.00    +0.042 A 
ATOM     31  F   UNL     1       3.855  -4.535   4.917  0.00  0.00    -0.205 F 
ENDBRANCH  19  25
ENDBRANCH  18  19
ENDBRANCH   1  18
TORSDOF 6
