REMARK  Name = ZINC23357637
REMARK  14 active torsions:
REMARK  status: ('A' for Active; 'I' for Inactive)
REMARK    1  A    between atoms: C_1  and  C_2
REMARK    2  A    between atoms: C_2  and  C_3
REMARK    3  A    between atoms: C_2  and  C_4
REMARK    4  A    between atoms: C_4  and  C_5
REMARK    5  A    between atoms: C_5  and  N_6
REMARK    6  A    between atoms: N_6  and  C_7
REMARK    7  A    between atoms: N_6  and  C_19
REMARK    8  A    between atoms: C_7  and  C_8
REMARK    9  A    between atoms: N_10  and  C_11
REMARK   10  A    between atoms: C_16  and  O_17
REMARK   11  A    between atoms: O_17  and  C_18
REMARK   12  A    between atoms: C_20  and  N_35
REMARK   13  A    between atoms: N_21  and  C_28
REMARK   14  A    between atoms: C_28  and  C_29
REMARK                            x       y       z     vdW  Elec       q    Type
REMARK                         _______ _______ _______ _____ _____    ______ ____
ROOT
ATOM      1  N   UNL     1       2.384   3.708   0.018  0.00  0.00    -0.314 N 
ENDROOT
BRANCH   1   2
ATOM      2  C   UNL     1       1.096   3.126  -0.021  0.00  0.00    +0.134 A 
ATOM      3  C   UNL     1      -0.021   3.899   0.149  0.00  0.00    +0.127 A 
ATOM      4  N   UNL     1      -1.263   3.309   0.107  0.00  0.00    -0.276 N 
ATOM      5  C   UNL     1      -1.381   1.985  -0.106  0.00  0.00    +0.331 A 
ATOM      6  O   UNL     1      -2.487   1.482  -0.146  0.00  0.00    -0.246 OA
ATOM      7  N   UNL     1      -0.294   1.210  -0.270  0.00  0.00    -0.273 N 
ATOM      8  H   UNL     1      -0.410   0.128  -0.434  0.00  0.00    +0.173 HD
ATOM      9  C   UNL     1       0.942   1.745  -0.236  0.00  0.00    +0.277 A 
ATOM     10  O   UNL     1       1.922   1.035  -0.391  0.00  0.00    -0.266 OA
BRANCH   3  11
ATOM     11  N   UNL     1       0.098   5.253   0.362  0.00  0.00    -0.343 N 
ATOM     12  H   UNL     1      -0.803   5.870   0.499  0.00  0.00    +0.144 HD
ATOM     13  H   UNL     1       1.094   5.720   0.396  0.00  0.00    +0.144 HD
ENDBRANCH   3  11
BRANCH   4  14
ATOM     14  C   UNL     1      -2.465   4.127   0.288  0.00  0.00    +0.163 C 
BRANCH  14  15
ATOM     15  C   UNL     1      -2.935   4.632  -1.051  0.00  0.00    -0.028 A 
ATOM     16  C   UNL     1      -2.473   5.841  -1.536  0.00  0.00    +0.005 A 
ATOM     17  C   UNL     1      -2.901   6.303  -2.766  0.00  0.00    +0.000 A 
ATOM     18  C   UNL     1      -3.799   5.560  -3.509  0.00  0.00    +0.000 A 
ATOM     19  C   UNL     1      -4.266   4.353  -3.022  0.00  0.00    +0.000 A 
ATOM     20  C   UNL     1      -3.834   3.889  -1.794  0.00  0.00    +0.005 A 
ENDBRANCH  14  15
ENDBRANCH   4  14
ENDBRANCH   1   2
BRANCH   1  21
ATOM     21  C   UNL     1       3.195   3.121   1.093  0.00  0.00    +0.106 C 
BRANCH  21  22
ATOM     22  C   UNL     1       2.741   3.686   2.441  0.00  0.00    +0.022 C 
BRANCH  22  24
ATOM     23  C   UNL     1       5.071   3.692   3.343  0.00  0.00    +0.007 C 
ATOM     24  C   UNL     1       3.652   3.157   3.549  0.00  0.00    -0.016 C 
ATOM     25  C   UNL     1       3.125   3.621   4.908  0.00  0.00    +0.007 C 
ENDBRANCH  22  24
ENDBRANCH  21  22
ENDBRANCH   1  21
BRANCH   1  26
ATOM     26  C   UNL     1       3.060   3.579  -1.280  0.00  0.00    +0.201 C 
BRANCH  26  27
ATOM     27  C   UNL     1       4.223   4.535  -1.339  0.00  0.00    +0.235 C 
ATOM     28  O   UNL     1       4.402   5.327  -0.439  0.00  0.00    -0.274 OA
ATOM     29  N   UNL     1       5.065   4.508  -2.391  0.00  0.00    -0.281 N 
ATOM     30  H   UNL     1       4.856   3.849  -3.246  0.00  0.00    +0.155 HD
BRANCH  29  31
ATOM     31  C   UNL     1       6.206   5.321  -2.395  0.00  0.00    +0.076 A 
ATOM     32  C   UNL     1       6.216   6.511  -1.683  0.00  0.00    +0.027 A 
ATOM     33  C   UNL     1       7.345   7.308  -1.685  0.00  0.00    +0.002 A 
ATOM     34  C   UNL     1       8.463   6.928  -2.404  0.00  0.00    +0.004 A 
ATOM     35  C   UNL     1       8.459   5.746  -3.121  0.00  0.00    +0.047 A 
ATOM     36  C   UNL     1       7.333   4.938  -3.120  0.00  0.00    +0.141 A 
BRANCH  36  37
ATOM     37  O   UNL     1       7.327   3.776  -3.825  0.00  0.00    -0.493 OA
ATOM     38  C   UNL     1       8.518   3.448  -4.545  0.00  0.00    +0.277 C 
ENDBRANCH  36  37
ENDBRANCH  29  31
ENDBRANCH  26  27
ENDBRANCH   1  26
TORSDOF 11
