REMARK  Name = ZINC44221112
REMARK  12 active torsions:
REMARK  status: ('A' for Active; 'I' for Inactive)
REMARK    1  A    between atoms: C_1  and  C_2
REMARK    2  A    between atoms: C_2  and  C_4
REMARK    3  A    between atoms: C_2  and  N_18
REMARK    4  A    between atoms: N_6  and  C_7
REMARK    5  A    between atoms: C_10  and  C_13
REMARK    6  A    between atoms: C_13  and  S_14
REMARK    7  A    between atoms: S_14  and  N_17
REMARK    8  A    between atoms: C_19  and  O_21
REMARK    9  A    between atoms: O_21  and  C_22
REMARK   10  A    between atoms: C_22  and  C_23
REMARK   11  A    between atoms: C_22  and  C_24
REMARK   12  A    between atoms: C_22  and  C_25
REMARK                            x       y       z     vdW  Elec       q    Type
REMARK                         _______ _______ _______ _____ _____    ______ ____
ROOT
ATOM      1  C   UNL     1       0.730  -0.502   1.224  0.00  0.00    +0.237 C 
ATOM      2  O   UNL     1       0.156  -1.205   2.028  0.00  0.00    -0.273 OA
ATOM      3  N   UNL     1       2.019  -0.161   1.426  0.00  0.00    -0.284 N 
ATOM      4  H   UNL     1       2.498   0.344   0.751  0.00  0.00    +0.155 HD
ENDROOT
BRANCH   3   5
ATOM      5  C   UNL     1       2.664  -0.537   2.609  0.00  0.00    +0.033 A 
ATOM      6  C   UNL     1       3.602   0.308   3.188  0.00  0.00    +0.023 A 
ATOM      7  C   UNL     1       4.238  -0.066   4.356  0.00  0.00    +0.007 A 
ATOM      8  C   UNL     1       3.941  -1.280   4.949  0.00  0.00    -0.025 A 
ATOM      9  C   UNL     1       3.008  -2.123   4.374  0.00  0.00    +0.007 A 
ATOM     10  C   UNL     1       2.364  -1.752   3.210  0.00  0.00    +0.023 A 
BRANCH   8  11
ATOM     11  C   UNL     1       4.636  -1.684   6.223  0.00  0.00    +0.219 C 
BRANCH  11  12
ATOM     12  S   UNL     1       3.678  -1.098   7.647  0.00  0.00    +0.031 S 
ATOM     13  O   UNL     1       3.711   0.321   7.709  0.00  0.00    -0.158 OA
ATOM     14  O   UNL     1       2.444  -1.798   7.728  0.00  0.00    -0.158 OA
BRANCH  12  15
ATOM     15  N   UNL     1       4.535  -1.599   8.973  0.00  0.00    -0.208 NA
ATOM     16  H   UNL     1       4.504  -1.083   9.794  0.00  0.00    +0.144 HD
ATOM     17  H   UNL     1       5.068  -2.408   8.928  0.00  0.00    +0.144 HD
ENDBRANCH  12  15
ENDBRANCH  11  12
ENDBRANCH   8  11
ENDBRANCH   3   5
BRANCH   1  19
ATOM     18  C   UNL     1      -0.013   1.521  -0.004  0.00  0.00    +0.038 C 
ATOM     19  C   UNL     1       0.004  -0.009  -0.002  0.00  0.00    +0.159 C 
BRANCH  19  20
ATOM     20  N   UNL     1      -1.371  -0.513   0.011  0.00  0.00    -0.270 N 
ATOM     21  C   UNL     1      -2.049  -0.651  -1.146  0.00  0.00    +0.401 C 
ATOM     22  O   UNL     1      -1.519  -0.358  -2.200  0.00  0.00    -0.226 OA
ATOM     23  H   UNL     1      -1.795  -0.748   0.851  0.00  0.00    +0.153 HD
BRANCH  21  24
ATOM     24  O   UNL     1      -3.313  -1.114  -1.135  0.00  0.00    -0.445 OA
BRANCH  24  25
ATOM     25  C   UNL     1      -3.971  -1.235  -2.398  0.00  0.00    +0.107 C 
ATOM     26  C   UNL     1      -3.188  -2.200  -3.291  0.00  0.00    +0.055 C 
ATOM     27  C   UNL     1      -5.387  -1.773  -2.186  0.00  0.00    +0.055 C 
ATOM     28  C   UNL     1      -4.042   0.138  -3.069  0.00  0.00    +0.055 C 
ENDBRANCH  24  25
ENDBRANCH  21  24
ENDBRANCH  19  20
ENDBRANCH   1  19
TORSDOF 8
