REMARK  Name = ZINC41638414
REMARK  9 active torsions:
REMARK  status: ('A' for Active; 'I' for Inactive)
REMARK    1  A    between atoms: C_1  and  C_2
REMARK    2  A    between atoms: C_5  and  C_29
REMARK    3  A    between atoms: N_6  and  C_7
REMARK    4  A    between atoms: C_11  and  N_13
REMARK    5  A    between atoms: C_14  and  C_16
REMARK    6  A    between atoms: N_18  and  C_19
REMARK    7  A    between atoms: C_19  and  C_20
REMARK    8  A    between atoms: N_26  and  C_27
REMARK    9  A    between atoms: N_26  and  C_28
REMARK                            x       y       z     vdW  Elec       q    Type
REMARK                         _______ _______ _______ _____ _____    ______ ____
ROOT
ATOM      1  N   UNL     1      -2.117  -0.516   5.423  0.00  0.00    -0.278 N 
ATOM      2  C   UNL     1      -2.063  -0.183   6.728  0.00  0.00    +0.303 C 
ATOM      3  O   UNL     1      -1.116   0.445   7.156  0.00  0.00    -0.265 OA
ATOM      4  H   UNL     1      -2.903  -0.959   5.068  0.00  0.00    +0.155 HD
ENDROOT
BRANCH   1   9
ATOM      5  C   UNL     1       0.362  -0.796   2.719  0.00  0.00    +0.048 A 
ATOM      6  C   UNL     1       1.096   0.366   2.919  0.00  0.00    +0.026 A 
ATOM      7  C   UNL     1       0.763   1.228   3.945  0.00  0.00    +0.004 A 
ATOM      8  C   UNL     1      -0.302   0.938   4.777  0.00  0.00    +0.023 A 
ATOM      9  C   UNL     1      -1.040  -0.223   4.582  0.00  0.00    +0.036 A 
ATOM     10  C   UNL     1      -0.711  -1.088   3.548  0.00  0.00    +0.049 A 
BRANCH   5  16
ATOM     11  C   UNL     1       0.181  -0.079  -0.258  0.00  0.00    +0.064 C 
ATOM     12  C   UNL     1       0.633  -1.385   0.343  0.00  0.00    +0.021 A 
ATOM     13  C   UNL     1       1.046  -2.470  -0.342  0.00  0.00    +0.023 A 
ATOM     14  C   UNL     1       1.375  -3.465   0.600  0.00  0.00    +0.023 A 
ATOM     15  C   UNL     1       1.152  -2.951   1.827  0.00  0.00    +0.021 A 
ATOM     16  N   UNL     1       0.702  -1.671   1.677  0.00  0.00    -0.318 N 
ATOM     17  C   UNL     1       1.369  -3.664   3.136  0.00  0.00    +0.064 C 
ENDBRANCH   5  16
ENDBRANCH   1   9
BRANCH   2  18
ATOM     18  C   UNL     1      -3.167  -0.587   7.649  0.00  0.00    +0.300 C 
ATOM     19  O   UNL     1      -4.114  -1.215   7.221  0.00  0.00    -0.265 OA
ATOM     20  N   UNL     1      -3.113  -0.255   8.953  0.00  0.00    -0.303 N 
ATOM     21  H   UNL     1      -2.357   0.247   9.295  0.00  0.00    +0.149 HD
BRANCH  20  22
ATOM     22  C   UNL     1      -4.197  -0.651   9.856  0.00  0.00    +0.141 C 
BRANCH  22  23
ATOM     23  C   UNL     1      -3.896  -0.160  11.249  0.00  0.00    -0.014 A 
ATOM     24  C   UNL     1      -3.178  -0.955  12.133  0.00  0.00    +0.010 A 
ATOM     25  C   UNL     1      -2.922  -0.467  13.401  0.00  0.00    +0.042 A 
ATOM     26  C   UNL     1      -3.391   0.797  13.747  0.00  0.00    +0.098 A 
ATOM     27  N   UNL     1      -4.073   1.524  12.876  0.00  0.00    -0.349 N 
ATOM     28  C   UNL     1      -4.326   1.086  11.657  0.00  0.00    +0.089 A 
ATOM     29  N   UNL     1      -3.143   1.299  15.019  0.00  0.00    -0.323 N 
ATOM     30  C   UNL     1      -2.298   0.549  15.951  0.00  0.00    +0.130 C 
ATOM     31  C   UNL     1      -3.726   2.580  15.427  0.00  0.00    +0.130 C 
ATOM     32  H   UNL     1      -4.390   2.402  13.138  0.00  0.00    +0.167 HD
ENDBRANCH  22  23
ENDBRANCH  20  22
ENDBRANCH   2  18
TORSDOF 5
