REMARK  Name = ZINC35599736
REMARK  7 active torsions:
REMARK  status: ('A' for Active; 'I' for Inactive)
REMARK    1  A    between atoms: C_1  and  C_2
REMARK    2  A    between atoms: C_2  and  C_4
REMARK    3  A    between atoms: C_2  and  N_6
REMARK    4  A    between atoms: C_4  and  O_5
REMARK    5  A    between atoms: N_6  and  S_7
REMARK    6  A    between atoms: S_7  and  C_10
REMARK    7  A    between atoms: C_13  and  N_17
REMARK                            x       y       z     vdW  Elec       q    Type
REMARK                         _______ _______ _______ _____ _____    ______ ____
ROOT
ATOM      1  C   UNL     1      -1.137  -2.294   2.137  0.00  0.00    +0.142 A 
ATOM      2  C   UNL     1      -2.415  -2.105   1.639  0.00  0.00    +0.070 A 
ATOM      3  C   UNL     1      -3.200  -3.195   1.315  0.00  0.00    +0.044 A 
ATOM      4  C   UNL     1      -2.707  -4.481   1.490  0.00  0.00    +0.027 A 
ATOM      5  C   UNL     1      -1.424  -4.669   1.989  0.00  0.00    +0.044 A 
ATOM      6  C   UNL     1      -0.641  -3.575   2.307  0.00  0.00    +0.070 A 
ATOM      7 CL   UNL     1       0.964  -3.808   2.925  0.00  0.00    -0.081 Cl
ATOM      8 CL   UNL     1      -3.031  -0.496   1.421  0.00  0.00    -0.081 Cl
ENDROOT
BRANCH   1   9
ATOM      9  S   UNL     1      -0.139  -0.902   2.549  0.00  0.00    +0.061 S 
ATOM     10  O   UNL     1       0.814  -1.354   3.502  0.00  0.00    -0.153 OA
ATOM     11  O   UNL     1      -1.030   0.173   2.814  0.00  0.00    -0.153 OA
BRANCH   9  12
ATOM     12  N   UNL     1       0.711  -0.489   1.189  0.00  0.00    -0.185 NA
ATOM     13  H   UNL     1       1.677  -0.569   1.178  0.00  0.00    +0.148 HD
BRANCH  12  15
ATOM     14  C   UNL     1      -0.019   1.526   0.010  0.00  0.00    +0.028 C 
ATOM     15  C   UNL     1       0.002  -0.004   0.002  0.00  0.00    +0.099 C 
BRANCH  15  16
ATOM     16  C   UNL     1       0.718  -0.497  -1.257  0.00  0.00    +0.175 C 
BRANCH  16  17
ATOM     17  O   UNL     1       2.019   0.090  -1.326  0.00  0.00    -0.393 OA
ATOM     18  H   UNL     1       2.531  -0.178  -2.101  0.00  0.00    +0.209 HD
ENDBRANCH  16  17
ENDBRANCH  15  16
ENDBRANCH  12  15
ENDBRANCH   9  12
ENDBRANCH   1   9
BRANCH   4  19
ATOM     19  N   UNL     1      -3.498  -5.585   1.164  0.00  0.00    -0.358 N 
ATOM     20  H   UNL     1      -4.394  -5.453   0.815  0.00  0.00    +0.142 HD
ATOM     21  H   UNL     1      -3.153  -6.483   1.286  0.00  0.00    +0.142 HD
ENDBRANCH   4  19
TORSDOF 6
