REMARK  Name = ZINC39844146
REMARK  9 active torsions:
REMARK  status: ('A' for Active; 'I' for Inactive)
REMARK    1  A    between atoms: C_1  and  C_2
REMARK    2  A    between atoms: C_5  and  S_8
REMARK    3  A    between atoms: S_8  and  C_11
REMARK    4  A    between atoms: C_12  and  N_23
REMARK    5  A    between atoms: C_14  and  C_16
REMARK    6  A    between atoms: N_23  and  C_24
REMARK    7  A    between atoms: C_24  and  C_25
REMARK    8  A    between atoms: C_25  and  C_26
REMARK    9  A    between atoms: C_25  and  C_27
REMARK                            x       y       z     vdW  Elec       q    Type
REMARK                         _______ _______ _______ _____ _____    ______ ____
ROOT
ATOM      1  C   UNL     1       1.752  -5.029  -0.035  0.00  0.00    +0.243 A 
ATOM      2  C   UNL     1       2.514  -5.245  -1.135  0.00  0.00    +0.233 A 
ATOM      3  O   UNL     1       3.739  -5.610  -0.705  0.00  0.00    -0.420 OA
ATOM      4  C   UNL     1       3.714  -5.615   0.642  0.00  0.00    +0.231 A 
ATOM      5  N   UNL     1       2.517  -5.259   1.043  0.00  0.00    -0.188 NA
ENDROOT
BRANCH   4   6
ATOM      6  C   UNL     1       4.850  -5.959   1.522  0.00  0.00    +0.037 A 
ATOM      7  C   UNL     1       4.694  -5.932   2.910  0.00  0.00    +0.016 A 
ATOM      8  C   UNL     1       5.758  -6.253   3.727  0.00  0.00    +0.039 A 
ATOM      9  C   UNL     1       6.980  -6.602   3.173  0.00  0.00    +0.123 A 
ATOM     10  C   UNL     1       7.140  -6.630   1.796  0.00  0.00    +0.039 A 
ATOM     11  C   UNL     1       6.081  -6.317   0.970  0.00  0.00    +0.016 A 
ATOM     12  F   UNL     1       8.018  -6.916   3.978  0.00  0.00    -0.205 F 
ENDBRANCH   4   6
BRANCH   1  13
ATOM     13  S   UNL     1       0.063  -4.530  -0.023  0.00  0.00    +0.047 S 
ATOM     14  O   UNL     1      -0.476  -4.950   1.223  0.00  0.00    -0.163 OA
ATOM     15  O   UNL     1      -0.490  -4.937  -1.267  0.00  0.00    -0.163 OA
BRANCH  13  20
ATOM     16  C   UNL     1      -0.018   1.503   0.010  0.00  0.00    +0.044 C 
ATOM     17  C   UNL     1       0.002  -0.004   0.002  0.00  0.00    -0.050 A 
ATOM     18  C   UNL     1       0.006  -0.689  -1.199  0.00  0.00    +0.005 A 
ATOM     19  C   UNL     1       0.025  -2.071  -1.206  0.00  0.00    +0.028 A 
ATOM     20  C   UNL     1       0.040  -2.768  -0.013  0.00  0.00    +0.095 A 
ATOM     21  C   UNL     1       0.037  -2.084   1.188  0.00  0.00    +0.028 A 
ATOM     22  C   UNL     1       0.023  -0.702   1.195  0.00  0.00    +0.005 A 
ENDBRANCH  13  20
ENDBRANCH   1  13
BRANCH   2  23
ATOM     23  N   UNL     1       2.109  -5.113  -2.459  0.00  0.00    -0.312 N 
ATOM     24  H   UNL     1       1.200  -4.843  -2.663  0.00  0.00    +0.149 HD
BRANCH  23  25
ATOM     25  C   UNL     1       3.055  -5.383  -3.545  0.00  0.00    +0.107 C 
BRANCH  25  26
ATOM     26  C   UNL     1       2.361  -5.167  -4.891  0.00  0.00    -0.000 C 
ATOM     27  C   UNL     1       1.985  -3.691  -5.039  0.00  0.00    +0.009 C 
ATOM     28  C   UNL     1       3.309  -5.567  -6.023  0.00  0.00    +0.009 C 
ENDBRANCH  25  26
ENDBRANCH  23  25
ENDBRANCH   2  23
TORSDOF 6
