REMARK  Name = ZINC21050550
REMARK  5 active torsions:
REMARK  status: ('A' for Active; 'I' for Inactive)
REMARK    1  A    between atoms: C_1  and  C_2
REMARK    2  A    between atoms: C_2  and  O_3
REMARK    3  A    between atoms: O_3  and  C_4
REMARK    4  A    between atoms: C_7  and  N_10
REMARK    5  A    between atoms: C_11  and  C_13
REMARK                            x       y       z     vdW  Elec       q    Type
REMARK                         _______ _______ _______ _____ _____    ______ ____
ROOT
ATOM      1  C   UNL     1      -1.169   2.312   0.172  0.00  0.00    +0.247 C 
ATOM      2  N   UNL     1      -0.854   3.682   0.570  0.00  0.00    -0.319 N 
ATOM      3  C   UNL     1      -0.128   4.562  -0.228  0.00  0.00    +0.055 A 
ATOM      4  C   UNL     1       0.494   5.655   0.372  0.00  0.00    +0.025 A 
ATOM      5  C   UNL     1       1.192   6.565  -0.395  0.00  0.00    +0.002 A 
ATOM      6  C   UNL     1       1.281   6.398  -1.765  0.00  0.00    +0.002 A 
ATOM      7  C   UNL     1       0.674   5.311  -2.367  0.00  0.00    +0.030 A 
ATOM      8  C   UNL     1      -0.022   4.398  -1.603  0.00  0.00    +0.126 A 
ATOM      9  S   UNL     1      -0.787   3.004  -2.375  0.00  0.00    +0.062 S 
ATOM     10  O   UNL     1       0.243   2.067  -2.655  0.00  0.00    -0.153 OA
ATOM     11  O   UNL     1      -1.659   3.511  -3.376  0.00  0.00    -0.153 OA
ATOM     12  N   UNL     1      -1.747   2.334  -1.187  0.00  0.00    -0.161 NA
ATOM     13  H   UNL     1      -1.195   4.065   1.543  0.00  0.00    +0.148 HD
ATOM     14  H   UNL     1      -2.674   1.782  -1.399  0.00  0.00    +0.151 HD
ENDROOT
BRANCH   1  16
ATOM     15  N   UNL     1       0.012   0.140   0.092  0.00  0.00    -0.283 N 
ATOM     16  C   UNL     1       0.089   1.483   0.173  0.00  0.00    +0.254 C 
ATOM     17  O   UNL     1       1.172   2.025   0.242  0.00  0.00    -0.272 OA
ATOM     18  H   UNL     1      -0.969  -0.357   0.115  0.00  0.00    +0.155 HD
BRANCH  15  22
ATOM     19  C   UNL     1       3.492  -2.133  -0.246  0.00  0.00    +0.121 A 
ATOM     20  C   UNL     1       2.397  -2.639   0.439  0.00  0.00    +0.047 A 
ATOM     21  C   UNL     1       1.244  -1.887   0.551  0.00  0.00    +0.027 A 
ATOM     22  C   UNL     1       1.181  -0.624  -0.021  0.00  0.00    +0.034 A 
ATOM     23  C   UNL     1       2.276  -0.120  -0.711  0.00  0.00    +0.027 A 
ATOM     24  C   UNL     1       3.430  -0.871  -0.818  0.00  0.00    +0.047 A 
BRANCH  19  25
ATOM     25  O   UNL     1       4.626  -2.874  -0.356  0.00  0.00    -0.492 OA
BRANCH  25  27
ATOM     26  C   UNL     1       6.895  -3.265  -1.093  0.00  0.00    +0.048 C 
ATOM     27  C   UNL     1       5.715  -2.290  -1.074  0.00  0.00    +0.225 C 
ENDBRANCH  25  27
ENDBRANCH  19  25
ENDBRANCH  15  22
ENDBRANCH   1  16
TORSDOF 4
