REMARK  Name = ZINC00630883
REMARK  5 active torsions:
REMARK  status: ('A' for Active; 'I' for Inactive)
REMARK    1  A    between atoms: C_1  and  C_2
REMARK    2  A    between atoms: C_7  and  C_8
REMARK    3  A    between atoms: C_12  and  C_15
REMARK    4  A    between atoms: C_28  and  C_30
REMARK    5  A    between atoms: C_28  and  C_31
REMARK                            x       y       z     vdW  Elec       q    Type
REMARK                         _______ _______ _______ _____ _____    ______ ____
ROOT
ATOM      1  C   UNL     1      -1.799   1.573  -5.062  0.00  0.00    +0.044 C 
ATOM      2  C   UNL     1      -1.727   3.033  -4.694  0.00  0.00    -0.046 A 
ATOM      3  C   UNL     1      -2.716   3.593  -3.905  0.00  0.00    +0.028 A 
ATOM      4  C   UNL     1      -2.642   4.936  -3.570  0.00  0.00    +0.050 A 
ATOM      5  C   UNL     1      -1.604   5.716  -4.058  0.00  0.00    +0.053 A 
ATOM      6  C   UNL     1      -0.606   5.151  -4.832  0.00  0.00    +0.028 A 
ATOM      7  C   UNL     1      -0.673   3.804  -5.148  0.00  0.00    -0.046 A 
ATOM      8  C   UNL     1       0.409   3.177  -5.989  0.00  0.00    +0.044 C 
ATOM      9  N   UNL     1      -1.623   7.070  -3.742  0.00  0.00    -0.316 N 
ATOM     10  C   UNL     1      -1.496   7.575  -2.489  0.00  0.00    +0.017 C 
ATOM     11  C   UNL     1      -2.159   7.129  -1.409  0.00  0.00    +0.036 C 
ATOM     12  C   UNL     1      -3.142   5.983  -1.384  0.00  0.00    +0.137 C 
ATOM     13  N   UNL     1      -3.554   5.518  -2.692  0.00  0.00    -0.331 N 
ATOM     14  C   UNL     1      -1.968   7.746  -0.150  0.00  0.00    +0.163 C 
ATOM     15  O   UNL     1      -2.570   7.312   0.812  0.00  0.00    -0.292 OA
ATOM     16  C   UNL     1      -1.052   8.917   0.038  0.00  0.00    +0.086 C 
ATOM     17  C   UNL     1      -0.976   9.696  -1.281  0.00  0.00    -0.023 C 
ATOM     18  C   UNL     1      -0.511   8.726  -2.366  0.00  0.00    +0.058 C 
ATOM     19  C   UNL     1      -2.357  10.249  -1.637  0.00  0.00    +0.011 C 
ATOM     20  C   UNL     1       0.026  10.845  -1.148  0.00  0.00    +0.011 C 
ATOM     21  H   UNL     1      -1.736   7.700  -4.471  0.00  0.00    +0.152 HD
ATOM     22  H   UNL     1      -4.481   5.614  -2.962  0.00  0.00    +0.147 HD
ENDROOT
BRANCH  12  23
ATOM     23  C   UNL     1      -2.515   4.831  -0.643  0.00  0.00    -0.001 A 
ATOM     24  C   UNL     1      -1.147   4.804  -0.440  0.00  0.00    +0.056 A 
ATOM     25  C   UNL     1      -0.568   3.746   0.241  0.00  0.00    +0.167 A 
ATOM     26  C   UNL     1      -1.366   2.710   0.721  0.00  0.00    +0.168 A 
ATOM     27  C   UNL     1      -2.736   2.743   0.514  0.00  0.00    +0.070 A 
ATOM     28  C   UNL     1      -3.308   3.802  -0.167  0.00  0.00    +0.050 A 
ATOM     29 CL   UNL     1      -5.024   3.841  -0.425  0.00  0.00    -0.083 Cl
ATOM     30  O   UNL     1      -0.568   1.798   1.353  0.00  0.00    -0.453 OA
ATOM     31  C   UNL     1       0.671   2.486   1.606  0.00  0.00    +0.466 C 
ATOM     32  O   UNL     1       0.731   3.483   0.569  0.00  0.00    -0.453 OA
ENDBRANCH  12  23
TORSDOF 1
