REMARK  Name = ZINC10167006
REMARK  7 active torsions:
REMARK  status: ('A' for Active; 'I' for Inactive)
REMARK    1  A    between atoms: C_1  and  C_2
REMARK    2  A    between atoms: C_2  and  C_3
REMARK    3  A    between atoms: C_8  and  O_30
REMARK    4  A    between atoms: C_9  and  C_11
REMARK    5  A    between atoms: C_11  and  C_13
REMARK    6  A    between atoms: C_11  and  N_21
REMARK    7  A    between atoms: C_24  and  C_27
REMARK                            x       y       z     vdW  Elec       q    Type
REMARK                         _______ _______ _______ _____ _____    ______ ____
ROOT
ATOM      1  C   UNL     1       2.896  -2.477   6.417  0.00  0.00    +0.005 C 
ENDROOT
BRANCH   1   8
ATOM      2  C   UNL     1       0.731  -0.503   1.223  0.00  0.00    +0.152 A 
ATOM      3  N   UNL     1       2.039  -0.738   1.297  0.00  0.00    -0.205 NA
ATOM      4  C   UNL     1       2.334  -1.160   2.497  0.00  0.00    +0.199 A 
ATOM      5  N   UNL     1       1.204  -1.214   3.253  0.00  0.00    -0.173 N 
ATOM      6  N   UNL     1       0.180  -0.769   2.377  0.00  0.00    -0.147 NA
ATOM      7  C   UNL     1       1.335  -1.642   4.552  0.00  0.00    +0.225 A 
ATOM      8  C   UNL     1       2.533  -1.988   5.038  0.00  0.00    +0.045 A 
ATOM      9  S   UNL     1       3.590  -1.715   3.624  0.00  0.00    -0.050 S 
BRANCH   2  11
ATOM     10  C   UNL     1      -0.019   1.526   0.010  0.00  0.00    +0.012 C 
ATOM     11  C   UNL     1       0.002  -0.004   0.002  0.00  0.00    +0.075 C 
ENDBRANCH   2  11
BRANCH   7  12
ATOM     12  O   UNL     1       0.237  -1.716   5.352  0.00  0.00    -0.492 OA
ATOM     13  H   UNL     1      -0.584  -1.447   4.917  0.00  0.00    +0.294 HD
ENDBRANCH   7  12
ENDBRANCH   1   8
BRANCH   1  14
ATOM     14  C   UNL     1       3.396  -3.896   6.331  0.00  0.00    -0.055 A 
ATOM     15  C   UNL     1       4.699  -4.146   5.943  0.00  0.00    +0.004 A 
ATOM     16  C   UNL     1       5.159  -5.447   5.863  0.00  0.00    +0.021 A 
ATOM     17  C   UNL     1       4.315  -6.499   6.173  0.00  0.00    +0.059 A 
ATOM     18  C   UNL     1       3.011  -6.248   6.562  0.00  0.00    +0.059 A 
ATOM     19  C   UNL     1       2.554  -4.945   6.646  0.00  0.00    +0.023 A 
ATOM     20 CL   UNL     1       1.951  -7.567   6.951  0.00  0.00    -0.082 Cl
ATOM     21 CL   UNL     1       4.892  -8.134   6.073  0.00  0.00    -0.082 Cl
ENDBRANCH   1  14
BRANCH   1  22
ATOM     22  N   UNL     1       3.948  -1.619   6.979  0.00  0.00    +0.387 N 
ATOM     23  C   UNL     1       4.306  -2.102   8.318  0.00  0.00    -0.077 C 
ATOM     24  C   UNL     1       5.458  -1.263   8.876  0.00  0.00    -0.006 C 
ATOM     25  C   UNL     1       5.020   0.202   8.960  0.00  0.00    +0.071 C 
ATOM     26  C   UNL     1       4.578   0.673   7.571  0.00  0.00    -0.006 C 
ATOM     27  C   UNL     1       3.459  -0.238   7.062  0.00  0.00    -0.077 C 
ATOM     28  H   UNL     1       4.761  -1.652   6.383  0.00  0.00    -0.080 HD
BRANCH  25  29
ATOM     29  C   UNL     1       6.175   1.047   9.434  0.00  0.00    +0.213 C 
ATOM     30  O   UNL     1       7.244   0.529   9.681  0.00  0.00    -0.276 OA
ATOM     31  N   UNL     1       6.020   2.377   9.584  0.00  0.00    -0.329 N 
ATOM     32  H   UNL     1       5.166   2.791   9.386  0.00  0.00    +0.145 HD
ATOM     33  H   UNL     1       6.763   2.920   9.889  0.00  0.00    +0.145 HD
ENDBRANCH  25  29
ENDBRANCH   1  22
TORSDOF 6
