REMARK  Name = ZINC32929444
REMARK  6 active torsions:
REMARK  status: ('A' for Active; 'I' for Inactive)
REMARK    1  A    between atoms: C_1  and  C_2
REMARK    2  A    between atoms: C_3  and  C_24
REMARK    3  A    between atoms: C_6  and  N_23
REMARK    4  A    between atoms: C_7  and  C_11
REMARK    5  A    between atoms: N_13  and  C_14
REMARK    6  A    between atoms: C_24  and  C_26
REMARK                            x       y       z     vdW  Elec       q    Type
REMARK                         _______ _______ _______ _____ _____    ______ ____
ROOT
ATOM      1  C   UNL     1      -2.404   0.205   0.049  0.00  0.00    +0.066 C 
ATOM      2  C   UNL     1      -1.127  -0.590  -0.045  0.00  0.00    +0.050 A 
ATOM      3  C   UNL     1       0.070   0.049  -0.406  0.00  0.00    +0.039 A 
ATOM      4  C   UNL     1       1.251  -0.685  -0.497  0.00  0.00    +0.025 A 
ATOM      5  C   UNL     1       1.218  -2.067  -0.212  0.00  0.00    +0.030 A 
ATOM      6  C   UNL     1       2.316  -3.024  -0.238  0.00  0.00    +0.053 A 
ATOM      7  C   UNL     1       2.045  -4.338   0.076  0.00  0.00    +0.097 A 
ATOM      8  S   UNL     1       0.297  -4.330   0.417  0.00  0.00    -0.062 S 
ATOM      9  C   UNL     1      -0.041  -2.608   0.142  0.00  0.00    +0.111 A 
ATOM     10  N   UNL     1      -1.137  -1.879   0.212  0.00  0.00    -0.244 NA
ENDROOT
BRANCH   7  11
ATOM     11  C   UNL     1       2.943  -5.433   0.118  0.00  0.00    +0.257 C 
ATOM     12  O   UNL     1       4.120  -5.266  -0.146  0.00  0.00    -0.269 OA
ATOM     13  N   UNL     1       2.495  -6.660   0.449  0.00  0.00    -0.279 N 
ATOM     14  H   UNL     1       1.420  -6.826   0.617  0.00  0.00    +0.155 HD
BRANCH  13  15
ATOM     15  C   UNL     1       3.393  -7.719   0.580  0.00  0.00    +0.062 A 
ATOM     16  C   UNL     1       4.490  -7.786  -0.224  0.00  0.00    +0.025 A 
ATOM     17  C   UNL     1       5.406  -8.831  -0.119  0.00  0.00    +0.004 A 
ATOM     18  C   UNL     1       5.247  -9.826   0.787  0.00  0.00    +0.031 A 
ATOM     19  C   UNL     1       4.127  -9.825   1.660  0.00  0.00    +0.102 A 
ATOM     20  C   UNL     1       3.167  -8.731   1.558  0.00  0.00    +0.121 A 
ATOM     21  N   UNL     1       2.170  -8.858   2.429  0.00  0.00    -0.189 NA
ATOM     22  S   UNL     1       2.457 -10.170   3.235  0.00  0.00    +0.117 S 
ATOM     23  N   UNL     1       3.792 -10.698   2.607  0.00  0.00    -0.191 NA
ENDBRANCH  13  15
ENDBRANCH   7  11
BRANCH   6  24
ATOM     24  N   UNL     1       3.602  -2.623  -0.569  0.00  0.00    -0.356 N 
ATOM     25  H   UNL     1       4.420  -3.357  -0.584  0.00  0.00    +0.142 HD
ATOM     26  H   UNL     1       3.802  -1.570  -0.816  0.00  0.00    +0.142 HD
ENDBRANCH   6  24
BRANCH   3  27
ATOM     27  C   UNL     1       0.076   1.490  -0.692  0.00  0.00    +0.162 C 
ATOM     28  O   UNL     1      -0.968   2.106  -0.727  0.00  0.00    -0.292 OA
ATOM     29  C   UNL     1       1.380   2.201  -0.949  0.00  0.00    +0.091 C 
ENDBRANCH   3  27
TORSDOF 4
