REMARK  Name = ZINC00913060
REMARK  8 active torsions:
REMARK  status: ('A' for Active; 'I' for Inactive)
REMARK    1  A    between atoms: C_1  and  O_2
REMARK    2  A    between atoms: O_2  and  C_3
REMARK    3  A    between atoms: C_5  and  C_10
REMARK    4  A    between atoms: C_8  and  O_9
REMARK    5  A    between atoms: C_12  and  C_24
REMARK    6  A    between atoms: C_14  and  C_19
REMARK    7  A    between atoms: C_14  and  O_23
REMARK    8  A    between atoms: C_24  and  C_26
REMARK                            x       y       z     vdW  Elec       q    Type
REMARK                         _______ _______ _______ _____ _____    ______ ____
ROOT
ATOM      1  C   UNL     1      -2.862   6.590   0.648  0.00  0.00    +0.120 C 
ATOM      2  C   UNL     1      -2.536   5.627  -0.498  0.00  0.00    +0.145 C 
ATOM      3  C   UNL     1      -2.991   6.265  -1.815  0.00  0.00    +0.243 C 
ATOM      4  N   UNL     1      -2.365   7.580  -1.953  0.00  0.00    -0.264 N 
ATOM      5  C   UNL     1      -2.034   8.312  -0.879  0.00  0.00    +0.302 C 
ATOM      6  O   UNL     1      -1.525   9.403  -1.050  0.00  0.00    -0.253 OA
ATOM      7  N   UNL     1      -2.241   7.887   0.376  0.00  0.00    -0.292 N 
ATOM      8  H   UNL     1      -2.185   7.930  -2.840  0.00  0.00    +0.153 HD
ATOM      9  H   UNL     1      -1.976   8.452   1.119  0.00  0.00    +0.151 HD
ENDROOT
BRANCH   1  12
ATOM     10  C   UNL     1      -6.481   5.972   1.540  0.00  0.00    +0.162 A 
ATOM     11  C   UNL     1      -5.107   5.820   1.440  0.00  0.00    +0.055 A 
ATOM     12  C   UNL     1      -4.356   6.757   0.756  0.00  0.00    -0.023 A 
ATOM     13  C   UNL     1      -4.971   7.851   0.176  0.00  0.00    +0.009 A 
ATOM     14  C   UNL     1      -6.341   8.006   0.267  0.00  0.00    +0.049 A 
ATOM     15  C   UNL     1      -7.100   7.070   0.951  0.00  0.00    +0.158 A 
BRANCH  10  17
ATOM     16  C   UNL     1      -6.517   3.951   2.793  0.00  0.00    +0.277 C 
ATOM     17  O   UNL     1      -7.221   5.051   2.213  0.00  0.00    -0.491 OA
ENDBRANCH  10  17
BRANCH  15  18
ATOM     18  O   UNL     1      -8.448   7.224   1.047  0.00  0.00    -0.503 OA
ATOM     19  H   UNL     1      -8.732   7.729   1.821  0.00  0.00    +0.292 HD
ENDBRANCH  15  18
ENDBRANCH   1  12
BRANCH   3  20
ATOM     20  C   UNL     1      -2.573   5.374  -2.986  0.00  0.00    +0.436 C 
ATOM     21  F   UNL     1      -3.166   4.114  -2.849  0.00  0.00    -0.166 F 
ATOM     22  F   UNL     1      -2.989   5.957  -4.188  0.00  0.00    -0.166 F 
ATOM     23  F   UNL     1      -1.181   5.235  -2.993  0.00  0.00    -0.166 F 
ENDBRANCH   3  20
BRANCH   3  24
ATOM     24  O   UNL     1      -4.413   6.409  -1.809  0.00  0.00    -0.364 OA
ATOM     25  H   UNL     1      -4.771   6.808  -2.614  0.00  0.00    +0.212 HD
ENDBRANCH   3  24
BRANCH   2  26
ATOM     26  C   UNL     1      -1.050   5.378  -0.544  0.00  0.00    +0.179 C 
ATOM     27  O   UNL     1      -0.283   6.196  -0.075  0.00  0.00    -0.291 OA
BRANCH  26  28
ATOM     28  C   UNL     1      -0.549   4.195  -1.131  0.00  0.00    +0.055 A 
ATOM     29  C   UNL     1       0.770   3.777  -1.274  0.00  0.00    +0.019 A 
ATOM     30  C   UNL     1       0.977   2.572  -1.890  0.00  0.00    +0.008 A 
ATOM     31  C   UNL     1      -0.094   1.854  -2.325  0.00  0.00    +0.046 A 
ATOM     32  S   UNL     1      -1.444   2.851  -1.889  0.00  0.00    -0.094 S 
ENDBRANCH  26  28
ENDBRANCH   2  26
TORSDOF 7
