REMARK  Name = ZINC39272717
REMARK  9 active torsions:
REMARK  status: ('A' for Active; 'I' for Inactive)
REMARK    1  A    between atoms: C_1  and  C_2
REMARK    2  A    between atoms: N_6  and  C_7
REMARK    3  A    between atoms: C_7  and  C_9
REMARK    4  A    between atoms: C_9  and  C_10
REMARK    5  A    between atoms: C_12  and  C_27
REMARK    6  A    between atoms: C_17  and  O_22
REMARK    7  A    between atoms: C_19  and  O_20
REMARK    8  A    between atoms: O_20  and  C_21
REMARK    9  A    between atoms: O_22  and  C_23
REMARK                            x       y       z     vdW  Elec       q    Type
REMARK                         _______ _______ _______ _____ _____    ______ ____
ROOT
ATOM      1  C   UNL     1       0.108  -6.671   2.405  0.00  0.00    +0.114 C 
ATOM      2  C   UNL     1       0.025  -7.687   3.547  0.00  0.00    +0.037 C 
ATOM      3  C   UNL     1       1.357  -7.779   4.248  0.00  0.00    +0.040 A 
ATOM      4  C   UNL     1       2.531  -7.365   3.644  0.00  0.00    +0.142 A 
ATOM      5  C   UNL     1       3.738  -7.479   4.325  0.00  0.00    +0.092 A 
ATOM      6  C   UNL     1       3.771  -7.999   5.608  0.00  0.00    +0.127 A 
ATOM      7  C   UNL     1       2.594  -8.408   6.217  0.00  0.00    +0.091 A 
ATOM      8  C   UNL     1       1.391  -8.299   5.538  0.00  0.00    +0.130 A 
ATOM      9  O   UNL     1       2.544  -6.832   2.392  0.00  0.00    -0.425 OA
ATOM     10  C   UNL     1       1.409  -6.914   1.666  0.00  0.00    +0.317 C 
ATOM     11  O   UNL     1       1.429  -7.171   0.486  0.00  0.00    -0.250 OA
ATOM     12  C   UNL     1      -0.345  -9.060   2.981  0.00  0.00    +0.013 C 
ENDROOT
BRANCH   8  13
ATOM     13  O   UNL     1       0.239  -8.700   6.136  0.00  0.00    -0.495 OA
ATOM     14  C   UNL     1       0.344  -9.224   7.462  0.00  0.00    +0.277 C 
ENDBRANCH   8  13
BRANCH   6  15
ATOM     15  O   UNL     1       4.953  -8.107   6.270  0.00  0.00    -0.495 OA
ATOM     16  C   UNL     1       4.910  -8.652   7.590  0.00  0.00    +0.277 C 
ENDBRANCH   6  15
BRANCH   1  17
ATOM     17  C   UNL     1       0.091  -5.250   2.972  0.00  0.00    +0.113 C 
BRANCH  17  18
ATOM     18  C   UNL     1       0.071  -4.257   1.838  0.00  0.00    +0.239 C 
ATOM     19  O   UNL     1       0.071  -4.648   0.686  0.00  0.00    -0.274 OA
BRANCH  18  25
ATOM     20  C   UNL     1      -0.018   1.503   0.010  0.00  0.00    +0.064 C 
ATOM     21  C   UNL     1       0.002  -0.004   0.002  0.00  0.00    +0.021 A 
ATOM     22  C   UNL     1       0.006  -0.694  -1.144  0.00  0.00    +0.069 A 
ATOM     23  S   UNL     1       0.033  -2.379  -0.561  0.00  0.00    -0.060 S 
ATOM     24  C   UNL     1       0.036  -2.076   1.093  0.00  0.00    +0.163 A 
ATOM     25  N   UNL     1       0.054  -2.955   2.096  0.00  0.00    -0.157 NA
ATOM     26  N   UNL     1       0.023  -0.718   1.159  0.00  0.00    -0.340 N 
ATOM     27  H   UNL     1       0.025  -0.266   2.018  0.00  0.00    +0.167 HD
ENDBRANCH  18  25
ENDBRANCH  17  18
ENDBRANCH   1  17
TORSDOF 5
