REMARK  Name = ZINC21532252
REMARK  5 active torsions:
REMARK  status: ('A' for Active; 'I' for Inactive)
REMARK    1  A    between atoms: C_11  and  C_28
REMARK    2  A    between atoms: C_14  and  C_16
REMARK    3  A    between atoms: C_16  and  S_17
REMARK    4  A    between atoms: S_17  and  C_18
REMARK    5  A    between atoms: N_22  and  C_23
REMARK                            x       y       z     vdW  Elec       q    Type
REMARK                         _______ _______ _______ _____ _____    ______ ____
ROOT
ATOM      1  C   UNL     1      -0.017   1.379   0.010  0.00  0.00    +0.002 A 
ATOM      2  C   UNL     1       1.168   2.092   0.002  0.00  0.00    +0.002 A 
ATOM      3  C   UNL     1       2.381   1.428  -0.024  0.00  0.00    +0.025 A 
ATOM      4  C   UNL     1       2.408   0.043  -0.037  0.00  0.00    +0.058 A 
ATOM      5  C   UNL     1       1.213  -0.677  -0.011  0.00  0.00    +0.055 A 
ATOM      6  C   UNL     1       0.002  -0.004   0.002  0.00  0.00    +0.025 A 
ATOM      7  N   UNL     1       1.257  -2.075   0.033  0.00  0.00    -0.284 N 
ATOM      8  C   UNL     1       2.034  -2.762  -0.833  0.00  0.00    +0.219 C 
ATOM      9  O   UNL     1       2.129  -3.967  -0.731  0.00  0.00    -0.275 OA
ATOM     10  C   UNL     1       2.782  -2.042  -1.923  0.00  0.00    +0.128 C 
ATOM     11  C   UNL     1       3.998  -1.322  -1.339  0.00  0.00    +0.194 C 
ATOM     12  N   UNL     1       3.627  -0.648  -0.094  0.00  0.00    -0.257 N 
ATOM     13  C   UNL     1       4.442  -0.691   0.978  0.00  0.00    +0.231 C 
ATOM     14  O   UNL     1       5.494  -1.292   0.917  0.00  0.00    -0.274 OA
ATOM     15  H   UNL     1       0.727  -2.553   0.689  0.00  0.00    +0.155 HD
ENDROOT
BRANCH  11  16
ATOM     16  C   UNL     1       4.506  -0.286  -2.344  0.00  0.00    +0.409 C 
ATOM     17  F   UNL     1       3.495   0.644  -2.607  0.00  0.00    -0.169 F 
ATOM     18  F   UNL     1       5.619   0.374  -1.811  0.00  0.00    -0.169 F 
ATOM     19  F   UNL     1       4.870  -0.928  -3.533  0.00  0.00    -0.169 F 
ENDBRANCH  11  16
BRANCH  13  20
ATOM     20  C   UNL     1       4.046   0.007   2.254  0.00  0.00    +0.173 C 
BRANCH  20  21
ATOM     21  S   UNL     1       5.341  -0.234   3.501  0.00  0.00    -0.075 S 
BRANCH  21  22
ATOM     22  C   UNL     1       4.738   0.630   4.914  0.00  0.00    +0.210 A 
ATOM     23  N   UNL     1       3.599   1.282   5.004  0.00  0.00    -0.101 NA
ATOM     24  N   UNL     1       3.467   1.798   6.172  0.00  0.00    -0.022 NA
ATOM     25  N   UNL     1       4.491   1.519   6.903  0.00  0.00    -0.043 NA
ATOM     26  N   UNL     1       5.356   0.742   6.113  0.00  0.00    -0.217 N 
BRANCH  26  27
ATOM     27  C   UNL     1       6.651   0.178   6.502  0.00  0.00    +0.112 C 
ATOM     28  C   UNL     1       6.482  -0.726   7.741  0.00  0.00    +0.027 C 
ATOM     29  C   UNL     1       7.763  -0.471   8.574  0.00  0.00    +0.002 C 
ATOM     30  C   UNL     1       8.001   1.047   8.380  0.00  0.00    +0.002 C 
ATOM     31  C   UNL     1       7.617   1.305   6.908  0.00  0.00    +0.027 C 
ENDBRANCH  26  27
ENDBRANCH  21  22
ENDBRANCH  20  21
ENDBRANCH  13  20
TORSDOF 5
