REMARK  Name = ZINC64561665
REMARK  8 active torsions:
REMARK  status: ('A' for Active; 'I' for Inactive)
REMARK    1  A    between atoms: C_1  and  C_2
REMARK    2  A    between atoms: C_2  and  C_3
REMARK    3  A    between atoms: C_2  and  N_4
REMARK    4  A    between atoms: N_7  and  C_8
REMARK    5  A    between atoms: C_11  and  C_14
REMARK    6  A    between atoms: C_14  and  N_15
REMARK    7  A    between atoms: N_18  and  C_19
REMARK    8  A    between atoms: N_28  and  C_29
REMARK                            x       y       z     vdW  Elec       q    Type
REMARK                         _______ _______ _______ _____ _____    ______ ____
ROOT
ATOM      1  N   UNL     1      -3.862  -8.425  -1.131  0.00  0.00    -0.295 N 
ATOM      2  C   UNL     1      -4.032  -9.750  -1.307  0.00  0.00    +0.304 C 
ATOM      3  O   UNL     1      -4.412 -10.177  -2.381  0.00  0.00    -0.252 OA
ATOM      4  N   UNL     1      -3.782 -10.602  -0.293  0.00  0.00    -0.269 N 
ATOM      5  H   UNL     1      -3.559  -8.084  -0.275  0.00  0.00    +0.151 HD
ATOM      6  H   UNL     1      -3.551 -10.258   0.584  0.00  0.00    +0.156 HD
ENDROOT
BRANCH   4   7
ATOM      7  C   UNL     1      -3.854 -11.986  -0.507  0.00  0.00    +0.035 A 
ATOM      8  C   UNL     1      -3.492 -12.519  -1.737  0.00  0.00    +0.025 A 
ATOM      9  C   UNL     1      -3.566 -13.881  -1.944  0.00  0.00    +0.025 A 
ATOM     10  C   UNL     1      -4.001 -14.719  -0.923  0.00  0.00    +0.033 A 
ATOM     11  C   UNL     1      -4.360 -14.190   0.307  0.00  0.00    -0.025 A 
ATOM     12  C   UNL     1      -4.282 -12.823   0.513  0.00  0.00    +0.028 A 
ATOM     13  C   UNL     1      -4.824 -15.071   1.437  0.00  0.00    +0.038 C 
ATOM     14  C   UNL     1      -5.315 -16.416   0.901  0.00  0.00    +0.024 C 
ATOM     15  C   UNL     1      -4.236 -17.007  -0.016  0.00  0.00    +0.105 C 
ATOM     16  N   UNL     1      -4.071 -16.099  -1.159  0.00  0.00    -0.333 N 
ATOM     17  C   UNL     1      -3.983 -16.627  -2.522  0.00  0.00    +0.129 C 
ENDBRANCH   4   7
BRANCH   1  18
ATOM     18  C   UNL     1      -4.134  -7.498  -2.233  0.00  0.00    +0.141 C 
BRANCH  18  22
ATOM     19  C   UNL     1      -3.380  -3.493  -0.947  0.00  0.00    +0.035 A 
ATOM     20  C   UNL     1      -2.362  -4.243  -1.521  0.00  0.00    +0.023 A 
ATOM     21  C   UNL     1      -2.609  -5.537  -1.935  0.00  0.00    +0.007 A 
ATOM     22  C   UNL     1      -3.868  -6.086  -1.780  0.00  0.00    -0.030 A 
ATOM     23  C   UNL     1      -4.885  -5.342  -1.209  0.00  0.00    +0.007 A 
ATOM     24  C   UNL     1      -4.642  -4.049  -0.787  0.00  0.00    +0.023 A 
BRANCH  19  28
ATOM     25  N   UNL     1      -3.425  -0.476   1.042  0.00  0.00    -0.297 N 
ATOM     26  C   UNL     1      -3.734  -1.706   0.583  0.00  0.00    +0.304 C 
ATOM     27  O   UNL     1      -4.555  -2.385   1.169  0.00  0.00    -0.253 OA
ATOM     28  N   UNL     1      -3.133  -2.182  -0.525  0.00  0.00    -0.269 N 
ATOM     29  H   UNL     1      -2.771   0.065   0.574  0.00  0.00    +0.151 HD
ATOM     30  H   UNL     1      -2.529  -1.616  -1.031  0.00  0.00    +0.156 HD
BRANCH  25  32
ATOM     31  C   UNL     1      -3.181   1.092   2.902  0.00  0.00    +0.027 C 
ATOM     32  C   UNL     1      -4.079   0.041   2.246  0.00  0.00    +0.068 C 
ATOM     33  C   UNL     1      -5.417   0.679   1.866  0.00  0.00    +0.027 C 
ENDBRANCH  25  32
ENDBRANCH  19  28
ENDBRANCH  18  22
ENDBRANCH   1  18
TORSDOF 5
