REMARK  Name = ZINC51120599
REMARK  6 active torsions:
REMARK  status: ('A' for Active; 'I' for Inactive)
REMARK    1  A    between atoms: C_3  and  N_21
REMARK    2  A    between atoms: C_4  and  N_18
REMARK    3  A    between atoms: C_6  and  C_7
REMARK    4  A    between atoms: C_14  and  C_16
REMARK    5  A    between atoms: C_16  and  O_17
REMARK    6  A    between atoms: N_21  and  N_22
REMARK                            x       y       z     vdW  Elec       q    Type
REMARK                         _______ _______ _______ _____ _____    ______ ____
ROOT
ATOM      1  C   UNL     1       0.200   1.173  -0.279  0.00  0.00    +0.015 A 
ATOM      2  C   UNL     1       1.402   1.824  -0.120  0.00  0.00    +0.027 A 
ATOM      3  C   UNL     1       2.303   1.399   0.853  0.00  0.00    +0.071 A 
ATOM      4  C   UNL     1       1.990   0.315   1.668  0.00  0.00    +0.149 A 
ATOM      5  C   UNL     1       0.790  -0.340   1.514  0.00  0.00    +0.047 A 
ATOM      6  C   UNL     1      -0.117   0.085   0.539  0.00  0.00    +0.039 A 
ENDROOT
BRANCH   6   7
ATOM      7  C   UNL     1      -1.405  -0.615   0.372  0.00  0.00    +0.247 C 
ATOM      8  O   UNL     1      -1.457  -1.826   0.474  0.00  0.00    -0.270 OA
ATOM      9  N   UNL     1      -2.523   0.087   0.105  0.00  0.00    -0.292 N 
ATOM     10  C   UNL     1      -2.504   1.556   0.108  0.00  0.00    +0.108 C 
ATOM     11  C   UNL     1      -3.604   2.063   1.046  0.00  0.00    +0.019 C 
ATOM     12  C   UNL     1      -4.944   1.453   0.629  0.00  0.00    +0.003 C 
ATOM     13  C   UNL     1      -4.872  -0.071   0.747  0.00  0.00    +0.025 C 
ATOM     14  C   UNL     1      -3.785  -0.602  -0.199  0.00  0.00    +0.102 C 
BRANCH  14  15
ATOM     15  C   UNL     1      -3.611  -2.107   0.009  0.00  0.00    +0.178 C 
BRANCH  15  16
ATOM     16  O   UNL     1      -2.733  -2.628  -0.991  0.00  0.00    -0.393 OA
ATOM     17  H   UNL     1      -2.576  -3.580  -0.920  0.00  0.00    +0.209 HD
ENDBRANCH  15  16
ENDBRANCH  14  15
ENDBRANCH   6   7
BRANCH   4  18
ATOM     18  N   UNL     1       2.951  -0.134   2.701  0.00  0.00    +0.058 N 
ATOM     19  O   UNL     1       3.091  -1.314   2.923  0.00  0.00    -0.126 OA
ATOM     20  O   UNL     1       3.595   0.679   3.322  0.00  0.00    -0.126 OA
ENDBRANCH   4  18
BRANCH   3  21
ATOM     21  N   UNL     1       3.517   2.059   1.010  0.00  0.00    -0.281 N 
ATOM     22  H   UNL     1       4.116   1.806   1.730  0.00  0.00    +0.166 HD
BRANCH  21  23
ATOM     23  N   UNL     1       3.865   3.062   0.151  0.00  0.00    -0.256 NA
ATOM     24  H   UNL     1       4.768   3.444   0.389  0.00  0.00    +0.140 HD
ATOM     25  H   UNL     1       3.849   2.741  -0.806  0.00  0.00    +0.140 HD
ENDBRANCH  21  23
ENDBRANCH   3  21
TORSDOF 6
