REMARK  Name = ZINC55492989
REMARK  5 active torsions:
REMARK  status: ('A' for Active; 'I' for Inactive)
REMARK    1  A    between atoms: C_1  and  C_2
REMARK    2  A    between atoms: C_3  and  C_27
REMARK    3  A    between atoms: C_11  and  C_13
REMARK    4  A    between atoms: C_16  and  C_19
REMARK    5  A    between atoms: C_19  and  C_26
REMARK                            x       y       z     vdW  Elec       q    Type
REMARK                         _______ _______ _______ _____ _____    ______ ____
ROOT
ATOM      1  C   UNL     1       0.091  -3.415   4.529  0.00  0.00    +0.017 A 
ATOM      2  C   UNL     1       0.090  -2.922   5.835  0.00  0.00    +0.012 A 
ATOM      3  C   UNL     1       0.113  -3.800   6.899  0.00  0.00    +0.007 A 
ATOM      4  C   UNL     1       0.136  -5.165   6.674  0.00  0.00    -0.015 A 
ATOM      5  C   UNL     1       0.136  -5.659   5.382  0.00  0.00    +0.007 A 
ATOM      6  C   UNL     1       0.108  -4.793   4.309  0.00  0.00    +0.012 A 
ENDROOT
BRANCH   1  17
ATOM      7  C   UNL     1      -0.018   1.503   0.010  0.00  0.00    +0.045 C 
ATOM      8  C   UNL     1       0.002  -0.004   0.002  0.00  0.00    -0.026 A 
ATOM      9  C   UNL     1       0.006  -0.677  -1.160  0.00  0.00    -0.008 A 
ATOM     10  S   UNL     1       0.032  -2.385  -0.649  0.00  0.00    -0.073 S 
ATOM     11  C   UNL     1       0.037  -2.146   1.109  0.00  0.00    +0.116 A 
ATOM     12  C   UNL     1       0.024  -0.744   1.249  0.00  0.00    +0.075 A 
ATOM     13  C   UNL     1       0.029  -0.253   2.595  0.00  0.00    +0.260 A 
ATOM     14  O   UNL     1       0.014   0.946   2.816  0.00  0.00    -0.267 OA
ATOM     15  N   UNL     1       0.051  -1.133   3.613  0.00  0.00    -0.306 N 
ATOM     16  H   UNL     1       0.054  -0.805   4.526  0.00  0.00    +0.170 HD
ATOM     17  C   UNL     1       0.067  -2.481   3.384  0.00  0.00    +0.142 A 
ATOM     18  N   UNL     1       0.054  -2.958   2.157  0.00  0.00    -0.222 NA
ATOM     19  C   UNL     1      -0.009  -0.121  -2.561  0.00  0.00    +0.052 C 
ENDBRANCH   1  17
BRANCH   4  20
ATOM     20  C   UNL     1       0.160  -6.117   7.842  0.00  0.00    +0.135 C 
ATOM     21  C   UNL     1       1.458  -5.981   8.614  0.00  0.00    +0.248 C 
ATOM     22  O   UNL     1       1.870  -4.994   9.185  0.00  0.00    -0.273 OA
ATOM     23  N   UNL     1       2.058  -7.185   8.533  0.00  0.00    -0.238 N 
ATOM     24  C   UNL     1       1.327  -8.054   7.825  0.00  0.00    +0.307 C 
ATOM     25  O   UNL     1       1.661  -9.204   7.615  0.00  0.00    -0.252 OA
ATOM     26  N   UNL     1       0.182  -7.513   7.372  0.00  0.00    -0.282 N 
ATOM     27  C   UNL     1      -1.042  -5.876   8.757  0.00  0.00    +0.047 C 
ATOM     28  H   UNL     1       2.914  -7.395   8.938  0.00  0.00    +0.159 HD
ATOM     29  H   UNL     1      -0.497  -7.956   6.840  0.00  0.00    +0.152 HD
ENDBRANCH   4  20
TORSDOF 2
