REMARK  Name = ZINC05809726
REMARK  6 active torsions:
REMARK  status: ('A' for Active; 'I' for Inactive)
REMARK    1  A    between atoms: C_1  and  O_2
REMARK    2  A    between atoms: O_2  and  C_3
REMARK    3  A    between atoms: C_10  and  C_15
REMARK    4  A    between atoms: C_18  and  O_23
REMARK    5  A    between atoms: C_19  and  O_21
REMARK    6  A    between atoms: O_21  and  C_22
REMARK                            x       y       z     vdW  Elec       q    Type
REMARK                         _______ _______ _______ _____ _____    ______ ____
ROOT
ATOM      1  C   UNL     1      -0.049   3.857   0.026  0.00  0.00    +0.162 A 
ATOM      2  C   UNL     1       1.154   3.169   0.008  0.00  0.00    +0.049 A 
ATOM      3  C   UNL     1       1.172   1.785   0.001  0.00  0.00    +0.004 A 
ATOM      4  C   UNL     1      -0.013   1.076   0.008  0.00  0.00    +0.012 A 
ATOM      5  C   UNL     1      -1.226   1.758   0.017  0.00  0.00    +0.023 A 
ATOM      6  C   UNL     1      -1.251   3.156   0.035  0.00  0.00    +0.170 A 
ATOM      7  O   UNL     1      -2.428   3.830   0.060  0.00  0.00    -0.480 OA
ATOM      8  C   UNL     1      -3.606   3.174  -0.409  0.00  0.00    +0.208 C 
ATOM      9  C   UNL     1      -3.760   1.828   0.314  0.00  0.00    +0.084 C 
ATOM     10  C   UNL     1      -2.511   1.017   0.021  0.00  0.00    -0.040 C 
ATOM     11  C   UNL     1      -2.565  -0.285  -0.225  0.00  0.00    +0.013 C 
ENDROOT
BRANCH   8  12
ATOM     12  C   UNL     1      -4.808   4.038  -0.126  0.00  0.00    -0.003 A 
ATOM     13  C   UNL     1      -4.853   4.802   1.025  0.00  0.00    +0.011 A 
ATOM     14  C   UNL     1      -5.952   5.600   1.286  0.00  0.00    +0.049 A 
ATOM     15  C   UNL     1      -7.015   5.626   0.398  0.00  0.00    +0.158 A 
ATOM     16  C   UNL     1      -6.972   4.852  -0.757  0.00  0.00    +0.162 A 
ATOM     17  C   UNL     1      -5.866   4.059  -1.016  0.00  0.00    +0.056 A 
BRANCH  16  18
ATOM     18  O   UNL     1      -8.014   4.874  -1.631  0.00  0.00    -0.491 OA
ATOM     19  C   UNL     1      -7.901   4.054  -2.796  0.00  0.00    +0.277 C 
ENDBRANCH  16  18
BRANCH  15  20
ATOM     20  O   UNL     1      -8.099   6.406   0.656  0.00  0.00    -0.503 OA
ATOM     21  H   UNL     1      -8.791   5.962   1.165  0.00  0.00    +0.292 HD
ENDBRANCH  15  20
ENDBRANCH   8  12
BRANCH   1  23
ATOM     22  C   UNL     1       1.216   5.871   0.024  0.00  0.00    +0.277 C 
ATOM     23  O   UNL     1      -0.055   5.217   0.035  0.00  0.00    -0.491 OA
ENDBRANCH   1  23
TORSDOF 4
