REMARK  Name = ZINC08598471
REMARK  12 active torsions:
REMARK  status: ('A' for Active; 'I' for Inactive)
REMARK    1  A    between atoms: C_1  and  C_2
REMARK    2  A    between atoms: C_2  and  C_3
REMARK    3  A    between atoms: C_2  and  C_4
REMARK    4  A    between atoms: C_4  and  C_5
REMARK    5  A    between atoms: C_5  and  C_7
REMARK    6  A    between atoms: C_5  and  N_19
REMARK    7  A    between atoms: N_9  and  C_10
REMARK    8  A    between atoms: C_13  and  O_17
REMARK    9  A    between atoms: O_17  and  C_18
REMARK   10  A    between atoms: N_19  and  S_20
REMARK   11  A    between atoms: S_20  and  C_23
REMARK   12  A    between atoms: N_32  and  C_33
REMARK                            x       y       z     vdW  Elec       q    Type
REMARK                         _______ _______ _______ _____ _____    ______ ____
ROOT
ATOM      1  C   UNL     1      -0.036  -0.080   2.795  0.00  0.00    +0.163 C 
ENDROOT
BRANCH   1   2
ATOM      2  C   UNL     1       0.834  -0.433   3.974  0.00  0.00    +0.236 C 
ATOM      3  O   UNL     1       1.292   0.446   4.675  0.00  0.00    -0.274 OA
ATOM      4  N   UNL     1       1.103  -1.724   4.250  0.00  0.00    -0.284 N 
ATOM      5  H   UNL     1       0.800  -2.422   3.649  0.00  0.00    +0.155 HD
BRANCH   4   6
ATOM      6  C   UNL     1       1.822  -2.058   5.406  0.00  0.00    +0.035 A 
ATOM      7  C   UNL     1       1.526  -3.228   6.094  0.00  0.00    +0.027 A 
ATOM      8  C   UNL     1       2.234  -3.557   7.232  0.00  0.00    +0.049 A 
ATOM      9  C   UNL     1       3.242  -2.721   7.689  0.00  0.00    +0.138 A 
ATOM     10  C   UNL     1       3.538  -1.551   7.003  0.00  0.00    +0.084 A 
ATOM     11  C   UNL     1       2.834  -1.224   5.860  0.00  0.00    +0.047 A 
ATOM     12 CL   UNL     1       4.799  -0.504   7.576  0.00  0.00    -0.080 Cl
BRANCH   9  13
ATOM     13  O   UNL     1       3.939  -3.046   8.811  0.00  0.00    -0.494 OA
ATOM     14  C   UNL     1       3.580  -4.264   9.467  0.00  0.00    +0.277 C 
ENDBRANCH   9  13
ENDBRANCH   4   6
ENDBRANCH   1   2
BRANCH   1  15
ATOM     15  N   UNL     1      -0.570   1.273   2.971  0.00  0.00    -0.178 NA
ATOM     16  H   UNL     1      -0.024   1.961   3.382  0.00  0.00    +0.149 HD
BRANCH  15  17
ATOM     17  S   UNL     1      -2.107   1.627   2.467  0.00  0.00    +0.059 S 
ATOM     18  O   UNL     1      -2.337   2.992   2.791  0.00  0.00    -0.153 OA
ATOM     19  O   UNL     1      -2.225   1.129   1.141  0.00  0.00    -0.153 OA
BRANCH  17  20
ATOM     20  C   UNL     1      -3.213   0.681   3.460  0.00  0.00    +0.109 A 
ATOM     21  C   UNL     1      -3.587  -0.589   3.056  0.00  0.00    +0.031 A 
ATOM     22  C   UNL     1      -4.453  -1.337   3.830  0.00  0.00    +0.031 A 
ATOM     23  C   UNL     1      -4.947  -0.813   5.014  0.00  0.00    +0.090 A 
ATOM     24  C   UNL     1      -4.571   0.466   5.422  0.00  0.00    +0.159 A 
ATOM     25  C   UNL     1      -3.697   1.208   4.642  0.00  0.00    +0.077 A 
ATOM     26  O   UNL     1      -5.198   0.714   6.598  0.00  0.00    -0.407 OA
ATOM     27  C   UNL     1      -5.943  -0.350   6.934  0.00  0.00    +0.421 A 
ATOM     28  O   UNL     1      -6.628  -0.441   7.935  0.00  0.00    -0.223 OA
ATOM     29  N   UNL     1      -5.815  -1.304   5.990  0.00  0.00    -0.277 N 
ATOM     30  C   UNL     1      -6.467  -2.615   5.989  0.00  0.00    +0.156 C 
ENDBRANCH  17  20
ENDBRANCH  15  17
ENDBRANCH   1  15
BRANCH   1  31
ATOM     31  C   UNL     1       0.796  -0.137   1.512  0.00  0.00    +0.032 C 
BRANCH  31  33
ATOM     32  C   UNL     1       0.026  -2.447   0.956  0.00  0.00    +0.007 C 
ATOM     33  C   UNL     1       1.246  -1.577   1.261  0.00  0.00    -0.015 C 
ATOM     34  C   UNL     1       2.207  -1.611   0.070  0.00  0.00    +0.007 C 
ENDBRANCH  31  33
ENDBRANCH   1  31
TORSDOF 8
