REMARK  Name = ZINC39579871
REMARK  9 active torsions:
REMARK  status: ('A' for Active; 'I' for Inactive)
REMARK    1  A    between atoms: C_1  and  C_2
REMARK    2  A    between atoms: C_7  and  C_9
REMARK    3  A    between atoms: C_7  and  C_10
REMARK    4  A    between atoms: N_13  and  C_17
REMARK    5  A    between atoms: C_17  and  C_18
REMARK    6  A    between atoms: C_18  and  O_20
REMARK    7  A    between atoms: O_20  and  C_21
REMARK    8  A    between atoms: C_21  and  C_22
REMARK    9  A    between atoms: N_24  and  C_25
REMARK                            x       y       z     vdW  Elec       q    Type
REMARK                         _______ _______ _______ _____ _____    ______ ____
ROOT
ATOM      1  C   UNL     1      -1.600  -4.119  -3.282  0.00  0.00    +0.238 C 
ENDROOT
BRANCH   1  13
ATOM      2  C   UNL     1      -0.094   1.542   0.058  0.00  0.00    +0.007 C 
ATOM      3  C   UNL     1      -0.067   0.011   0.048  0.00  0.00    -0.011 C 
ATOM      4  C   UNL     1       0.668  -0.473  -1.204  0.00  0.00    +0.038 C 
ATOM      5  C   UNL     1       0.659  -1.995  -1.249  0.00  0.00    +0.113 C 
ATOM      6  C   UNL     1       1.205  -2.626   0.017  0.00  0.00    +0.041 C 
ATOM      7  C   UNL     1       0.716  -2.014   1.318  0.00  0.00    -0.032 C 
ATOM      8  C   UNL     1       0.688  -0.490   1.277  0.00  0.00    +0.009 C 
ATOM      9  C   UNL     1      -0.667  -2.556   1.687  0.00  0.00    +0.011 C 
ATOM     10  C   UNL     1       1.691  -2.436   2.439  0.00  0.00    +0.011 C 
ATOM     11  C   UNL     1      -0.713  -2.515  -1.599  0.00  0.00    +0.247 C 
ATOM     12  O   UNL     1      -1.769  -2.273  -1.054  0.00  0.00    -0.273 OA
ATOM     13  N   UNL     1      -0.541  -3.304  -2.682  0.00  0.00    -0.213 N 
ATOM     14  C   UNL     1       0.716  -3.248  -3.135  0.00  0.00    +0.310 C 
ATOM     15  O   UNL     1       1.113  -3.860  -4.107  0.00  0.00    -0.252 OA
ATOM     16  N   UNL     1       1.491  -2.440  -2.390  0.00  0.00    -0.285 N 
ATOM     17  H   UNL     1       2.411  -2.188  -2.555  0.00  0.00    +0.151 HD
ENDBRANCH   1  13
BRANCH   1  18
ATOM     18  C   UNL     1      -2.317  -3.314  -4.335  0.00  0.00    +0.326 C 
ATOM     19  O   UNL     1      -1.978  -2.176  -4.561  0.00  0.00    -0.249 OA
BRANCH  18  20
ATOM     20  O   UNL     1      -3.332  -3.861  -5.022  0.00  0.00    -0.454 OA
BRANCH  20  21
ATOM     21  C   UNL     1      -3.966  -3.040  -6.005  0.00  0.00    +0.328 C 
BRANCH  21  22
ATOM     22  C   UNL     1      -5.074  -3.817  -6.669  0.00  0.00    +0.255 C 
ATOM     23  O   UNL     1      -5.298  -4.960  -6.334  0.00  0.00    -0.272 OA
ATOM     24  N   UNL     1      -5.816  -3.240  -7.636  0.00  0.00    -0.280 N 
ATOM     25  H   UNL     1      -5.680  -2.306  -7.859  0.00  0.00    +0.155 HD
BRANCH  24  26
ATOM     26  C   UNL     1      -6.782  -3.990  -8.318  0.00  0.00    +0.070 A 
ATOM     27  C   UNL     1      -7.495  -4.976  -7.651  0.00  0.00    +0.046 A 
ATOM     28  C   UNL     1      -8.449  -5.715  -8.326  0.00  0.00    +0.043 A 
ATOM     29  C   UNL     1      -8.693  -5.472  -9.667  0.00  0.00    +0.023 A 
ATOM     30  C   UNL     1      -7.985  -4.490 -10.335  0.00  0.00    +0.041 A 
ATOM     31  C   UNL     1      -7.034  -3.744  -9.663  0.00  0.00    +0.145 A 
ATOM     32  F   UNL     1      -6.346  -2.780 -10.314  0.00  0.00    -0.204 F 
ATOM     33 CL   UNL     1      -9.340  -6.949  -7.493  0.00  0.00    -0.083 Cl
ENDBRANCH  24  26
ENDBRANCH  21  22
ENDBRANCH  20  21
ENDBRANCH  18  20
ENDBRANCH   1  18
TORSDOF 6
