REMARK  Name = ZINC36267236
REMARK  5 active torsions:
REMARK  status: ('A' for Active; 'I' for Inactive)
REMARK    1  A    between atoms: C_1  and  C_2
REMARK    2  A    between atoms: C_3  and  S_9
REMARK    3  A    between atoms: C_4  and  C_8
REMARK    4  A    between atoms: S_9  and  N_12
REMARK    5  A    between atoms: C_18  and  N_24
REMARK                            x       y       z     vdW  Elec       q    Type
REMARK                         _______ _______ _______ _____ _____    ______ ____
ROOT
ATOM      1  N   UNL     1       1.569  -0.072  -3.243  0.00  0.00    -0.176 NA
ATOM      2  C   UNL     1       2.374   1.153  -3.109  0.00  0.00    +0.113 C 
ATOM      3  C   UNL     1       3.788   0.829  -3.664  0.00  0.00    +0.009 C 
ATOM      4  C   UNL     1       4.625   0.366  -2.470  0.00  0.00    +0.003 C 
ATOM      5  C   UNL     1       5.878  -0.372  -2.932  0.00  0.00    -0.016 C 
ATOM      6  C   UNL     1       5.446  -1.627  -3.699  0.00  0.00    -0.075 C 
ATOM      7  C   UNL     1       4.696  -1.181  -4.954  0.00  0.00    -0.011 C 
ATOM      8  C   UNL     1       3.486  -0.335  -4.627  0.00  0.00    +0.008 C 
ATOM      9  C   UNL     1       2.404  -1.123  -3.863  0.00  0.00    +0.113 C 
ENDROOT
BRANCH   6  10
ATOM     10  N   UNL     1       6.630  -2.409  -4.080  0.00  0.00    +0.380 N 
ATOM     11  H   UNL     1       7.133  -2.682  -3.249  0.00  0.00    -0.090 HD
ATOM     12  H   UNL     1       6.340  -3.234  -4.584  0.00  0.00    -0.090 HD
ATOM     13  H   UNL     1       7.229  -1.848  -4.667  0.00  0.00    -0.090 HD
ENDBRANCH   6  10
BRANCH   1  14
ATOM     14  S   UNL     1      -0.008  -0.247  -2.770  0.00  0.00    +0.064 S 
ATOM     15  O   UNL     1      -0.548  -1.312  -3.541  0.00  0.00    -0.153 OA
ATOM     16  O   UNL     1      -0.578   1.055  -2.765  0.00  0.00    -0.153 OA
BRANCH  14  19
ATOM     17  C   UNL     1      -0.018   1.503   0.010  0.00  0.00    +0.067 C 
ATOM     18  C   UNL     1       0.002  -0.004   0.002  0.00  0.00    +0.060 A 
ATOM     19  C   UNL     1       0.008  -0.796  -1.095  0.00  0.00    +0.148 A 
ATOM     20  C   UNL     1       0.028  -2.127  -0.666  0.00  0.00    +0.086 A 
ATOM     21  N   UNL     1       0.035  -2.134   0.643  0.00  0.00    -0.177 NA
ATOM     22  N   UNL     1       0.024  -0.805   1.088  0.00  0.00    -0.280 N 
ATOM     23  H   UNL     1       0.029  -0.513   2.013  0.00  0.00    +0.189 HD
ATOM     24  C   UNL     1       0.040  -3.343  -1.556  0.00  0.00    +0.069 C 
ENDBRANCH  14  19
ENDBRANCH   1  14
TORSDOF 3
