REMARK  Name = ZINC04809695
REMARK  9 active torsions:
REMARK  status: ('A' for Active; 'I' for Inactive)
REMARK    1  A    between atoms: C_1  and  C_2
REMARK    2  A    between atoms: C_4  and  C_10
REMARK    3  A    between atoms: C_5  and  O_9
REMARK    4  A    between atoms: C_7  and  C_8
REMARK    5  A    between atoms: N_18  and  C_28
REMARK    6  A    between atoms: C_19  and  C_21
REMARK    7  A    between atoms: C_28  and  C_29
REMARK    8  A    between atoms: C_29  and  C_30
REMARK    9  A    between atoms: C_30  and  O_31
REMARK                            x       y       z     vdW  Elec       q    Type
REMARK                         _______ _______ _______ _____ _____    ______ ____
ROOT
ATOM      1  C   UNL     1      -0.222  -2.942  -2.866  0.00  0.00    +0.102 A 
ATOM      2  C   UNL     1       0.035  -4.317  -2.838  0.00  0.00    +0.035 A 
ATOM      3  C   UNL     1       0.065  -4.721  -4.159  0.00  0.00    +0.126 A 
ATOM      4  N   UNL     1      -0.169  -3.600  -4.905  0.00  0.00    -0.272 N 
ATOM      5  H   UNL     1      -0.207  -3.573  -5.873  0.00  0.00    +0.189 HD
ATOM      6  N   UNL     1      -0.335  -2.587  -4.131  0.00  0.00    -0.173 NA
ATOM      7  C   UNL     1       0.330  -6.163  -4.200  0.00  0.00    +0.265 C 
ATOM      8  O   UNL     1       0.419  -6.824  -5.217  0.00  0.00    -0.268 OA
ATOM      9  N   UNL     1       0.463  -6.650  -2.953  0.00  0.00    -0.285 N 
ATOM     10  C   UNL     1       0.290  -5.542  -2.005  0.00  0.00    +0.141 C 
ENDROOT
BRANCH   1  14
ATOM     11  C   UNL     1       1.480  -1.345   1.547  0.00  0.00    +0.044 C 
ATOM     12  C   UNL     1       0.466  -1.276   0.434  0.00  0.00    -0.047 A 
ATOM     13  C   UNL     1       0.588  -2.110  -0.659  0.00  0.00    +0.017 A 
ATOM     14  C   UNL     1      -0.348  -2.048  -1.688  0.00  0.00    +0.044 A 
ATOM     15  C   UNL     1      -1.407  -1.139  -1.607  0.00  0.00    +0.126 A 
ATOM     16  C   UNL     1      -1.518  -0.308  -0.504  0.00  0.00    +0.049 A 
ATOM     17  C   UNL     1      -0.586  -0.382   0.514  0.00  0.00    -0.044 A 
ATOM     18  C   UNL     1      -0.715   0.520   1.715  0.00  0.00    +0.044 C 
BRANCH  15  19
ATOM     19  O   UNL     1      -2.325  -1.071  -2.607  0.00  0.00    -0.506 OA
ATOM     20  H   UNL     1      -3.118  -1.601  -2.450  0.00  0.00    +0.292 HD
ENDBRANCH  15  19
ENDBRANCH   1  14
BRANCH  10  21
ATOM     21  C   UNL     1      -0.887  -5.811  -1.103  0.00  0.00    -0.022 A 
ATOM     22  C   UNL     1      -2.057  -6.325  -1.629  0.00  0.00    +0.007 A 
ATOM     23  C   UNL     1      -3.137  -6.572  -0.802  0.00  0.00    +0.020 A 
ATOM     24  C   UNL     1      -3.046  -6.304   0.552  0.00  0.00    +0.041 A 
ATOM     25  C   UNL     1      -1.875  -5.790   1.078  0.00  0.00    +0.020 A 
ATOM     26  C   UNL     1      -0.794  -5.549   0.251  0.00  0.00    +0.007 A 
ATOM     27 CL   UNL     1      -4.402  -6.613   1.591  0.00  0.00    -0.084 Cl
ENDBRANCH  10  21
BRANCH   9  28
ATOM     28  C   UNL     1       0.733  -8.047  -2.602  0.00  0.00    +0.111 C 
BRANCH  28  29
ATOM     29  C   UNL     1       2.244  -8.271  -2.527  0.00  0.00    +0.047 C 
BRANCH  29  30
ATOM     30  C   UNL     1       2.526  -9.729  -2.160  0.00  0.00    +0.157 C 
BRANCH  30  31
ATOM     31  O   UNL     1       3.938  -9.939  -2.091  0.00  0.00    -0.395 OA
ATOM     32  H   UNL     1       4.190 -10.844  -1.862  0.00  0.00    +0.209 HD
ENDBRANCH  30  31
ENDBRANCH  29  30
ENDBRANCH  28  29
ENDBRANCH   9  28
TORSDOF 7
