REMARK  Name = ZINC08880425
REMARK  6 active torsions:
REMARK  status: ('A' for Active; 'I' for Inactive)
REMARK    1  A    between atoms: C_1  and  C_2
REMARK    2  A    between atoms: C_2  and  C_20
REMARK    3  A    between atoms: N_5  and  C_9
REMARK    4  A    between atoms: C_9  and  C_10
REMARK    5  A    between atoms: N_12  and  C_13
REMARK    6  A    between atoms: C_13  and  C_14
REMARK                            x       y       z     vdW  Elec       q    Type
REMARK                         _______ _______ _______ _____ _____    ______ ____
ROOT
ATOM      1  C   UNL     1       1.989   1.532   1.243  0.00  0.00    +0.047 C 
ATOM      2  C   UNL     1       1.158   1.862   0.001  0.00  0.00    +0.136 C 
ATOM      3  C   UNL     1       0.576   3.258   0.104  0.00  0.00    +0.251 C 
ATOM      4  O   UNL     1       1.188   4.302   0.188  0.00  0.00    -0.272 OA
ATOM      5  N   UNL     1      -0.761   3.098   0.084  0.00  0.00    -0.215 N 
ATOM      6  C   UNL     1      -1.102   1.808  -0.021  0.00  0.00    +0.310 C 
ATOM      7  O   UNL     1      -2.252   1.414  -0.064  0.00  0.00    -0.252 OA
ATOM      8  N   UNL     1      -0.031   0.996  -0.072  0.00  0.00    -0.281 N 
ATOM      9  H   UNL     1      -0.040   0.029  -0.146  0.00  0.00    +0.152 HD
ENDROOT
BRANCH   2  10
ATOM     10  C   UNL     1       1.993   1.723  -1.246  0.00  0.00    -0.008 A 
ATOM     11  C   UNL     1       1.628   0.844  -2.219  0.00  0.00    +0.007 A 
ATOM     12  C   UNL     1       2.384   0.705  -3.381  0.00  0.00    +0.001 A 
ATOM     13  C   UNL     1       3.516   1.437  -3.572  0.00  0.00    +0.008 A 
ATOM     14  C   UNL     1       3.927   2.350  -2.587  0.00  0.00    -0.018 A 
ATOM     15  C   UNL     1       3.155   2.495  -1.407  0.00  0.00    -0.012 A 
ATOM     16  C   UNL     1       3.568   3.409  -0.422  0.00  0.00    +0.009 A 
ATOM     17  C   UNL     1       4.700   4.140  -0.613  0.00  0.00    +0.001 A 
ATOM     18  C   UNL     1       5.459   3.997  -1.774  0.00  0.00    +0.001 A 
ATOM     19  C   UNL     1       5.090   3.123  -2.749  0.00  0.00    +0.008 A 
ENDBRANCH   2  10
BRANCH   5  20
ATOM     20  C   UNL     1      -1.724   4.199   0.163  0.00  0.00    +0.213 C 
BRANCH  20  21
ATOM     21  C   UNL     1      -2.046   4.686  -1.226  0.00  0.00    +0.231 C 
ATOM     22  O   UNL     1      -1.522   4.164  -2.188  0.00  0.00    -0.274 OA
ATOM     23  N   UNL     1      -2.914   5.702  -1.400  0.00  0.00    -0.312 N 
ATOM     24  H   UNL     1      -3.333   6.119  -0.631  0.00  0.00    +0.149 HD
BRANCH  23  25
ATOM     25  C   UNL     1      -3.227   6.175  -2.751  0.00  0.00    +0.135 C 
BRANCH  25  26
ATOM     26  C   UNL     1      -4.232   7.326  -2.668  0.00  0.00    +0.135 C 
ATOM     27  C   UNL     1      -4.672   7.758  -4.085  0.00  0.00    +0.035 C 
ATOM     28  C   UNL     1      -4.808   9.294  -3.983  0.00  0.00    +0.031 C 
ATOM     29  C   UNL     1      -4.434   9.607  -2.517  0.00  0.00    +0.160 C 
ATOM     30  O   UNL     1      -3.608   8.498  -2.102  0.00  0.00    -0.375 OA
ENDBRANCH  25  26
ENDBRANCH  23  25
ENDBRANCH  20  21
ENDBRANCH   5  20
TORSDOF 5
