REMARK  Name = ZINC63077519
REMARK  4 active torsions:
REMARK  status: ('A' for Active; 'I' for Inactive)
REMARK    1  A    between atoms: C_1  and  C_2
REMARK    2  A    between atoms: N_7  and  C_8
REMARK    3  A    between atoms: C_8  and  C_9
REMARK    4  A    between atoms: N_15  and  C_18
REMARK                            x       y       z     vdW  Elec       q    Type
REMARK                         _______ _______ _______ _____ _____    ______ ____
ROOT
ATOM      1  C   UNL     1       0.519  -1.740   3.271  0.00  0.00    +0.117 A 
ATOM      2  N   UNL     1       1.222  -2.859   3.279  0.00  0.00    -0.219 NA
ATOM      3  C   UNL     1       1.858  -3.264   4.372  0.00  0.00    +0.130 A 
ATOM      4  C   UNL     1       1.767  -2.470   5.532  0.00  0.00    +0.078 A 
ATOM      5  C   UNL     1       2.284  -2.564   6.843  0.00  0.00    +0.148 A 
ATOM      6  N   UNL     1       1.875  -1.531   7.522  0.00  0.00    -0.177 NA
ATOM      7  N   UNL     1       1.079  -0.715   6.708  0.00  0.00    -0.249 N 
ATOM      8  C   UNL     1       1.005  -1.287   5.473  0.00  0.00    +0.163 A 
ATOM      9  N   UNL     1       0.409  -0.964   4.327  0.00  0.00    -0.215 NA
ATOM     10  C   UNL     1       0.437   0.537   7.114  0.00  0.00    +0.174 C 
ATOM     11  N   UNL     1       2.591  -4.434   4.372  0.00  0.00    -0.342 N 
ATOM     12  H   UNL     1       2.645  -4.972   3.566  0.00  0.00    +0.144 HD
ATOM     13  H   UNL     1       3.051  -4.719   5.177  0.00  0.00    +0.144 HD
ENDROOT
BRANCH   1  14
ATOM     14  C   UNL     1      -0.180  -1.334   1.999  0.00  0.00    -0.001 C 
BRANCH  14  20
ATOM     15  C   UNL     1      -0.019   1.526   0.010  0.00  0.00    -0.013 C 
ATOM     16  C   UNL     1       0.002  -0.004   0.002  0.00  0.00    -0.071 C 
ATOM     17  C   UNL     1       0.760  -0.512  -1.242  0.00  0.00    -0.017 C 
ATOM     18  C   UNL     1       2.185  -0.791  -0.694  0.00  0.00    -0.020 C 
ATOM     19  C   UNL     1       1.875  -1.311   0.732  0.00  0.00    -0.078 C 
ATOM     20  N   UNL     1       0.720  -0.502   1.189  0.00  0.00    +0.386 N 
ATOM     21  H   UNL     1       1.048   0.277   1.740  0.00  0.00    -0.081 HD
ENDBRANCH  14  20
ENDBRANCH   1  14
TORSDOF 2
