REMARK  Name = ZINC35739772
REMARK  6 active torsions:
REMARK  status: ('A' for Active; 'I' for Inactive)
REMARK    1  A    between atoms: C_1  and  C_2
REMARK    2  A    between atoms: C_2  and  C_4
REMARK    3  A    between atoms: C_2  and  N_9
REMARK    4  A    between atoms: N_9  and  S_10
REMARK    5  A    between atoms: S_10  and  C_13
REMARK    6  A    between atoms: C_16  and  O_19
REMARK                            x       y       z     vdW  Elec       q    Type
REMARK                         _______ _______ _______ _____ _____    ______ ____
ROOT
ATOM      1  S   UNL     1       2.300  -0.849  -1.146  0.00  0.00    +0.059 S 
ATOM      2  O   UNL     1       2.660  -1.296  -2.446  0.00  0.00    -0.153 OA
ATOM      3  O   UNL     1       2.947   0.245  -0.511  0.00  0.00    -0.153 OA
ENDROOT
BRANCH   1   4
ATOM      4  C   UNL     1       2.478  -2.233  -0.071  0.00  0.00    +0.105 A 
ATOM      5  C   UNL     1       2.680  -2.034   1.283  0.00  0.00    +0.032 A 
ATOM      6  C   UNL     1       2.820  -3.118   2.128  0.00  0.00    +0.047 A 
ATOM      7  C   UNL     1       2.757  -4.406   1.618  0.00  0.00    +0.117 A 
ATOM      8  C   UNL     1       2.553  -4.603   0.260  0.00  0.00    +0.047 A 
ATOM      9  C   UNL     1       2.409  -3.517  -0.580  0.00  0.00    +0.032 A 
BRANCH   7  10
ATOM     10  O   UNL     1       2.894  -5.474   2.448  0.00  0.00    -0.507 OA
ATOM     11  H   UNL     1       2.061  -5.793   2.820  0.00  0.00    +0.292 HD
ENDBRANCH   7  10
ENDBRANCH   1   4
BRANCH   1  12
ATOM     12  N   UNL     1       0.688  -0.476  -1.203  0.00  0.00    -0.180 NA
ATOM     13  H   UNL     1       0.197  -0.571  -2.035  0.00  0.00    +0.149 HD
BRANCH  12  15
ATOM     14  C   UNL     1      -0.019   1.526   0.010  0.00  0.00    +0.034 C 
ATOM     15  C   UNL     1       0.002  -0.004   0.002  0.00  0.00    +0.139 C 
BRANCH  15  16
ATOM     16  C   UNL     1      -1.412  -0.526   0.013  0.00  0.00    +0.123 A 
ATOM     17  C   UNL     1      -2.076  -0.977   1.092  0.00  0.00    +0.046 A 
ATOM     18  C   UNL     1      -3.361  -1.364   0.650  0.00  0.00    +0.041 A 
ATOM     19  C   UNL     1      -3.406  -1.127  -0.673  0.00  0.00    +0.195 A 
ATOM     20  O   UNL     1      -2.224  -0.614  -1.053  0.00  0.00    -0.466 OA
ENDBRANCH  15  16
ENDBRANCH  12  15
ENDBRANCH   1  12
TORSDOF 5
