REMARK  Name = ZINC04089459
REMARK  6 active torsions:
REMARK  status: ('A' for Active; 'I' for Inactive)
REMARK    1  A    between atoms: C_1  and  C_2
REMARK    2  A    between atoms: C_2  and  C_30
REMARK    3  A    between atoms: C_3  and  C_17
REMARK    4  A    between atoms: N_19  and  CA_20
REMARK    5  A    between atoms: CA_20  and  C_22
REMARK    6  A    between atoms: CA_20  and  C_28
REMARK                            x       y       z     vdW  Elec       q    Type
REMARK                         _______ _______ _______ _____ _____    ______ ____
ROOT
ATOM      1  C   UNL     1       6.507   4.012   1.943  0.00  0.00    +0.025 C 
ATOM      2  C   UNL     1       6.423   2.565   1.453  0.00  0.00    +0.040 C 
ATOM      3  C   UNL     1       5.442   1.741   2.321  0.00  0.00    +0.179 C 
ATOM      4  N   UNL     1       6.109   0.739   3.155  0.00  0.00    -0.269 N 
ATOM      5  C   UNL     1       7.281   0.143   2.450  0.00  0.00    +0.167 C 
ATOM      6  S   UNL     1       8.012   1.679   1.740  0.00  0.00    -0.125 S 
ATOM      7  C   UNL     1       8.165  -0.406   3.531  0.00  0.00    -0.005 A 
ATOM      8  C   UNL     1       9.467  -0.851   3.563  0.00  0.00    +0.007 A 
ATOM      9  C   UNL     1      10.007  -1.330   4.745  0.00  0.00    +0.000 A 
ATOM     10  C   UNL     1       9.242  -1.363   5.897  0.00  0.00    +0.001 A 
ATOM     11  C   UNL     1       7.938  -0.912   5.879  0.00  0.00    +0.013 A 
ATOM     12  C   UNL     1       7.389  -0.420   4.694  0.00  0.00    +0.043 A 
ATOM     13  C   UNL     1       6.070   0.158   4.373  0.00  0.00    +0.249 C 
ATOM     14  O   UNL     1       5.094   0.116   5.097  0.00  0.00    -0.270 OA
ATOM     15  C   UNL     1       6.026   2.511  -0.024  0.00  0.00    +0.025 C 
ENDROOT
BRANCH   3  16
ATOM     16  C   UNL     1       4.464   1.041   1.413  0.00  0.00    +0.236 C 
ATOM     17  O   UNL     1       4.597  -0.141   1.175  0.00  0.00    -0.274 OA
ATOM     18  N   UNL     1       3.441   1.728   0.867  0.00  0.00    -0.297 N 
ATOM     19  H   UNL     1       3.335   2.673   1.058  0.00  0.00    +0.150 HD
BRANCH  18  20
ATOM     20  CA  UNL     1       2.490   1.048  -0.016  0.00  0.00    +0.217 C 
BRANCH  20  21
ATOM     21  C   UNL     1       1.175   1.783   0.000  0.00  0.00    -0.016 A 
ATOM     22  C   UNL     1      -0.013   1.076   0.008  0.00  0.00    +0.006 A 
ATOM     23  C   UNL     1      -1.219   1.751   0.017  0.00  0.00    +0.000 A 
ATOM     24  C   UNL     1      -1.238   3.133   0.029  0.00  0.00    +0.000 A 
ATOM     25  C   UNL     1      -0.050   3.840   0.022  0.00  0.00    +0.000 A 
ATOM     26  C   UNL     1       1.156   3.165   0.008  0.00  0.00    +0.006 A 
ENDBRANCH  20  21
BRANCH  20  27
ATOM     27  C   UNL     1       3.036   1.025  -1.420  0.00  0.00    +0.380 C 
ATOM     28  O   UNL     1       4.109   1.526  -1.659  0.00  0.00    -0.244 OA
ATOM     29  OXT UNL     1       2.330   0.448  -2.405  0.00  0.00    -0.244 OA
ENDBRANCH  20  27
ENDBRANCH  18  20
ENDBRANCH   3  16
TORSDOF 4
