REMARK  Name = ZINC36703726
REMARK  10 active torsions:
REMARK  status: ('A' for Active; 'I' for Inactive)
REMARK    1  A    between atoms: C_1  and  C_2
REMARK    2  A    between atoms: C_2  and  C_3
REMARK    3  A    between atoms: C_3  and  C_4
REMARK    4  A    between atoms: C_4  and  C_6
REMARK    5  A    between atoms: C_4  and  N_7
REMARK    6  A    between atoms: C_8  and  C_10
REMARK    7  A    between atoms: C_12  and  N_19
REMARK    8  A    between atoms: C_15  and  N_16
REMARK    9  A    between atoms: N_16  and  C_17
REMARK   10  A    between atoms: N_16  and  C_18
REMARK                            x       y       z     vdW  Elec       q    Type
REMARK                         _______ _______ _______ _____ _____    ______ ____
ROOT
ATOM      1  C   UNL     1       2.114  -4.209  -1.576  0.00  0.00    +0.060 A 
ATOM      2  C   UNL     1       3.109  -3.397  -2.127  0.00  0.00    +0.047 A 
ATOM      3  C   UNL     1       3.846  -3.846  -3.200  0.00  0.00    +0.127 A 
ATOM      4  C   UNL     1       3.607  -5.101  -3.739  0.00  0.00    +0.034 A 
ATOM      5  C   UNL     1       2.627  -5.914  -3.207  0.00  0.00    +0.026 A 
ATOM      6  C   UNL     1       1.877  -5.481  -2.120  0.00  0.00    +0.042 A 
ENDROOT
BRANCH   1   8
ATOM      7  N   UNL     1       1.551  -2.512   0.092  0.00  0.00    -0.309 N 
ATOM      8  C   UNL     1       1.321  -3.735  -0.427  0.00  0.00    +0.246 C 
ATOM      9  O   UNL     1       0.459  -4.446   0.052  0.00  0.00    -0.270 OA
ATOM     10  H   UNL     1       2.238  -1.944  -0.291  0.00  0.00    +0.149 HD
BRANCH   7  11
ATOM     11  C   UNL     1       0.763  -2.041   1.233  0.00  0.00    +0.070 C 
ATOM     12  C   UNL     1       1.392  -2.549   2.532  0.00  0.00    +0.028 C 
BRANCH  11  13
ATOM     13  C   UNL     1       0.742  -0.511   1.242  0.00  0.00    +0.022 C 
BRANCH  13  15
ATOM     14  C   UNL     1      -0.019   1.526   0.010  0.00  0.00    +0.004 C 
ATOM     15  C   UNL     1       0.002  -0.004   0.002  0.00  0.00    -0.002 C 
ENDBRANCH  13  15
ENDBRANCH  11  13
ENDBRANCH   7  11
ENDBRANCH   1   8
BRANCH   6  16
ATOM     16  N   UNL     1       0.896  -6.301  -1.579  0.00  0.00    -0.335 N 
ATOM     17  C   UNL     1       1.232  -7.231  -0.498  0.00  0.00    +0.129 C 
ATOM     18  C   UNL     1      -0.476  -6.234  -2.088  0.00  0.00    +0.129 C 
ENDBRANCH   6  16
BRANCH   3  19
ATOM     19  N   UNL     1       4.899  -2.984  -3.782  0.00  0.00    +0.056 N 
ATOM     20  O   UNL     1       5.111  -1.889  -3.315  0.00  0.00    -0.126 OA
ATOM     21  O   UNL     1       5.548  -3.375  -4.724  0.00  0.00    -0.126 OA
ENDBRANCH   3  19
TORSDOF 6
