REMARK  Name = ZINC44037926
REMARK  7 active torsions:
REMARK  status: ('A' for Active; 'I' for Inactive)
REMARK    1  A    between atoms: C_1  and  C_2
REMARK    2  A    between atoms: C_2  and  C_3
REMARK    3  A    between atoms: C_2  and  C_4
REMARK    4  A    between atoms: C_2  and  N_20
REMARK    5  A    between atoms: C_4  and  N_5
REMARK    6  A    between atoms: N_8  and  C_9
REMARK    7  A    between atoms: C_12  and  N_15
REMARK                            x       y       z     vdW  Elec       q    Type
REMARK                         _______ _______ _______ _____ _____    ______ ____
ROOT
ATOM      1  N   UNL     1      -1.746  -1.793  -0.656  0.00  0.00    -0.300 N 
ATOM      2  C   UNL     1      -2.951  -2.229  -1.075  0.00  0.00    +0.304 C 
ATOM      3  O   UNL     1      -3.894  -1.463  -1.118  0.00  0.00    -0.253 OA
ATOM      4  N   UNL     1      -3.110  -3.515  -1.446  0.00  0.00    -0.269 N 
ATOM      5  H   UNL     1      -0.994  -2.405  -0.622  0.00  0.00    +0.150 HD
ATOM      6  H   UNL     1      -2.379  -4.144  -1.342  0.00  0.00    +0.156 HD
ENDROOT
BRANCH   4   7
ATOM      7  C   UNL     1      -4.331  -3.943  -1.982  0.00  0.00    +0.035 A 
ATOM      8  C   UNL     1      -4.774  -5.239  -1.752  0.00  0.00    +0.025 A 
ATOM      9  C   UNL     1      -5.978  -5.660  -2.280  0.00  0.00    +0.029 A 
ATOM     10  C   UNL     1      -6.746  -4.788  -3.041  0.00  0.00    +0.067 A 
ATOM     11  C   UNL     1      -6.302  -3.493  -3.271  0.00  0.00    +0.029 A 
ATOM     12  C   UNL     1      -5.101  -3.070  -2.739  0.00  0.00    +0.025 A 
BRANCH  10  13
ATOM     13  N   UNL     1      -7.969  -5.217  -3.577  0.00  0.00    -0.220 N 
ATOM     14  C   UNL     1      -8.816  -4.494  -4.335  0.00  0.00    +0.225 A 
ATOM     15  N   UNL     1      -9.840  -5.252  -4.634  0.00  0.00    -0.222 NA
ATOM     16  C   UNL     1      -9.685  -6.458  -4.089  0.00  0.00    +0.245 A 
ATOM     17  N   UNL     1      -8.552  -6.487  -3.437  0.00  0.00    -0.154 NA
ENDBRANCH  10  13
ENDBRANCH   4   7
BRANCH   1  18
ATOM     18  C   UNL     1      -1.573  -0.395  -0.253  0.00  0.00    +0.093 C 
BRANCH  18  20
ATOM     19  C   UNL     1       0.059   1.295   0.597  0.00  0.00    -0.008 C 
ATOM     20  C   UNL     1      -0.122  -0.164   0.176  0.00  0.00    -0.055 C 
ATOM     21  C   UNL     1       0.213  -1.081   1.354  0.00  0.00    -0.008 C 
BRANCH  20  22
ATOM     22  N   UNL     1       0.774  -0.464  -0.949  0.00  0.00    +0.387 N 
ATOM     23  C   UNL     1       2.153  -0.097  -0.590  0.00  0.00    -0.073 C 
ATOM     24  C   UNL     1       3.102  -0.691  -1.632  0.00  0.00    +0.017 C 
ATOM     25  C   UNL     1       2.633  -0.324  -3.017  0.00  0.00    -0.048 A 
ATOM     26  C   UNL     1       3.518  -0.459  -4.075  0.00  0.00    +0.004 A 
ATOM     27  C   UNL     1       3.123  -0.136  -5.358  0.00  0.00    +0.000 A 
ATOM     28  C   UNL     1       1.840   0.326  -5.588  0.00  0.00    +0.000 A 
ATOM     29  C   UNL     1       0.960   0.462  -4.534  0.00  0.00    +0.002 A 
ATOM     30  C   UNL     1       1.355   0.139  -3.244  0.00  0.00    -0.061 A 
ATOM     31  C   UNL     1       0.364   0.311  -2.123  0.00  0.00    -0.042 C 
ATOM     32  H   UNL     1       0.730  -1.449  -1.162  0.00  0.00    -0.080 HD
ENDBRANCH  20  22
ENDBRANCH  18  20
ENDBRANCH   1  18
TORSDOF 5
