REMARK  Name = ZINC36849594
REMARK  6 active torsions:
REMARK  status: ('A' for Active; 'I' for Inactive)
REMARK    1  A    between atoms: C_1  and  C_2
REMARK    2  A    between atoms: C_8  and  N_10
REMARK    3  A    between atoms: C_14  and  C_16
REMARK    4  A    between atoms: C_16  and  N_17
REMARK    5  A    between atoms: C_20  and  C_24
REMARK    6  A    between atoms: C_20  and  C_25
REMARK                            x       y       z     vdW  Elec       q    Type
REMARK                         _______ _______ _______ _____ _____    ______ ____
ROOT
ATOM      1  N   UNL     1       1.035   1.202   8.219  0.00  0.00    -0.215 N 
ATOM      2  C   UNL     1       1.278   0.177   9.059  0.00  0.00    +0.251 C 
ATOM      3  O   UNL     1       0.770  -0.924   9.038  0.00  0.00    -0.272 OA
ATOM      4  C   UNL     1       2.319   0.686  10.036  0.00  0.00    +0.135 C 
ATOM      5  N   UNL     1       2.565   2.068   9.591  0.00  0.00    -0.281 N 
ATOM      6  C   UNL     1       1.774   2.275   8.523  0.00  0.00    +0.310 C 
ATOM      7  O   UNL     1       1.732   3.320   7.904  0.00  0.00    -0.252 OA
ATOM      8  C   UNL     1       1.770   0.670  11.464  0.00  0.00    +0.047 C 
ATOM      9  H   UNL     1       3.179   2.705   9.988  0.00  0.00    +0.152 HD
ENDROOT
BRANCH   4  10
ATOM     10  C   UNL     1       3.580  -0.134   9.942  0.00  0.00    -0.015 A 
ATOM     11  C   UNL     1       3.514  -1.465   9.574  0.00  0.00    +0.006 A 
ATOM     12  C   UNL     1       4.671  -2.214   9.488  0.00  0.00    +0.004 A 
ATOM     13  C   UNL     1       5.898  -1.637   9.770  0.00  0.00    -0.044 A 
ATOM     14  C   UNL     1       5.964  -0.306  10.138  0.00  0.00    -0.044 A 
ATOM     15  C   UNL     1       4.803   0.445  10.218  0.00  0.00    +0.010 A 
ATOM     16  C   UNL     1       7.404   0.084  10.391  0.00  0.00    +0.036 C 
ATOM     17  C   UNL     1       8.160  -1.250  10.564  0.00  0.00    +0.009 C 
ATOM     18  C   UNL     1       7.290  -2.231   9.750  0.00  0.00    +0.036 C 
ENDBRANCH   4  10
BRANCH   1  19
ATOM     19  C   UNL     1       0.083   1.145   7.106  0.00  0.00    +0.214 C 
BRANCH  19  24
ATOM     20  N   UNL     1       0.056  -0.038   2.447  0.00  0.00    -0.296 N 
ATOM     21  C   UNL     1       0.738   0.093   3.602  0.00  0.00    +0.306 C 
ATOM     22  O   UNL     1       1.921  -0.180   3.644  0.00  0.00    -0.252 OA
ATOM     23  N   UNL     1       0.107   0.528   4.711  0.00  0.00    -0.239 N 
ATOM     24  C   UNL     1       0.789   0.659   5.866  0.00  0.00    +0.238 C 
ATOM     25  O   UNL     1       1.969   0.387   5.908  0.00  0.00    -0.274 OA
ATOM     26  H   UNL     1      -0.888   0.180   2.413  0.00  0.00    +0.151 HD
ATOM     27  H   UNL     1      -0.838   0.746   4.678  0.00  0.00    +0.159 HD
BRANCH  20  34
ATOM     28  C   UNL     1      -0.019   1.526   0.010  0.00  0.00    +0.009 C 
ATOM     29  C   UNL     1       0.002  -0.004   0.002  0.00  0.00    +0.006 C 
ATOM     30  C   UNL     1      -1.433  -0.534   0.013  0.00  0.00    +0.005 C 
ATOM     31  C   UNL     1      -1.413  -2.063   0.004  0.00  0.00    +0.000 C 
ATOM     32  C   UNL     1      -0.673  -2.570   1.244  0.00  0.00    +0.002 C 
ATOM     33  C   UNL     1       0.763  -2.041   1.233  0.00  0.00    +0.022 C 
ATOM     34  C   UNL     1       0.742  -0.511   1.242  0.00  0.00    +0.077 C 
ENDBRANCH  20  34
ENDBRANCH  19  24
ENDBRANCH   1  19
TORSDOF 4
