REMARK  Name = ZINC02123699
REMARK  11 active torsions:
REMARK  status: ('A' for Active; 'I' for Inactive)
REMARK    1  A    between atoms: C_1  and  C_2
REMARK    2  A    between atoms: C_4  and  O_31
REMARK    3  A    between atoms: C_6  and  C_30
REMARK    4  A    between atoms: C_7  and  C_13
REMARK    5  A    between atoms: C_13  and  C_14
REMARK    6  A    between atoms: N_16  and  C_17
REMARK    7  A    between atoms: C_17  and  C_19
REMARK    8  A    between atoms: C_17  and  C_28
REMARK    9  A    between atoms: C_19  and  S_20
REMARK   10  A    between atoms: S_20  and  C_21
REMARK   11  A    between atoms: C_21  and  C_22
REMARK                            x       y       z     vdW  Elec       q    Type
REMARK                         _______ _______ _______ _____ _____    ______ ____
ROOT
ATOM      1  C   UNK A   0      -2.419   0.586  -1.602  0.00  0.00    +0.218 C 
ATOM      2  O   UNK A   0      -1.998   0.724  -2.731  0.00  0.00    -0.275 OA
ATOM      3  N   UNK A   1      -1.798   1.194  -0.572  0.00  0.00    -0.301 N 
ATOM      4  H   UNK A   1      -2.135   1.083   0.331  0.00  0.00    +0.150 HD
ENDROOT
BRANCH   1   5
ATOM      5  C   UNK A   0      -3.636  -0.266  -1.351  0.00  0.00    +0.138 C 
BRANCH   5  12
ATOM      6  C   UNK A   0      -5.728  -3.943  -8.114  0.00  0.00    +0.044 C 
ATOM      7  C   UNK A   0      -5.186  -3.442  -6.800  0.00  0.00    -0.043 A 
ATOM      8  C   UNK A   0      -4.255  -4.202  -6.110  0.00  0.00    +0.049 A 
ATOM      9  C   UNK A   0      -3.748  -3.756  -4.902  0.00  0.00    +0.128 A 
ATOM     10  C   UNK A   0      -4.185  -2.527  -4.382  0.00  0.00    +0.062 A 
ATOM     11  C   UNK A   0      -3.672  -2.023  -3.107  0.00  0.00    -0.026 A 
ATOM     12  C   UNK A   0      -4.135  -0.827  -2.658  0.00  0.00    +0.049 A 
ATOM     13  C   UNK A   0      -5.088  -0.115  -3.415  0.00  0.00    +0.341 A 
ATOM     14  O   UNK A   0      -5.499   0.953  -2.998  0.00  0.00    -0.245 OA
ATOM     15  O   UNK A   0      -5.550  -0.582  -4.585  0.00  0.00    -0.422 OA
ATOM     16  C   UNK A   0      -5.130  -1.763  -5.088  0.00  0.00    +0.143 A 
ATOM     17  C   UNK A   0      -5.623  -2.233  -6.298  0.00  0.00    +0.050 A 
ATOM     18  C   UNK A   0      -2.658  -2.807  -2.316  0.00  0.00    +0.045 C 
BRANCH   9  19
ATOM     19  O   UNK A   0      -2.836  -4.500  -4.227  0.00  0.00    -0.506 OA
ATOM     20  H   UNK A   0      -3.225  -5.128  -3.603  0.00  0.00    +0.292 HD
ENDBRANCH   9  19
ENDBRANCH   5  12
ENDBRANCH   1   5
BRANCH   3  21
ATOM     21  C   UNK A   1      -0.614   2.022  -0.816  0.00  0.00    +0.196 C 
BRANCH  21  22
ATOM     22  C   UNK A   1       0.612   1.147  -0.850  0.00  0.00    +0.377 C 
ATOM     23  O   UNK A   1       0.509  -0.045  -0.688  0.00  0.00    -0.244 OA
ATOM     24  O   UNK A   1       1.820   1.693  -1.067  0.00  0.00    -0.244 OA
ENDBRANCH  21  22
BRANCH  21  25
ATOM     25  C   UNK A   1      -0.474   3.054   0.305  0.00  0.00    +0.103 C 
BRANCH  25  26
ATOM     26  S   UNK A   1      -1.950   4.106   0.347  0.00  0.00    -0.154 S 
BRANCH  26  27
ATOM     27  C   UNK A   1      -1.629   5.259   1.711  0.00  0.00    +0.104 C 
BRANCH  27  28
ATOM     28  C   UNK A   1      -2.795   6.202   1.856  0.00  0.00    -0.038 A 
ATOM     29  C   UNK A   1      -2.807   7.398   1.162  0.00  0.00    +0.004 A 
ATOM     30  C   UNK A   1      -3.879   8.262   1.291  0.00  0.00    +0.000 A 
ATOM     31  C   UNK A   1      -4.934   7.934   2.122  0.00  0.00    +0.000 A 
ATOM     32  C   UNK A   1      -4.919   6.741   2.821  0.00  0.00    +0.000 A 
ATOM     33  C   UNK A   1      -3.850   5.875   2.687  0.00  0.00    +0.004 A 
ENDBRANCH  27  28
ENDBRANCH  26  27
ENDBRANCH  25  26
ENDBRANCH  21  25
ENDBRANCH   3  21
TORSDOF 9
