REMARK  Name = ZINC50004753
REMARK  7 active torsions:
REMARK  status: ('A' for Active; 'I' for Inactive)
REMARK    1  A    between atoms: C_1  and  O_2
REMARK    2  A    between atoms: O_2  and  C_3
REMARK    3  A    between atoms: C_6  and  C_9
REMARK    4  A    between atoms: N_13  and  N_14
REMARK    5  A    between atoms: C_15  and  C_16
REMARK    6  A    between atoms: C_19  and  O_23
REMARK    7  A    between atoms: C_21  and  O_22
REMARK                            x       y       z     vdW  Elec       q    Type
REMARK                         _______ _______ _______ _____ _____    ______ ____
ROOT
ATOM      1  C   UNL     1       2.427  -3.095  -5.380  0.00  0.00    +0.184 A 
ATOM      2  N   UNL     1       2.996  -2.846  -6.527  0.00  0.00    -0.152 NA
ATOM      3  N   UNL     1       3.535  -4.045  -7.013  0.00  0.00    -0.253 N 
ATOM      4  C   UNL     1       3.261  -5.009  -6.110  0.00  0.00    +0.197 A 
ATOM      5  N   UNL     1       2.583  -4.437  -5.095  0.00  0.00    -0.188 N 
ATOM      6  S   UNL     1       3.701  -6.659  -6.229  0.00  0.00    -0.010 S 
ATOM      7  H   UNL     1       4.016  -4.161  -7.847  0.00  0.00    +0.191 HD
ENDROOT
BRANCH   1  11
ATOM      8  C   UNL     1       0.441  -0.250  -2.925  0.00  0.00    +0.120 A 
ATOM      9  C   UNL     1       1.002   0.148  -4.131  0.00  0.00    +0.046 A 
ATOM     10  C   UNL     1       1.647  -0.772  -4.930  0.00  0.00    +0.015 A 
ATOM     11  C   UNL     1       1.736  -2.105  -4.525  0.00  0.00    +0.021 A 
ATOM     12  C   UNL     1       1.171  -2.501  -3.312  0.00  0.00    +0.015 A 
ATOM     13  C   UNL     1       0.533  -1.574  -2.516  0.00  0.00    +0.046 A 
BRANCH   8  15
ATOM     14  C   UNL     1      -0.252   2.003  -2.621  0.00  0.00    +0.277 C 
ATOM     15  O   UNL     1      -0.194   0.659  -2.140  0.00  0.00    -0.495 OA
ENDBRANCH   8  15
ENDBRANCH   1  11
BRANCH   5  16
ATOM     16  N   UNL     1       2.115  -5.093  -3.949  0.00  0.00    -0.170 NA
ATOM     17  C   UNL     1       2.950  -5.703  -3.162  0.00  0.00    +0.145 C 
BRANCH  17  18
ATOM     18  C   UNL     1       4.400  -5.558  -3.373  0.00  0.00    +0.036 A 
ATOM     19  C   UNL     1       4.902  -4.447  -4.057  0.00  0.00    +0.016 A 
ATOM     20  C   UNL     1       6.259  -4.315  -4.252  0.00  0.00    +0.046 A 
ATOM     21  C   UNL     1       7.132  -5.284  -3.771  0.00  0.00    +0.120 A 
ATOM     22  C   UNL     1       6.644  -6.390  -3.092  0.00  0.00    +0.091 A 
ATOM     23  C   UNL     1       5.283  -6.531  -2.884  0.00  0.00    +0.129 A 
BRANCH  23  24
ATOM     24  O   UNL     1       4.804  -7.610  -2.213  0.00  0.00    -0.506 OA
ATOM     25  H   UNL     1       4.528  -8.338  -2.786  0.00  0.00    +0.292 HD
ENDBRANCH  23  24
BRANCH  21  26
ATOM     26  O   UNL     1       8.469  -5.147  -3.968  0.00  0.00    -0.507 OA
ATOM     27  H   UNL     1       8.924  -4.668  -3.262  0.00  0.00    +0.292 HD
ENDBRANCH  21  26
ENDBRANCH  17  18
ENDBRANCH   5  16
TORSDOF 6
