REMARK  Name = ZINC08656825
REMARK  7 active torsions:
REMARK  status: ('A' for Active; 'I' for Inactive)
REMARK    1  A    between atoms: C_1  and  C_2
REMARK    2  A    between atoms: C_5  and  N_8
REMARK    3  A    between atoms: N_19  and  C_24
REMARK    4  A    between atoms: N_22  and  C_23
REMARK    5  A    between atoms: C_24  and  C_25
REMARK    6  A    between atoms: C_25  and  C_26
REMARK    7  A    between atoms: C_26  and  O_27
REMARK                            x       y       z     vdW  Elec       q    Type
REMARK                         _______ _______ _______ _____ _____    ______ ____
ROOT
ATOM      1  N   UNL     1       3.868   1.097   6.863  0.00  0.00    -0.271 N 
ATOM      2  C   UNL     1       4.849   2.172   6.623  0.00  0.00    +0.115 C 
ATOM      3  C   UNL     1       4.102   3.416   6.129  0.00  0.00    +0.041 C 
ATOM      4  C   UNL     1       3.418   3.110   4.792  0.00  0.00    +0.127 C 
ATOM      5  N   UNL     1       2.671   1.857   4.918  0.00  0.00    -0.306 N 
ATOM      6  C   UNL     1       2.893   0.928   5.894  0.00  0.00    +0.205 A 
ATOM      7  N   UNL     1       2.063  -0.074   5.738  0.00  0.00    -0.196 NA
ATOM      8  C   UNL     1       1.281   0.146   4.677  0.00  0.00    +0.170 A 
ATOM      9  C   UNL     1       1.645   1.374   4.130  0.00  0.00    +0.153 A 
ATOM     10  C   UNL     1       0.966   1.842   2.990  0.00  0.00    +0.282 A 
ATOM     11  O   UNL     1       1.264   2.913   2.493  0.00  0.00    -0.265 OA
ATOM     12  N   UNL     1      -0.020   1.094   2.454  0.00  0.00    -0.259 N 
ATOM     13  C   UNL     1      -0.366  -0.087   2.994  0.00  0.00    +0.333 A 
ATOM     14  O   UNL     1      -1.264  -0.732   2.486  0.00  0.00    -0.246 OA
ATOM     15  N   UNL     1       0.261  -0.576   4.080  0.00  0.00    -0.280 N 
ATOM     16  C   UNL     1      -0.142  -1.870   4.637  0.00  0.00    +0.155 C 
ENDROOT
BRANCH   1  21
ATOM     17  C   UNL     1       4.077  -2.165  11.498  0.00  0.00    +0.044 C 
ATOM     18  C   UNL     1       4.021  -1.298  10.267  0.00  0.00    -0.050 A 
ATOM     19  C   UNL     1       3.030  -1.501   9.325  0.00  0.00    +0.005 A 
ATOM     20  C   UNL     1       2.976  -0.708   8.195  0.00  0.00    +0.024 A 
ATOM     21  C   UNL     1       3.919   0.293   8.006  0.00  0.00    +0.036 A 
ATOM     22  C   UNL     1       4.917   0.491   8.951  0.00  0.00    +0.024 A 
ATOM     23  C   UNL     1       4.962  -0.301  10.082  0.00  0.00    +0.005 A 
ENDBRANCH   1  21
BRANCH  12  24
ATOM     24  C   UNL     1      -0.729   1.579   1.267  0.00  0.00    +0.132 C 
BRANCH  24  25
ATOM     25  C   UNL     1      -0.013   1.086   0.008  0.00  0.00    +0.049 C 
BRANCH  25  26
ATOM     26  C   UNL     1      -0.753   1.593  -1.232  0.00  0.00    +0.157 C 
BRANCH  26  27
ATOM     27  O   UNL     1      -0.084   1.132  -2.407  0.00  0.00    -0.395 OA
ATOM     28  H   UNL     1      -0.499   1.416  -3.233  0.00  0.00    +0.209 HD
ENDBRANCH  26  27
ENDBRANCH  25  26
ENDBRANCH  24  25
ENDBRANCH  12  24
TORSDOF 5
