REMARK  Name = ZINC38783300
REMARK  8 active torsions:
REMARK  status: ('A' for Active; 'I' for Inactive)
REMARK    1  A    between atoms: C_1  and  N_2
REMARK    2  A    between atoms: N_2  and  C_3
REMARK    3  A    between atoms: N_2  and  S_22
REMARK    4  A    between atoms: C_3  and  C_4
REMARK    5  A    between atoms: N_6  and  C_7
REMARK    6  A    between atoms: C_10  and  C_13
REMARK    7  A    between atoms: S_22  and  C_25
REMARK    8  A    between atoms: C_28  and  C_31
REMARK                            x       y       z     vdW  Elec       q    Type
REMARK                         _______ _______ _______ _____ _____    ______ ____
ROOT
ATOM      1  C   UNL     1      -1.384  -0.909   1.776  0.00  0.00    +0.231 C 
ATOM      2  O   UNL     1      -2.315  -0.455   1.145  0.00  0.00    -0.274 OA
ATOM      3  N   UNL     1      -1.610  -1.563   2.933  0.00  0.00    -0.284 N 
ATOM      4  H   UNL     1      -0.866  -1.926   3.438  0.00  0.00    +0.152 HD
ENDROOT
BRANCH   3   5
ATOM      5  C   UNL     1      -2.979  -1.724   3.429  0.00  0.00    +0.251 C 
ATOM      6  N   UNL     1      -3.031  -2.688   4.546  0.00  0.00    -0.254 NA
ATOM      7  C   UNL     1      -3.667  -2.398   5.613  0.00  0.00    +0.054 C 
ATOM      8  C   UNL     1      -4.358  -1.046   5.699  0.00  0.00    +0.128 C 
ATOM      9  S   UNL     1      -3.570  -0.188   4.265  0.00  0.00    -0.109 S 
BRANCH   7  10
ATOM     10  C   UNL     1      -3.727  -3.315   6.694  0.00  0.00    +0.002 C 
ATOM     11  C   UNL     1      -3.147  -4.567   6.759  0.00  0.00    +0.005 A 
ATOM     12  C   UNL     1      -2.358  -5.310   5.847  0.00  0.00    +0.010 A 
ATOM     13  C   UNL     1      -1.913  -6.542   6.179  0.00  0.00    +0.001 A 
ATOM     14  C   UNL     1      -2.202  -7.138   7.415  0.00  0.00    +0.002 A 
ATOM     15  C   UNL     1      -2.948  -6.513   8.354  0.00  0.00    +0.026 A 
ATOM     16  C   UNL     1      -3.470  -5.169   8.073  0.00  0.00    +0.043 A 
ATOM     17  N   UNL     1      -4.202  -4.351   8.783  0.00  0.00    -0.380 N 
ATOM     18  C   UNL     1      -4.434  -3.123   8.017  0.00  0.00    +0.150 C 
ATOM     19  H   UNL     1      -4.535  -4.528   9.677  0.00  0.00    +0.160 HD
ENDBRANCH   7  10
ENDBRANCH   3   5
BRANCH   1  20
ATOM     20  C   UNL     1       0.024  -0.743   1.267  0.00  0.00    +0.204 C 
BRANCH  20  22
ATOM     21  C   UNL     1      -0.018   1.461   0.010  0.00  0.00    +0.132 C 
ATOM     22  N   UNL     1       0.002  -0.004   0.002  0.00  0.00    -0.171 NA
BRANCH  22  23
ATOM     23  S   UNL     1      -0.000  -0.824  -1.437  0.00  0.00    +0.061 S 
ATOM     24  O   UNL     1      -0.531  -2.115  -1.167  0.00  0.00    -0.153 OA
ATOM     25  O   UNL     1      -0.572   0.049  -2.401  0.00  0.00    -0.153 OA
BRANCH  23  26
ATOM     26  C   UNL     1       1.682  -1.059  -1.905  0.00  0.00    +0.106 A 
ATOM     27  C   UNL     1       2.321  -0.106  -2.678  0.00  0.00    +0.030 A 
ATOM     28  C   UNL     1       3.638  -0.284  -3.048  0.00  0.00    +0.021 A 
ATOM     29  C   UNL     1       4.326  -1.429  -2.641  0.00  0.00    +0.052 A 
ATOM     30  C   UNL     1       3.675  -2.386  -1.861  0.00  0.00    +0.021 A 
ATOM     31  C   UNL     1       2.359  -2.194  -1.494  0.00  0.00    +0.030 A 
BRANCH  29  32
ATOM     32  C   UNL     1       5.693  -1.620  -3.022  0.00  0.00    +0.099 C 
ATOM     33  N   UNL     1       6.777  -1.772  -3.325  0.00  0.00    -0.191 NA
ENDBRANCH  29  32
ENDBRANCH  23  26
ENDBRANCH  22  23
ENDBRANCH  20  22
ENDBRANCH   1  20
TORSDOF 7
