REMARK  Name = ZINC54414703
REMARK  6 active torsions:
REMARK  status: ('A' for Active; 'I' for Inactive)
REMARK    1  A    between atoms: C_1  and  C_2
REMARK    2  A    between atoms: C_2  and  C_4
REMARK    3  A    between atoms: C_2  and  N_9
REMARK    4  A    between atoms: C_10  and  C_12
REMARK    5  A    between atoms: C_15  and  N_19
REMARK    6  A    between atoms: C_16  and  N_18
REMARK                            x       y       z     vdW  Elec       q    Type
REMARK                         _______ _______ _______ _____ _____    ______ ____
ROOT
ATOM      1  C   UNL     1       0.624  -1.161  -3.593  0.00  0.00    +0.039 A 
ATOM      2  C   UNL     1       2.020  -1.135  -3.567  0.00  0.00    +0.015 A 
ATOM      3  C   UNL     1       2.737  -1.505  -4.686  0.00  0.00    +0.035 A 
ATOM      4  C   UNL     1       2.079  -1.903  -5.835  0.00  0.00    +0.147 A 
ATOM      5  C   UNL     1       0.690  -1.932  -5.871  0.00  0.00    +0.056 A 
ATOM      6  C   UNL     1      -0.040  -1.568  -4.750  0.00  0.00    +0.038 A 
ENDROOT
BRANCH   1   8
ATOM      7  N   UNL     1       0.497  -0.372  -1.278  0.00  0.00    -0.304 N 
ATOM      8  C   UNL     1      -0.147  -0.765  -2.395  0.00  0.00    +0.245 C 
ATOM      9  O   UNL     1      -1.362  -0.794  -2.418  0.00  0.00    -0.270 OA
ATOM     10  H   UNL     1       1.466  -0.349  -1.260  0.00  0.00    +0.150 HD
BRANCH   7  12
ATOM     11  C   UNL     1      -0.664   1.494  -0.205  0.00  0.00    +0.033 C 
ATOM     12  C   UNL     1      -0.268   0.020  -0.092  0.00  0.00    +0.107 C 
BRANCH  12  13
ATOM     13  C   UNL     1       0.579  -0.179   1.139  0.00  0.00    +0.010 A 
ATOM     14  C   UNL     1       0.218  -0.662   2.353  0.00  0.00    +0.013 A 
ATOM     15  C   UNL     1       1.175  -0.759   3.347  0.00  0.00    +0.008 A 
ATOM     16  C   UNL     1       2.444  -0.367   3.078  0.00  0.00    +0.045 A 
ATOM     17  S   UNL     1       2.317   0.153   1.375  0.00  0.00    -0.100 S 
ENDBRANCH  12  13
ENDBRANCH   7  12
ENDBRANCH   1   8
BRANCH   5  18
ATOM     18  N   UNL     1       0.030  -2.335  -7.034  0.00  0.00    -0.356 N 
ATOM     19  H   UNL     1       0.534  -2.711  -7.773  0.00  0.00    +0.142 HD
ATOM     20  H   UNL     1      -0.933  -2.238  -7.104  0.00  0.00    +0.142 HD
ENDBRANCH   5  18
BRANCH   4  21
ATOM     21  N   UNL     1       2.857  -2.298  -7.031  0.00  0.00    +0.058 N 
ATOM     22  O   UNL     1       3.886  -2.919  -6.905  0.00  0.00    -0.126 OA
ATOM     23  O   UNL     1       2.462  -1.999  -8.134  0.00  0.00    -0.126 OA
ENDBRANCH   4  21
TORSDOF 5
