REMARK  Name = ZINC41168798
REMARK  8 active torsions:
REMARK  status: ('A' for Active; 'I' for Inactive)
REMARK    1  A    between atoms: C_1  and  C_2
REMARK    2  A    between atoms: C_6  and  C_15
REMARK    3  A    between atoms: C_13  and  C_14
REMARK    4  A    between atoms: C_15  and  N_16
REMARK    5  A    between atoms: N_16  and  S_17
REMARK    6  A    between atoms: S_17  and  C_20
REMARK    7  A    between atoms: C_21  and  C_27
REMARK    8  A    between atoms: C_25  and  C_26
REMARK                            x       y       z     vdW  Elec       q    Type
REMARK                         _______ _______ _______ _____ _____    ______ ____
ROOT
ATOM      1  C   UNL     1      -0.018   1.503   0.010  0.00  0.00    +0.044 C 
ATOM      2  C   UNL     1       0.002  -0.004   0.002  0.00  0.00    -0.047 A 
ATOM      3  C   UNL     1       0.005  -0.675  -1.188  0.00  0.00    +0.013 A 
ATOM      4  C   UNL     1       0.025  -2.073  -1.196  0.00  0.00    -0.001 A 
ATOM      5  C   UNL     1       0.029  -2.823  -2.454  0.00  0.00    +0.020 A 
ATOM      6  C   UNL     1       0.048  -4.178  -2.399  0.00  0.00    +0.033 A 
ATOM      7  C   UNL     1       0.063  -4.839  -1.153  0.00  0.00    +0.254 A 
ATOM      8  O   UNL     1       0.080  -6.058  -1.127  0.00  0.00    -0.268 OA
ATOM      9  N   UNL     1       0.059  -4.159   0.007  0.00  0.00    -0.322 N 
ATOM     10  H   UNL     1       0.070  -4.645   0.846  0.00  0.00    +0.169 HD
ATOM     11  C   UNL     1       0.040  -2.781   0.021  0.00  0.00    +0.049 A 
ATOM     12  C   UNL     1       0.035  -2.077   1.220  0.00  0.00    +0.030 A 
ATOM     13  C   UNL     1       0.023  -0.698   1.204  0.00  0.00    -0.046 A 
ATOM     14  C   UNL     1       0.025   0.063   2.505  0.00  0.00    +0.044 C 
ENDROOT
BRANCH   6  15
ATOM     15  C   UNL     1       0.053  -4.980  -3.675  0.00  0.00    +0.146 C 
BRANCH  15  16
ATOM     16  N   UNL     1       1.432  -5.323  -4.031  0.00  0.00    -0.185 NA
ATOM     17  H   UNL     1       2.172  -4.862  -3.605  0.00  0.00    +0.148 HD
BRANCH  16  18
ATOM     18  S   UNL     1       1.728  -6.498  -5.160  0.00  0.00    +0.062 S 
ATOM     19  O   UNL     1       3.140  -6.578  -5.302  0.00  0.00    -0.153 OA
ATOM     20  O   UNL     1       0.935  -7.620  -4.797  0.00  0.00    -0.153 OA
BRANCH  18  21
ATOM     21  C   UNL     1       1.099  -5.913  -6.698  0.00  0.00    +0.148 A 
ATOM     22  C   UNL     1      -0.155  -6.102  -7.168  0.00  0.00    +0.060 A 
ATOM     23  N   UNL     1      -0.237  -5.501  -8.374  0.00  0.00    -0.280 N 
ATOM     24  H   UNL     1      -1.020  -5.473  -8.946  0.00  0.00    +0.189 HD
ATOM     25  N   UNL     1       1.008  -4.924  -8.654  0.00  0.00    -0.177 NA
ATOM     26  C   UNL     1       1.806  -5.166  -7.646  0.00  0.00    +0.086 A 
ATOM     27  C   UNL     1       3.242  -4.722  -7.529  0.00  0.00    +0.069 C 
ATOM     28  C   UNL     1      -1.263  -6.849  -6.471  0.00  0.00    +0.067 C 
ENDBRANCH  18  21
ENDBRANCH  16  18
ENDBRANCH  15  16
ENDBRANCH   6  15
TORSDOF 4
