REMARK  Name = ZINC48099729
REMARK  6 active torsions:
REMARK  status: ('A' for Active; 'I' for Inactive)
REMARK    1  A    between atoms: C_1  and  C_2
REMARK    2  A    between atoms: C_4  and  C_19
REMARK    3  A    between atoms: C_7  and  N_8
REMARK    4  A    between atoms: N_11  and  C_12
REMARK    5  A    between atoms: C_12  and  C_13
REMARK    6  A    between atoms: C_24  and  C_27
REMARK                            x       y       z     vdW  Elec       q    Type
REMARK                         _______ _______ _______ _____ _____    ______ ____
ROOT
ATOM      1  C   UNL     1      -0.841   1.253   0.229  0.00  0.00    +0.045 C 
ATOM      2  C   UNL     1      -0.385  -0.183   0.192  0.00  0.00    -0.028 A 
ATOM      3  C   UNL     1      -0.378  -0.872  -1.000  0.00  0.00    +0.018 A 
ATOM      4  C   UNL     1       0.045  -2.203  -1.034  0.00  0.00    +0.037 A 
ATOM      5  C   UNL     1       0.460  -2.831   0.144  0.00  0.00    +0.015 A 
ATOM      6  C   UNL     1       0.451  -2.136   1.333  0.00  0.00    +0.024 A 
ATOM      7  C   UNL     1       0.035  -0.809   1.361  0.00  0.00    +0.038 A 
ENDROOT
BRANCH   4   8
ATOM      8  C   UNL     1       0.053  -2.945  -2.309  0.00  0.00    +0.247 C 
ATOM      9  O   UNL     1       0.438  -2.401  -3.326  0.00  0.00    -0.270 OA
ATOM     10  N   UNL     1      -0.366  -4.225  -2.347  0.00  0.00    -0.298 N 
ATOM     11  C   UNL     1      -0.445  -4.949  -3.623  0.00  0.00    +0.108 C 
ATOM     12  C   UNL     1      -1.856  -5.527  -3.776  0.00  0.00    +0.022 C 
ATOM     13  C   UNL     1      -2.190  -6.378  -2.548  0.00  0.00    -0.011 C 
ATOM     14  C   UNL     1      -2.160  -5.501  -1.294  0.00  0.00    +0.022 C 
ATOM     15  C   UNL     1      -0.748  -4.925  -1.113  0.00  0.00    +0.108 C 
ATOM     16  C   UNL     1      -3.585  -6.985  -2.713  0.00  0.00    +0.007 C 
ENDBRANCH   4   8
BRANCH   7  17
ATOM     17  N   UNL     1       0.032  -0.106   2.566  0.00  0.00    -0.269 N 
ATOM     18  C   UNL     1      -0.102  -0.769   3.732  0.00  0.00    +0.304 C 
ATOM     19  O   UNL     1      -0.143  -1.984   3.739  0.00  0.00    -0.253 OA
ATOM     20  N   UNL     1      -0.192  -0.084   4.889  0.00  0.00    -0.297 N 
ATOM     21  H   UNL     1       0.127   0.859   2.564  0.00  0.00    +0.156 HD
ATOM     22  H   UNL     1      -0.159   0.885   4.883  0.00  0.00    +0.150 HD
BRANCH  20  23
ATOM     23  C   UNL     1      -0.338  -0.804   6.157  0.00  0.00    +0.137 C 
BRANCH  23  24
ATOM     24  C   UNL     1      -0.415   0.200   7.308  0.00  0.00    +0.135 C 
ATOM     25  C   UNL     1      -0.448  -0.550   8.657  0.00  0.00    +0.035 C 
ATOM     26  C   UNL     1      -1.466   0.289   9.476  0.00  0.00    +0.031 C 
ATOM     27  C   UNL     1      -2.447   0.731   8.362  0.00  0.00    +0.160 C 
ATOM     28  O   UNL     1      -1.623   0.964   7.206  0.00  0.00    -0.375 OA
ENDBRANCH  23  24
ENDBRANCH  20  23
ENDBRANCH   7  17
TORSDOF 4
