REMARK  Name = ZINC42427630
REMARK  4 active torsions:
REMARK  status: ('A' for Active; 'I' for Inactive)
REMARK    1  A    between atoms: C_1  and  C_2
REMARK    2  A    between atoms: C_6  and  C_21
REMARK    3  A    between atoms: N_9  and  C_10
REMARK    4  A    between atoms: C_15  and  N_16
REMARK                            x       y       z     vdW  Elec       q    Type
REMARK                         _______ _______ _______ _____ _____    ______ ____
ROOT
ATOM      1  C   UNL     1       1.356   0.401   2.059  0.00  0.00    +0.055 A 
ATOM      2  C   UNL     1       0.671   0.951   3.131  0.00  0.00    +0.074 A 
ATOM      3  C   UNL     1       1.313   1.835   3.986  0.00  0.00    +0.164 A 
ATOM      4  C   UNL     1       2.644   2.168   3.770  0.00  0.00    +0.164 A 
ATOM      5  C   UNL     1       3.330   1.619   2.696  0.00  0.00    +0.074 A 
ATOM      6  C   UNL     1       2.692   0.732   1.843  0.00  0.00    +0.050 A 
ATOM      7  O   UNL     1       3.291   3.029   4.605  0.00  0.00    -0.485 OA
ATOM      8  C   UNL     1       2.473   3.846   5.448  0.00  0.00    +0.270 C 
ATOM      9  C   UNL     1       1.397   2.955   6.083  0.00  0.00    +0.270 C 
ATOM     10  O   UNL     1       0.622   2.369   5.032  0.00  0.00    -0.485 OA
ENDROOT
BRANCH   1  17
ATOM     11  C   UNL     1      -0.019   1.526   0.010  0.00  0.00    +0.028 C 
ATOM     12  C   UNL     1       0.002  -0.004   0.002  0.00  0.00    +0.070 C 
ATOM     13  C   UNL     1      -1.434  -0.537   0.020  0.00  0.00    +0.023 C 
ATOM     14  C   UNL     1      -1.406  -2.062   0.152  0.00  0.00    +0.016 C 
ATOM     15  C   UNL     1      -0.731  -2.449   1.469  0.00  0.00    +0.092 C 
ATOM     16  C   UNL     1       0.713  -1.938   1.468  0.00  0.00    +0.118 C 
ATOM     17  N   UNL     1       0.706  -0.494   1.195  0.00  0.00    -0.325 N 
BRANCH  15  18
ATOM     18  C   UNL     1      -0.733  -3.949   1.614  0.00  0.00    +0.215 C 
ATOM     19  O   UNL     1       0.315  -4.551   1.709  0.00  0.00    -0.276 OA
ATOM     20  N   UNL     1      -1.901  -4.622   1.637  0.00  0.00    -0.329 N 
ATOM     21  H   UNL     1      -2.740  -4.140   1.561  0.00  0.00    +0.145 HD
ATOM     22  H   UNL     1      -1.903  -5.587   1.730  0.00  0.00    +0.145 HD
ENDBRANCH  15  18
ENDBRANCH   1  17
BRANCH   6  23
ATOM     23  N   UNL     1       3.389   0.173   0.762  0.00  0.00    -0.356 N 
ATOM     24  H   UNL     1       2.941  -0.445   0.164  0.00  0.00    +0.142 HD
ATOM     25  H   UNL     1       4.319   0.404   0.613  0.00  0.00    +0.142 HD
ENDBRANCH   6  23
TORSDOF 3
