REMARK  Name = ZINC15320080
REMARK  12 active torsions:
REMARK  status: ('A' for Active; 'I' for Inactive)
REMARK    1  A    between atoms: C_1  and  O_2
REMARK    2  A    between atoms: O_2  and  C_3
REMARK    3  A    between atoms: C_6  and  C_11
REMARK    4  A    between atoms: C_8  and  O_9
REMARK    5  A    between atoms: O_9  and  C_10
REMARK    6  A    between atoms: C_18  and  N_38
REMARK    7  A    between atoms: C_19  and  C_36
REMARK    8  A    between atoms: C_20  and  C_22
REMARK    9  A    between atoms: C_25  and  O_30
REMARK   10  A    between atoms: C_26  and  O_28
REMARK   11  A    between atoms: O_28  and  C_29
REMARK   12  A    between atoms: O_30  and  C_31
REMARK                            x       y       z     vdW  Elec       q    Type
REMARK                         _______ _______ _______ _____ _____    ______ ____
ROOT
ATOM      1  C   UNL     1      -5.684  -2.455  -0.575  0.00  0.00    +0.100 A 
ATOM      2  C   UNL     1      -6.769  -1.989   0.173  0.00  0.00    +0.054 A 
ATOM      3  C   UNL     1      -7.868  -2.716  -0.179  0.00  0.00    +0.223 A 
ATOM      4  N   UNL     1      -7.488  -3.608  -1.117  0.00  0.00    -0.246 N 
ATOM      5  H   UNL     1      -8.062  -4.257  -1.553  0.00  0.00    +0.192 HD
ATOM      6  N   UNL     1      -6.117  -3.426  -1.357  0.00  0.00    -0.171 NA
ATOM      7  O   UNL     1      -9.090  -2.510   0.374  0.00  0.00    -0.423 OA
ATOM      8  C   UNL     1      -9.153  -1.750   1.486  0.00  0.00    +0.200 C 
ATOM      9  C   UNL     1      -8.135  -0.978   1.927  0.00  0.00    +0.098 C 
ATOM     10  C   UNL     1      -6.814  -0.890   1.203  0.00  0.00    +0.102 C 
ENDROOT
BRANCH   1  14
ATOM     11  C   UNL     1      -1.692  -0.989  -0.375  0.00  0.00    +0.162 A 
ATOM     12  C   UNL     1      -2.418  -1.185   0.790  0.00  0.00    +0.050 A 
ATOM     13  C   UNL     1      -3.712  -1.660   0.727  0.00  0.00    +0.014 A 
ATOM     14  C   UNL     1      -4.292  -1.944  -0.508  0.00  0.00    +0.006 A 
ATOM     15  C   UNL     1      -3.563  -1.748  -1.679  0.00  0.00    +0.059 A 
ATOM     16  C   UNL     1      -2.268  -1.266  -1.612  0.00  0.00    +0.162 A 
BRANCH  11  18
ATOM     17  C   UNL     1       0.112  -0.258   0.992  0.00  0.00    +0.277 C 
ATOM     18  O   UNL     1      -0.417  -0.521  -0.309  0.00  0.00    -0.491 OA
ENDBRANCH  11  18
BRANCH  16  19
ATOM     19  O   UNL     1      -1.556  -1.068  -2.754  0.00  0.00    -0.491 OA
ATOM     20  C   UNL     1      -2.210  -1.373  -3.987  0.00  0.00    +0.277 C 
ENDBRANCH  16  19
ENDBRANCH   1  14
BRANCH  10  21
ATOM     21  C   UNL     1      -6.696   0.450   0.523  0.00  0.00    -0.031 A 
ATOM     22  C   UNL     1      -7.670   0.860  -0.368  0.00  0.00    +0.008 A 
ATOM     23  C   UNL     1      -7.566   2.087  -0.995  0.00  0.00    +0.050 A 
ATOM     24  C   UNL     1      -6.483   2.911  -0.730  0.00  0.00    +0.162 A 
ATOM     25  C   UNL     1      -5.503   2.498   0.167  0.00  0.00    +0.162 A 
ATOM     26  C   UNL     1      -5.616   1.268   0.795  0.00  0.00    +0.054 A 
BRANCH  25  27
ATOM     27  O   UNL     1      -4.438   3.303   0.430  0.00  0.00    -0.491 OA
ATOM     28  C   UNL     1      -3.533   2.869   1.447  0.00  0.00    +0.277 C 
ENDBRANCH  25  27
BRANCH  24  29
ATOM     29  O   UNL     1      -6.379   4.119  -1.346  0.00  0.00    -0.485 OA
BRANCH  29  30
ATOM     30  C   UNL     1      -7.482   4.532  -2.155  0.00  0.00    +0.174 C 
ATOM     31  C   UNL     1      -7.325   3.977  -3.586  0.00  0.00    +0.044 C 
ATOM     32  C   UNL     1      -7.860   5.111  -4.494  0.00  0.00    +0.004 C 
ATOM     33  C   UNL     1      -7.354   6.389  -3.779  0.00  0.00    +0.004 C 
ATOM     34  C   UNL     1      -7.500   6.065  -2.278  0.00  0.00    +0.044 C 
ENDBRANCH  29  30
ENDBRANCH  24  29
ENDBRANCH  10  21
BRANCH   8  35
ATOM     35  N   UNL     1     -10.318  -1.760   2.211  0.00  0.00    -0.328 N 
ATOM     36  H   UNL     1     -11.066  -2.304   1.919  0.00  0.00    +0.145 HD
ATOM     37  H   UNL     1     -10.393  -1.224   3.016  0.00  0.00    +0.145 HD
ENDBRANCH   8  35
BRANCH   9  38
ATOM     38  C   UNL     1      -8.317  -0.215   3.125  0.00  0.00    +0.101 C 
ATOM     39  N   UNL     1      -8.461   0.389   4.076  0.00  0.00    -0.191 NA
ENDBRANCH   9  38
TORSDOF 9
