REMARK  Name = ZINC00643851
REMARK  8 active torsions:
REMARK  status: ('A' for Active; 'I' for Inactive)
REMARK    1  A    between atoms: C_1  and  C_2
REMARK    2  A    between atoms: C_2  and  O_3
REMARK    3  A    between atoms: O_3  and  C_4
REMARK    4  A    between atoms: C_4  and  C_6
REMARK    5  A    between atoms: C_7  and  C_26
REMARK    6  A    between atoms: C_9  and  N_25
REMARK    7  A    between atoms: C_10  and  C_23
REMARK    8  A    between atoms: C_11  and  C_13
REMARK                            x       y       z     vdW  Elec       q    Type
REMARK                         _______ _______ _______ _____ _____    ______ ____
ROOT
ATOM      1  C   UNL     1       2.520   4.799  -1.230  0.00  0.00    +0.087 C 
ATOM      2  C   UNL     1       2.304   6.119  -1.159  0.00  0.00    +0.115 C 
ATOM      3  O   UNL     1       2.023   6.737  -0.002  0.00  0.00    -0.445 OA
ATOM      4  C   UNL     1       2.321   6.129   1.160  0.00  0.00    +0.198 C 
ATOM      5  C   UNL     1       2.539   4.793   1.231  0.00  0.00    +0.098 C 
ATOM      6  C   UNL     1       2.458   3.934  -0.001  0.00  0.00    +0.106 C 
ATOM      7  C   UNL     1       2.379   6.938  -2.421  0.00  0.00    +0.087 C 
ENDROOT
BRANCH   6   8
ATOM      8  C   UNL     1       1.161   3.167   0.007  0.00  0.00    -0.012 A 
ATOM      9  C   UNL     1      -0.043   3.847   0.022  0.00  0.00    +0.055 A 
ATOM     10  C   UNL     1      -1.237   3.145   0.030  0.00  0.00    +0.167 A 
ATOM     11  C   UNL     1      -1.221   1.752   0.017  0.00  0.00    +0.168 A 
ATOM     12  C   UNL     1      -0.013   1.076   0.008  0.00  0.00    +0.069 A 
ATOM     13  C   UNL     1       1.176   1.784   0.000  0.00  0.00    +0.049 A 
ATOM     14 CL   UNL     1       2.690   0.934  -0.018  0.00  0.00    -0.083 Cl
ATOM     15  O   UNL     1      -2.510   1.301   0.021  0.00  0.00    -0.453 OA
ATOM     16  C   UNL     1      -3.312   2.427  -0.381  0.00  0.00    +0.466 C 
ATOM     17  O   UNL     1      -2.535   3.567   0.044  0.00  0.00    -0.453 OA
ENDBRANCH   6   8
BRANCH   4  18
ATOM     18  N   UNL     1       2.405   6.881   2.304  0.00  0.00    -0.328 N 
ATOM     19  H   UNL     1       2.618   6.456   3.150  0.00  0.00    +0.145 HD
ATOM     20  H   UNL     1       2.251   7.838   2.268  0.00  0.00    +0.145 HD
ENDBRANCH   4  18
BRANCH   1  21
ATOM     21  C   UNL     1       2.810   4.208  -2.484  0.00  0.00    +0.339 C 
ATOM     22  O   UNL     1       2.863   4.898  -3.485  0.00  0.00    -0.245 OA
BRANCH  21  23
ATOM     23  O   UNL     1       3.029   2.879  -2.569  0.00  0.00    -0.462 OA
BRANCH  23  25
ATOM     24  C   UNL     1       3.534   0.840  -3.763  0.00  0.00    +0.048 C 
ATOM     25  C   UNL     1       3.317   2.351  -3.865  0.00  0.00    +0.229 C 
ENDBRANCH  23  25
ENDBRANCH  21  23
ENDBRANCH   1  21
BRANCH   5  26
ATOM     26  C   UNL     1       2.850   4.194   2.494  0.00  0.00    +0.101 C 
ATOM     27  N   UNL     1       3.097   3.718   3.495  0.00  0.00    -0.191 NA
ENDBRANCH   5  26
TORSDOF 6
