REMARK  Name = ZINC39468490
REMARK  6 active torsions:
REMARK  status: ('A' for Active; 'I' for Inactive)
REMARK    1  A    between atoms: C_1  and  S_2
REMARK    2  A    between atoms: S_2  and  P_3
REMARK    3  A    between atoms: C_11  and  S_22
REMARK    4  A    between atoms: C_12  and  O_21
REMARK    5  A    between atoms: S_22  and  O_25
REMARK    6  A    between atoms: O_25  and  C_26
REMARK                            x       y       z     vdW  Elec       q    Type
REMARK                         _______ _______ _______ _____ _____    ______ ____
ROOT
ATOM      1  P   UNL     1      -0.272   0.475   2.901  0.00  0.00    +0.314 P 
ATOM      2  O   UNL     1       0.971   1.238   3.154  0.00  0.00    -0.262 OA
ATOM      3  N   UNL     1      -0.010  -1.140   3.116  0.00  0.00    -0.283 NA
ATOM      4  N   UNL     1      -1.106  -1.945   3.342  0.00  0.00    +0.398 N 
ATOM      5  C   UNL     1      -0.574  -3.291   3.609  0.00  0.00    -0.046 C 
ATOM      6  C   UNL     1      -1.702  -4.284   3.859  0.00  0.00    +0.006 C 
ATOM      7  C   UNL     1      -2.601  -4.374   2.655  0.00  0.00    +0.009 C 
ATOM      8  C   UNL     1      -3.848  -4.812   2.799  0.00  0.00    +0.165 C 
ATOM      9  C   UNL     1      -4.327  -5.213   4.136  0.00  0.00    +0.141 C 
ATOM     10  C   UNL     1      -3.708  -4.752   5.226  0.00  0.00    +0.024 C 
ATOM     11  C   UNL     1      -2.529  -3.823   5.063  0.00  0.00    +0.019 C 
ATOM     12  C   UNL     1      -3.039  -2.407   4.791  0.00  0.00    -0.002 C 
ATOM     13  C   UNL     1      -1.869  -1.461   4.495  0.00  0.00    -0.020 C 
ATOM     14  C   UNL     1      -2.469  -0.074   4.229  0.00  0.00    +0.157 C 
ATOM     15  O   UNL     1      -1.410   0.871   3.995  0.00  0.00    -0.312 OA
ATOM     16  H   UNL     1       0.886  -1.511   3.084  0.00  0.00    +0.112 HD
ATOM     17  H   UNL     1      -1.696  -1.955   2.524  0.00  0.00    -0.055 HD
ENDROOT
BRANCH   8  18
ATOM     18  S   UNL     1      -4.922  -4.911   1.405  0.00  0.00    +0.154 S 
ATOM     19  O   UNL     1      -6.245  -4.762   1.900  0.00  0.00    -0.131 OA
ATOM     20  O   UNL     1      -4.378  -4.052   0.412  0.00  0.00    -0.131 OA
BRANCH  18  21
ATOM     21  O   UNL     1      -4.819  -6.328   0.858  0.00  0.00    -0.342 OA
BRANCH  21  22
ATOM     22  C   UNL     1      -5.455  -7.260   1.614  0.00  0.00    +0.157 A 
ATOM     23  C   UNL     1      -4.746  -7.998   2.550  0.00  0.00    +0.048 A 
ATOM     24  C   UNL     1      -5.395  -8.945   3.318  0.00  0.00    +0.004 A 
ATOM     25  C   UNL     1      -6.752  -9.158   3.154  0.00  0.00    +0.000 A 
ATOM     26  C   UNL     1      -7.461  -8.424   2.222  0.00  0.00    +0.004 A 
ATOM     27  C   UNL     1      -6.817  -7.471   1.456  0.00  0.00    +0.048 A 
ENDBRANCH  21  22
ENDBRANCH  18  21
ENDBRANCH   8  18
BRANCH   1  29
ATOM     28  C   UNL     1      -1.329   2.630   0.930  0.00  0.00    +0.096 C 
ATOM     29  S   UNL     1      -0.978   0.851   0.938  0.00  0.00    -0.059 S 
ENDBRANCH   1  29
BRANCH   9  30
ATOM     30  O   UNL     1      -5.391  -6.049   4.258  0.00  0.00    -0.505 OA
ATOM     31  H   UNL     1      -5.628  -6.253   5.173  0.00  0.00    +0.292 HD
ENDBRANCH   9  30
TORSDOF 5
