REMARK  Name = ZINC16853106
REMARK  7 active torsions:
REMARK  status: ('A' for Active; 'I' for Inactive)
REMARK    1  A    between atoms: C_1  and  C_2
REMARK    2  A    between atoms: C_4  and  C_20
REMARK    3  A    between atoms: C_5  and  C_9
REMARK    4  A    between atoms: C_9  and  C_11
REMARK    5  A    between atoms: C_9  and  C_17
REMARK    6  A    between atoms: C_21  and  C_22
REMARK    7  A    between atoms: C_31  and  O_32
REMARK                            x       y       z     vdW  Elec       q    Type
REMARK                         _______ _______ _______ _____ _____    ______ ____
ROOT
ATOM      1  C   UNL     1       0.402  -4.545  -1.925  0.00  0.00    +0.086 C 
ATOM      2  C   UNL     1       0.184  -3.267  -1.156  0.00  0.00    +0.107 A 
ATOM      3  N   UNL     1       1.050  -2.300  -1.274  0.00  0.00    -0.234 NA
ATOM      4  C   UNL     1       0.897  -1.139  -0.607  0.00  0.00    +0.075 A 
ATOM      5  C   UNL     1      -0.207  -0.968   0.224  0.00  0.00    +0.060 A 
ATOM      6  C   UNL     1      -1.127  -2.020   0.338  0.00  0.00    +0.256 A 
ATOM      7  N   UNL     1      -0.910  -3.151  -0.365  0.00  0.00    -0.311 N 
ATOM      8  O   UNL     1      -2.108  -1.913   1.055  0.00  0.00    -0.267 OA
ATOM      9  H   UNL     1      -1.538  -3.887  -0.301  0.00  0.00    +0.170 HD
ENDROOT
BRANCH   4  10
ATOM     10  C   UNL     1       1.885  -0.065  -0.755  0.00  0.00    +0.029 C 
ATOM     11  C   UNL     1       3.015  -0.281  -1.461  0.00  0.00    +0.014 C 
BRANCH  11  12
ATOM     12  C   UNL     1       4.003   0.792  -1.609  0.00  0.00    +0.024 A 
ATOM     13  C   UNL     1       5.418   0.550  -1.330  0.00  0.00    -0.007 A 
ATOM     14  C   UNL     1       5.876  -0.706  -0.916  0.00  0.00    +0.009 A 
ATOM     15  C   UNL     1       7.204  -0.891  -0.666  0.00  0.00    +0.001 A 
ATOM     16  C   UNL     1       8.112   0.154  -0.818  0.00  0.00    +0.001 A 
ATOM     17  C   UNL     1       7.699   1.388  -1.220  0.00  0.00    +0.008 A 
ATOM     18  C   UNL     1       6.338   1.614  -1.486  0.00  0.00    -0.017 A 
ATOM     19  C   UNL     1       5.877   2.876  -1.903  0.00  0.00    +0.012 A 
ATOM     20  C   UNL     1       4.558   3.085  -2.159  0.00  0.00    +0.046 A 
ATOM     21  C   UNL     1       3.614   2.068  -2.026  0.00  0.00    +0.125 A 
BRANCH  21  22
ATOM     22  O   UNL     1       2.308   2.321  -2.297  0.00  0.00    -0.506 OA
ATOM     23  H   UNL     1       1.801   2.629  -1.534  0.00  0.00    +0.292 HD
ENDBRANCH  21  22
ENDBRANCH  11  12
ENDBRANCH   4  10
BRANCH   5  24
ATOM     24  C   UNL     1      -0.407   0.318   0.985  0.00  0.00    +0.169 C 
BRANCH  24  25
ATOM     25  C   UNL     1      -0.255   0.057   2.461  0.00  0.00    -0.029 A 
ATOM     26  C   UNL     1      -1.322  -0.432   3.191  0.00  0.00    +0.005 A 
ATOM     27  C   UNL     1      -1.182  -0.671   4.545  0.00  0.00    +0.000 A 
ATOM     28  C   UNL     1       0.025  -0.422   5.170  0.00  0.00    +0.000 A 
ATOM     29  C   UNL     1       1.093   0.067   4.440  0.00  0.00    +0.000 A 
ATOM     30  C   UNL     1       0.954   0.302   3.085  0.00  0.00    +0.005 A 
ENDBRANCH  24  25
BRANCH  24  31
ATOM     31  C   UNL     1      -1.789   0.854   0.710  0.00  0.00    +0.368 C 
ATOM     32  O   UNL     1      -2.368   1.510   1.558  0.00  0.00    -0.245 OA
ATOM     33  O   UNL     1      -2.327   0.631  -0.361  0.00  0.00    -0.245 OA
ENDBRANCH  24  31
ENDBRANCH   5  24
TORSDOF 6
