REMARK  Name = ZINC13551100
REMARK  8 active torsions:
REMARK  status: ('A' for Active; 'I' for Inactive)
REMARK    1  A    between atoms: C_1  and  C_2
REMARK    2  A    between atoms: C_8  and  C_29
REMARK    3  A    between atoms: C_11  and  C_12
REMARK    4  A    between atoms: C_11  and  O_24
REMARK    5  A    between atoms: C_13  and  C_23
REMARK    6  A    between atoms: C_14  and  C_19
REMARK    7  A    between atoms: C_17  and  C_18
REMARK    8  A    between atoms: N_21  and  C_22
REMARK                            x       y       z     vdW  Elec       q    Type
REMARK                         _______ _______ _______ _____ _____    ______ ____
ROOT
ATOM      1  C   UNL     1       6.954   7.947   5.707  0.00  0.00    +0.089 C 
ATOM      2  C   UNL     1       6.054   7.558   4.562  0.00  0.00    +0.136 A 
ATOM      3  C   UNL     1       5.281   6.452   4.482  0.00  0.00    +0.091 A 
ATOM      4  C   UNL     1       4.646   6.568   3.217  0.00  0.00    +0.172 A 
ATOM      5  N   UNL     1       5.088   7.679   2.688  0.00  0.00    -0.063 NA
ATOM      6  O   UNL     1       5.864   8.242   3.424  0.00  0.00    -0.358 OA
ATOM      7  N   UNL     1       3.740   5.673   2.650  0.00  0.00    -0.235 N 
ATOM      8  C   UNL     1       3.185   5.765   1.296  0.00  0.00    +0.151 C 
ATOM      9  C   UNL     1       2.253   4.588   1.130  0.00  0.00    +0.072 C 
ATOM     10  C   UNL     1       1.506   4.271   0.010  0.00  0.00    +0.135 C 
ATOM     11  C   UNL     1       2.303   3.877   2.337  0.00  0.00    +0.249 C 
ATOM     12  O   UNL     1       1.688   2.857   2.591  0.00  0.00    -0.282 OA
ATOM     13  C   UNL     1       3.236   4.584   3.254  0.00  0.00    +0.293 C 
ATOM     14  O   UNL     1       3.505   4.228   4.383  0.00  0.00    -0.266 OA
ENDROOT
BRANCH  10  15
ATOM     15  C   UNL     1       0.649   3.077   0.012  0.00  0.00    +0.041 A 
ATOM     16  C   UNL     1      -0.766   3.057   0.025  0.00  0.00    -0.010 A 
ATOM     17  C   UNL     1      -1.146   1.748   0.016  0.00  0.00    +0.106 A 
ATOM     18  N   UNL     1      -0.011   0.966   0.007  0.00  0.00    -0.354 N 
ATOM     19  H   UNL     1       0.002  -0.004   0.002  0.00  0.00    +0.166 HD
ATOM     20  C   UNL     1       1.073   1.758   0.001  0.00  0.00    +0.024 A 
ATOM     21  C   UNL     1       2.506   1.291  -0.015  0.00  0.00    +0.064 C 
ATOM     22  C   UNL     1      -1.679   4.256   0.040  0.00  0.00    +0.047 C 
BRANCH  17  23
ATOM     23  C   UNL     1      -2.529   1.256   0.019  0.00  0.00    +0.260 C 
ATOM     24  O   UNL     1      -3.456   2.044   0.027  0.00  0.00    -0.269 OA
ATOM     25  N   UNL     1      -2.772  -0.070   0.013  0.00  0.00    -0.313 N 
ATOM     26  C   UNL     1      -4.152  -0.562   0.016  0.00  0.00    +0.128 C 
ATOM     27  H   UNL     1      -2.033  -0.699   0.007  0.00  0.00    +0.149 HD
ENDBRANCH  17  23
ENDBRANCH  10  15
BRANCH   8  28
ATOM     28  C   UNL     1       2.420   7.055   1.141  0.00  0.00    -0.019 A 
ATOM     29  C   UNL     1       2.463   7.744  -0.057  0.00  0.00    +0.006 A 
ATOM     30  C   UNL     1       1.762   8.926  -0.201  0.00  0.00    +0.003 A 
ATOM     31  C   UNL     1       1.017   9.421   0.853  0.00  0.00    +0.038 A 
ATOM     32  C   UNL     1       0.973   8.732   2.053  0.00  0.00    +0.124 A 
ATOM     33  C   UNL     1       1.672   7.545   2.194  0.00  0.00    +0.044 A 
ATOM     34  F   UNL     1       0.246   9.215   3.084  0.00  0.00    -0.205 F 
ENDBRANCH   8  28
BRANCH  10  35
ATOM     35  O   UNL     1       1.565   5.058  -1.085  0.00  0.00    -0.506 OA
ATOM     36  H   UNL     1       0.968   4.686  -1.796  0.00  0.00    +0.292 HD
ENDBRANCH  10  35
TORSDOF 4
