REMARK  Name = ZINC65010172
REMARK  7 active torsions:
REMARK  status: ('A' for Active; 'I' for Inactive)
REMARK    1  A    between atoms: C_1  and  C_2
REMARK    2  A    between atoms: C_8  and  C_28
REMARK    3  A    between atoms: C_9  and  C_11
REMARK    4  A    between atoms: C_13  and  C_16
REMARK    5  A    between atoms: N_18  and  C_19
REMARK    6  A    between atoms: C_19  and  C_20
REMARK    7  A    between atoms: C_20  and  C_21
REMARK                            x       y       z     vdW  Elec       q    Type
REMARK                         _______ _______ _______ _____ _____    ______ ____
ROOT
ATOM      1  C   UNL     1       0.089  -5.628   2.229  0.00  0.00    +0.238 A 
ATOM      2  N   UNL     1       0.107  -6.813   1.599  0.00  0.00    -0.180 NA
ATOM      3  C   UNL     1       0.122  -7.785   2.475  0.00  0.00    +0.314 A 
ATOM      4  O   UNL     1       0.114  -7.246   3.706  0.00  0.00    -0.328 OA
ATOM      5  N   UNL     1       0.098  -5.838   3.525  0.00  0.00    -0.052 NA
ENDROOT
BRANCH   1  14
ATOM      6  C   UNL     1      -0.018   1.503   0.010  0.00  0.00    +0.044 C 
ATOM      7  C   UNL     1       0.002  -0.004   0.002  0.00  0.00    -0.050 A 
ATOM      8  C   UNL     1       0.006  -0.687  -1.206  0.00  0.00    +0.007 A 
ATOM      9  C   UNL     1       0.025  -2.065  -1.236  0.00  0.00    +0.047 A 
ATOM     10  C   UNL     1       0.041  -2.782  -0.046  0.00  0.00    +0.136 A 
ATOM     11  C   UNL     1       0.037  -2.085   1.175  0.00  0.00    +0.024 A 
ATOM     12  C   UNL     1       0.023  -0.689   1.185  0.00  0.00    +0.015 A 
ATOM     13  C   UNL     1       0.055  -3.114   2.217  0.00  0.00    +0.006 A 
ATOM     14  C   UNL     1       0.068  -4.303   1.571  0.00  0.00    +0.179 A 
ATOM     15  O   UNL     1       0.059  -4.100   0.239  0.00  0.00    -0.451 OA
ATOM     16  C   UNL     1       0.060  -2.893   3.708  0.00  0.00    +0.048 C 
ENDBRANCH   1  14
BRANCH   3  17
ATOM     17  C   UNL     1       0.144  -9.235   2.162  0.00  0.00    +0.302 C 
ATOM     18  O   UNL     1       0.150  -9.607   1.006  0.00  0.00    -0.265 OA
ATOM     19  N   UNL     1       0.158 -10.139   3.161  0.00  0.00    -0.307 N 
ATOM     20  H   UNL     1       0.153  -9.842   4.085  0.00  0.00    +0.149 HD
BRANCH  19  21
ATOM     21  C   UNL     1       0.180 -11.571   2.853  0.00  0.00    +0.109 C 
BRANCH  21  22
ATOM     22  C   UNL     1       0.193 -12.374   4.155  0.00  0.00    +0.054 C 
BRANCH  22  23
ATOM     23  C   UNL     1       0.215 -13.847   3.838  0.00  0.00    -0.046 A 
ATOM     24  C   UNL     1      -0.972 -14.539   3.687  0.00  0.00    +0.005 A 
ATOM     25  C   UNL     1      -0.951 -15.890   3.395  0.00  0.00    +0.020 A 
ATOM     26  C   UNL     1       0.257 -16.549   3.255  0.00  0.00    +0.041 A 
ATOM     27  C   UNL     1       1.444 -15.856   3.407  0.00  0.00    +0.020 A 
ATOM     28  C   UNL     1       1.423 -14.504   3.693  0.00  0.00    +0.005 A 
ATOM     29 CL   UNL     1       0.283 -18.246   2.890  0.00  0.00    -0.084 Cl
ENDBRANCH  22  23
ENDBRANCH  21  22
ENDBRANCH  19  21
ENDBRANCH   3  17
TORSDOF 5
