REMARK  Name = ZINC64062074
REMARK  4 active torsions:
REMARK  status: ('A' for Active; 'I' for Inactive)
REMARK    1  A    between atoms: C_1  and  C_2
REMARK    2  A    between atoms: C_5  and  N_8
REMARK    3  A    between atoms: C_11  and  C_17
REMARK    4  A    between atoms: N_31  and  C_32
REMARK                            x       y       z     vdW  Elec       q    Type
REMARK                         _______ _______ _______ _____ _____    ______ ____
ROOT
ATOM      1  N   UNL     1       0.059  -4.172  -0.021  0.00  0.00    -0.229 N 
ATOM      2  C   UNL     1       0.170  -4.846   1.141  0.00  0.00    +0.270 A 
ATOM      3  O   UNL     1       0.254  -4.240   2.196  0.00  0.00    -0.267 OA
ATOM      4  C   UNL     1       0.188  -6.251   1.128  0.00  0.00    +0.101 A 
ATOM      5  C   UNL     1       0.091  -6.904  -0.065  0.00  0.00    +0.263 A 
ATOM      6  N   UNL     1      -0.021  -6.179  -1.224  0.00  0.00    -0.274 N 
ATOM      7  C   UNL     1      -0.041  -4.834  -1.188  0.00  0.00    +0.337 A 
ATOM      8  O   UNL     1      -0.145  -4.209  -2.225  0.00  0.00    -0.246 OA
ATOM      9  O   UNL     1       0.106  -8.254  -0.105  0.00  0.00    -0.267 OA
ATOM     10  H   UNL     1      -0.089  -6.639  -2.075  0.00  0.00    +0.173 HD
ENDROOT
BRANCH   4  11
ATOM     11  C   UNL     1       0.312  -7.025   2.415  0.00  0.00    +0.124 C 
ATOM     12  C   UNL     1       1.671  -6.740   3.060  0.00  0.00    +0.128 C 
ATOM     13  C   UNL     1       1.645  -7.418   4.425  0.00  0.00    -0.035 C 
ATOM     14  C   UNL     1       2.713  -8.202   4.474  0.00  0.00    -0.001 A 
ATOM     15  C   UNL     1       3.270  -9.036   5.551  0.00  0.00    +0.010 A 
ATOM     16  C   UNL     1       4.394  -9.737   5.247  0.00  0.00    +0.001 A 
ATOM     17  C   UNL     1       5.013  -9.692   3.994  0.00  0.00    +0.002 A 
ATOM     18  C   UNL     1       4.573  -8.949   2.947  0.00  0.00    +0.026 A 
ATOM     19  C   UNL     1       3.401  -8.164   3.147  0.00  0.00    +0.043 A 
ATOM     20  N   UNL     1       2.781  -7.342   2.322  0.00  0.00    -0.376 N 
ATOM     21  C   UNL     1       0.502  -7.214   5.389  0.00  0.00    +0.049 C 
ATOM     22  C   UNL     1      -0.789  -7.412   4.573  0.00  0.00    +0.089 C 
ATOM     23  N   UNL     1      -0.743  -6.604   3.351  0.00  0.00    -0.296 NA
ATOM     24  C   UNL     1      -2.054  -6.575   2.689  0.00  0.00    +0.105 C 
ATOM     25  H   UNL     1       3.008  -7.166   1.396  0.00  0.00    +0.160 HD
ENDBRANCH   4  11
BRANCH   1  30
ATOM     26  C   UNL     1      -0.016   1.503   0.012  0.00  0.00    +0.044 C 
ATOM     27  C   UNL     1       0.004  -0.004   0.003  0.00  0.00    -0.050 A 
ATOM     28  C   UNL     1      -1.181  -0.710   0.107  0.00  0.00    +0.005 A 
ATOM     29  C   UNL     1      -1.166  -2.091   0.099  0.00  0.00    +0.026 A 
ATOM     30  C   UNL     1       0.040  -2.771  -0.013  0.00  0.00    +0.054 A 
ATOM     31  C   UNL     1       1.228  -2.059  -0.117  0.00  0.00    +0.026 A 
ATOM     32  C   UNL     1       1.206  -0.678  -0.114  0.00  0.00    +0.005 A 
ENDBRANCH   1  30
TORSDOF 2
