REMARK  Name = ZINC35288128
REMARK  4 active torsions:
REMARK  status: ('A' for Active; 'I' for Inactive)
REMARK    1  A    between atoms: C_3  and  O_20
REMARK    2  A    between atoms: C_6  and  C_7
REMARK    3  A    between atoms: C_10  and  C_14
REMARK    4  A    between atoms: O_20  and  C_21
REMARK                            x       y       z     vdW  Elec       q    Type
REMARK                         _______ _______ _______ _____ _____    ______ ____
ROOT
ATOM      1  C   UNL     1      -1.204  -0.687   0.978  0.00  0.00    +0.121 A 
ATOM      2  N   UNL     1      -2.369  -0.142   0.625  0.00  0.00    -0.308 N 
ATOM      3  C   UNL     1      -3.528  -0.790   0.851  0.00  0.00    +0.259 A 
ATOM      4  C   UNL     1      -3.500  -2.041   1.460  0.00  0.00    +0.084 A 
ATOM      5  C   UNL     1      -2.268  -2.582   1.816  0.00  0.00    +0.259 A 
ATOM      6  N   UNL     1      -1.144  -1.886   1.558  0.00  0.00    -0.308 N 
ATOM      7  O   UNL     1      -2.200  -3.784   2.405  0.00  0.00    -0.267 OA
ATOM      8  O   UNL     1      -4.695  -0.236   0.494  0.00  0.00    -0.267 OA
ATOM      9  H   UNL     1      -0.282  -2.259   1.801  0.00  0.00    +0.170 HD
ATOM     10  H   UNL     1      -2.382   0.730   0.201  0.00  0.00    +0.170 HD
ENDROOT
BRANCH   1  16
ATOM     11  C   UNL     1       0.049   1.448   0.716  0.00  0.00    +0.015 A 
ATOM     12  C   UNL     1       1.218   2.132   0.470  0.00  0.00    +0.046 A 
ATOM     13  C   UNL     1       2.395   1.435   0.221  0.00  0.00    +0.121 A 
ATOM     14  C   UNL     1       2.397   0.046   0.220  0.00  0.00    +0.046 A 
ATOM     15  C   UNL     1       1.232  -0.646   0.464  0.00  0.00    +0.015 A 
ATOM     16  C   UNL     1       0.046   0.051   0.715  0.00  0.00    +0.016 A 
BRANCH  13  17
ATOM     17  O   UNL     1       3.545   2.114  -0.021  0.00  0.00    -0.489 OA
BRANCH  17  18
ATOM     18  C   UNL     1       3.450   3.536  -0.124  0.00  0.00    +0.173 C 
ATOM     19  C   UNL     1       3.621   4.193   1.268  0.00  0.00    +0.044 C 
ATOM     20  C   UNL     1       4.095   5.625   0.915  0.00  0.00    +0.004 C 
ATOM     21  C   UNL     1       5.034   5.425  -0.293  0.00  0.00    +0.004 C 
ATOM     22  C   UNL     1       4.624   4.097  -0.953  0.00  0.00    +0.044 C 
ENDBRANCH  17  18
ENDBRANCH  13  17
ENDBRANCH   1  16
BRANCH   4  23
ATOM     23  C   UNL     1      -4.777  -2.795   1.729  0.00  0.00    +0.030 C 
ATOM     24  C   UNL     1      -5.556  -3.001   0.414  0.00  0.00    +0.008 C 
ATOM     25  C   UNL     1      -7.041  -2.847   0.824  0.00  0.00    +0.001 C 
ATOM     26  C   UNL     1      -6.990  -1.707   1.871  0.00  0.00    +0.001 C 
ATOM     27  C   UNL     1      -5.689  -1.972   2.656  0.00  0.00    +0.008 C 
ENDBRANCH   4  23
TORSDOF 4
