REMARK  Name = ZINC40701948
REMARK  6 active torsions:
REMARK  status: ('A' for Active; 'I' for Inactive)
REMARK    1  A    between atoms: C_1  and  C_2
REMARK    2  A    between atoms: C_2  and  N_3
REMARK    3  A    between atoms: N_3  and  C_4
REMARK    4  A    between atoms: C_15  and  N_27
REMARK    5  A    between atoms: C_16  and  N_20
REMARK    6  A    between atoms: C_23  and  C_26
REMARK                            x       y       z     vdW  Elec       q    Type
REMARK                         _______ _______ _______ _____ _____    ______ ____
ROOT
ATOM      1  N   UNL     1      -1.305  -0.624   0.026  0.00  0.00    -0.285 N 
ATOM      2  C   UNL     1      -1.891  -0.784   1.276  0.00  0.00    +0.129 A 
ATOM      3  C   UNL     1      -1.196  -0.435   2.436  0.00  0.00    +0.104 A 
ATOM      4  C   UNL     1      -1.831  -0.617   3.665  0.00  0.00    +0.147 A 
ATOM      5  N   UNL     1      -3.066  -1.112   3.686  0.00  0.00    -0.221 NA
ATOM      6  C   UNL     1      -3.688  -1.429   2.568  0.00  0.00    +0.200 A 
ATOM      7  N   UNL     1      -3.127  -1.268   1.387  0.00  0.00    -0.332 N 
ATOM      8  H   UNL     1      -3.619  -1.509   0.587  0.00  0.00    +0.168 HD
ENDROOT
BRANCH   1   9
ATOM      9  C   UNL     1      -0.675  -1.702  -0.592  0.00  0.00    +0.043 A 
ATOM     10  C   UNL     1       0.666  -1.941  -0.376  0.00  0.00    +0.024 A 
ATOM     11  C   UNL     1       1.305  -3.015  -0.988  0.00  0.00    +0.002 A 
ATOM     12  C   UNL     1       0.627  -3.858  -1.815  0.00  0.00    +0.008 A 
ATOM     13  C   UNL     1      -0.740  -3.650  -2.062  0.00  0.00    -0.016 A 
ATOM     14  C   UNL     1      -1.404  -2.563  -1.440  0.00  0.00    +0.003 A 
ATOM     15  C   UNL     1      -2.771  -2.360  -1.684  0.00  0.00    +0.010 A 
ATOM     16  C   UNL     1      -3.443  -3.210  -2.508  0.00  0.00    +0.001 A 
ATOM     17  C   UNL     1      -2.793  -4.283  -3.115  0.00  0.00    +0.001 A 
ATOM     18  C   UNL     1      -1.465  -4.504  -2.911  0.00  0.00    +0.008 A 
ENDBRANCH   1   9
BRANCH   4  19
ATOM     19  N   UNL     1      -1.183  -0.286   4.850  0.00  0.00    -0.314 N 
ATOM     20  C   UNL     1      -0.427  -1.300   5.597  0.00  0.00    +0.107 C 
ATOM     21  C   UNL     1      -0.930  -1.324   7.044  0.00  0.00    +0.022 C 
ATOM     22  C   UNL     1      -0.845   0.086   7.633  0.00  0.00    -0.011 C 
ATOM     23  C   UNL     1      -1.737   1.032   6.827  0.00  0.00    +0.022 C 
ATOM     24  C   UNL     1      -1.237   1.085   5.375  0.00  0.00    +0.107 C 
ATOM     25  C   UNL     1      -1.315   0.059   9.089  0.00  0.00    +0.007 C 
ENDBRANCH   4  19
BRANCH   3  26
ATOM     26  N   UNL     1       0.107   0.083   2.366  0.00  0.00    -0.353 N 
ATOM     27  H   UNL     1       0.499   0.297   1.505  0.00  0.00    +0.143 HD
ATOM     28  H   UNL     1       0.616   0.228   3.179  0.00  0.00    +0.143 HD
ENDBRANCH   3  26
BRANCH   1  30
ATOM     29  C   UNL     1      -2.599   0.757  -1.524  0.00  0.00    +0.025 C 
ATOM     30  C   UNL     1      -1.351   0.679  -0.643  0.00  0.00    +0.109 C 
ENDBRANCH   1  30
TORSDOF 4
