REMARK  Name = ZINC32909163
REMARK  12 active torsions:
REMARK  status: ('A' for Active; 'I' for Inactive)
REMARK    1  A    between atoms: C_1  and  C_2
REMARK    2  A    between atoms: N_5  and  C_16
REMARK    3  A    between atoms: C_16  and  C_17
REMARK    4  A    between atoms: N_19  and  C_20
REMARK    5  A    between atoms: C_21  and  C_29
REMARK    6  A    between atoms: C_22  and  C_28
REMARK    7  A    between atoms: C_23  and  C_25
REMARK    8  A    between atoms: C_29  and  O_31
REMARK    9  A    between atoms: O_31  and  C_32
REMARK   10  A    between atoms: C_32  and  C_33
REMARK   11  A    between atoms: C_33  and  O_34
REMARK   12  A    between atoms: O_34  and  C_35
REMARK                            x       y       z     vdW  Elec       q    Type
REMARK                         _______ _______ _______ _____ _____    ______ ____
ROOT
ATOM      1  C   UNL     1      -4.745  -3.267   0.005  0.00  0.00    +0.238 C 
ATOM      2  O   UNL     1      -3.542  -3.423  -0.001  0.00  0.00    -0.273 OA
ATOM      3  N   UNL     1      -5.262  -2.022   0.015  0.00  0.00    -0.278 N 
ATOM      4  H   UNL     1      -6.353  -1.880   0.020  0.00  0.00    +0.155 HD
ENDROOT
BRANCH   3   5
ATOM      5  C   UNL     1      -4.422  -0.925   0.017  0.00  0.00    +0.087 A 
ATOM      6  C   UNL     1      -4.761   0.432   0.026  0.00  0.00    +0.091 A 
ATOM      7  C   UNL     1      -3.726   1.355   0.027  0.00  0.00    -0.015 A 
ATOM      8  C   UNL     1      -2.445   0.874   0.018  0.00  0.00    +0.079 A 
ATOM      9  S   UNL     1      -2.689  -0.891   0.002  0.00  0.00    -0.068 S 
ATOM     10  C   UNL     1      -4.003   2.837   0.037  0.00  0.00    +0.046 C 
BRANCH   8  11
ATOM     11  C   UNL     1      -1.187   1.624   0.017  0.00  0.00    +0.248 C 
ATOM     12  O   UNL     1      -1.204   2.841   0.023  0.00  0.00    -0.270 OA
ATOM     13  N   UNL     1      -0.011   0.966   0.007  0.00  0.00    -0.325 N 
ATOM     14  H   UNL     1       0.934   1.529   0.006  0.00  0.00    +0.145 HD
ATOM     15  H   UNL     1       0.004  -0.134   0.001  0.00  0.00    +0.145 HD
ENDBRANCH   8  11
BRANCH   6  16
ATOM     16  C   UNL     1      -6.163   0.864   0.036  0.00  0.00    +0.342 C 
ATOM     17  O   UNL     1      -6.750   1.049  -1.013  0.00  0.00    -0.245 OA
BRANCH  16  18
ATOM     18  O   UNL     1      -6.802   1.055   1.208  0.00  0.00    -0.459 OA
BRANCH  18  19
ATOM     19  C   UNL     1      -8.188   1.482   1.141  0.00  0.00    +0.260 C 
BRANCH  19  20
ATOM     20  C   UNL     1      -8.740   1.646   2.559  0.00  0.00    +0.200 C 
BRANCH  20  21
ATOM     21  O   UNL     1      -8.049   2.708   3.220  0.00  0.00    -0.380 OA
ATOM     22  C   UNL     1      -8.490   2.945   4.558  0.00  0.00    +0.194 C 
ENDBRANCH  20  21
ENDBRANCH  19  20
ENDBRANCH  18  19
ENDBRANCH  16  18
ENDBRANCH   6  16
ENDBRANCH   3   5
BRANCH   1  23
ATOM     23  C   UNL     1      -5.661  -4.463   0.002  0.00  0.00    +0.222 C 
BRANCH  23  28
ATOM     24  C   UNL     1      -4.195  -6.760  -4.865  0.00  0.00    +0.067 C 
ATOM     25  C   UNL     1      -4.159  -6.801  -3.359  0.00  0.00    +0.062 A 
ATOM     26  C   UNL     1      -4.757  -5.874  -2.505  0.00  0.00    +0.071 A 
ATOM     27  C   UNL     1      -4.498  -6.259  -1.220  0.00  0.00    +0.140 A 
ATOM     28  N   UNL     1      -4.861  -5.691  -0.008  0.00  0.00    -0.284 N 
ATOM     29  C   UNL     1      -4.492  -6.254   1.161  0.00  0.00    +0.262 A 
ATOM     30  O   UNL     1      -4.817  -5.753   2.220  0.00  0.00    -0.267 OA
ATOM     31  C   UNL     1      -3.688  -7.489   1.129  0.00  0.00    +0.065 A 
ATOM     32  C   UNL     1      -3.279  -8.117   2.304  0.00  0.00    +0.015 A 
ATOM     33  C   UNL     1      -2.528  -9.271   2.233  0.00  0.00    +0.001 A 
ATOM     34  C   UNL     1      -2.180  -9.806   1.003  0.00  0.00    +0.002 A 
ATOM     35  C   UNL     1      -2.579  -9.194  -0.168  0.00  0.00    +0.028 A 
ATOM     36  C   UNL     1      -3.336  -8.032  -0.117  0.00  0.00    +0.080 A 
ATOM     37  N   UNL     1      -3.752  -7.395  -1.281  0.00  0.00    -0.215 N 
ATOM     38  N   UNL     1      -3.552  -7.705  -2.634  0.00  0.00    -0.170 NA
ENDBRANCH  23  28
ENDBRANCH   1  23
TORSDOF 9
