REMARK  Name = ZINC56126276
REMARK  6 active torsions:
REMARK  status: ('A' for Active; 'I' for Inactive)
REMARK    1  A    between atoms: C_1  and  C_2
REMARK    2  A    between atoms: C_9  and  C_11
REMARK    3  A    between atoms: N_13  and  N_14
REMARK    4  A    between atoms: C_15  and  C_17
REMARK    5  A    between atoms: C_20  and  S_22
REMARK    6  A    between atoms: S_22  and  N_25
REMARK                            x       y       z     vdW  Elec       q    Type
REMARK                         _______ _______ _______ _____ _____    ______ ____
ROOT
ATOM      1  N   UNL     1       1.975  -7.562   3.418  0.00  0.00    -0.228 N 
ATOM      2  C   UNL     1       2.062  -8.836   2.985  0.00  0.00    +0.295 C 
ATOM      3  O   UNL     1       1.899  -9.090   1.806  0.00  0.00    -0.265 OA
ATOM      4  H   UNL     1       2.104  -7.360   4.358  0.00  0.00    +0.173 HD
ENDROOT
BRANCH   2   5
ATOM      5  C   UNL     1       2.352  -9.915   3.935  0.00  0.00    +0.193 A 
ATOM      6  C   UNL     1       2.473 -11.241   3.631  0.00  0.00    +0.057 A 
ATOM      7  C   UNL     1       2.752 -11.907   4.834  0.00  0.00    +0.072 A 
ATOM      8  C   UNL     1       2.788 -10.971   5.808  0.00  0.00    +0.258 A 
ATOM      9  O   UNL     1       2.553  -9.771   5.261  0.00  0.00    -0.432 OA
BRANCH   8  10
ATOM     10  S   UNL     1       3.102 -11.278   7.514  0.00  0.00    +0.089 S 
ATOM     11  O   UNL     1       2.518 -10.201   8.234  0.00  0.00    -0.150 OA
ATOM     12  O   UNL     1       2.752 -12.634   7.755  0.00  0.00    -0.150 OA
BRANCH  10  13
ATOM     13  N   UNL     1       4.739 -11.165   7.739  0.00  0.00    -0.201 NA
ATOM     14  H   UNL     1       5.092 -10.869   8.593  0.00  0.00    +0.144 HD
ATOM     15  H   UNL     1       5.345 -11.394   7.017  0.00  0.00    +0.144 HD
ENDBRANCH  10  13
ENDBRANCH   8  10
ENDBRANCH   2   5
BRANCH   1  18
ATOM     16  C   UNL     1       1.610  -5.258   2.944  0.00  0.00    +0.267 C 
ATOM     17  O   UNL     1       1.772  -5.004   4.123  0.00  0.00    -0.268 OA
ATOM     18  N   UNL     1       1.697  -6.531   2.511  0.00  0.00    -0.230 N 
ATOM     19  H   UNL     1       1.568  -6.734   1.572  0.00  0.00    +0.173 HD
BRANCH  16  27
ATOM     20  C   UNL     1      -0.019   1.526   0.010  0.00  0.00    +0.008 C 
ATOM     21  C   UNL     1       0.002  -0.004   0.002  0.00  0.00    -0.009 C 
ATOM     22  C   UNL     1       0.716  -0.496  -1.260  0.00  0.00    +0.009 C 
ATOM     23  C   UNL     1       0.494  -2.009  -1.394  0.00  0.00    +0.043 C 
ATOM     24  C   UNL     1       0.790  -2.651  -0.071  0.00  0.00    -0.006 A 
ATOM     25  C   UNL     1       0.909  -2.022   1.133  0.00  0.00    -0.036 A 
ATOM     26  C   UNL     1       1.189  -2.823   2.230  0.00  0.00    +0.024 A 
ATOM     27  C   UNL     1       1.319  -4.179   1.995  0.00  0.00    +0.076 A 
ATOM     28  S   UNL     1       1.042  -4.274   0.237  0.00  0.00    -0.088 S 
ATOM     29  C   UNL     1       0.739  -0.509   1.243  0.00  0.00    +0.039 C 
ENDBRANCH  16  27
ENDBRANCH   1  18
TORSDOF 5
