REMARK  Name = ZINC45848662
REMARK  6 active torsions:
REMARK  status: ('A' for Active; 'I' for Inactive)
REMARK    1  A    between atoms: C_1  and  C_2
REMARK    2  A    between atoms: C_7  and  C_10
REMARK    3  A    between atoms: C_14  and  C_17
REMARK    4  A    between atoms: C_17  and  N_18
REMARK    5  A    between atoms: N_21  and  C_22
REMARK    6  A    between atoms: N_21  and  C_23
REMARK                            x       y       z     vdW  Elec       q    Type
REMARK                         _______ _______ _______ _____ _____    ______ ____
ROOT
ATOM      1  C   UNL     1       0.024   1.508  -0.007  0.00  0.00    +0.039 C 
ATOM      2  C   UNL     1       0.027  -0.022  -0.001  0.00  0.00    +0.133 C 
ATOM      3  C   UNL     1      -1.417  -0.537   0.001  0.00  0.00    +0.137 C 
ATOM      4  N   UNL     1      -1.389  -1.995   0.196  0.00  0.00    -0.312 N 
ATOM      5  C   UNL     1      -0.598  -2.529   1.316  0.00  0.00    +0.137 C 
ATOM      6  C   UNL     1       0.806  -1.917   1.250  0.00  0.00    +0.133 C 
ATOM      7  O   UNL     1       0.698  -0.493   1.171  0.00  0.00    -0.371 OA
ATOM      8  C   UNL     1       1.591  -2.301   2.506  0.00  0.00    +0.039 C 
ATOM      9  C   UNL     1      -2.091  -2.844  -0.652  0.00  0.00    +0.099 A 
ATOM     10  C   UNL     1      -2.927  -2.308  -1.627  0.00  0.00    +0.042 A 
ATOM     11  C   UNL     1      -3.619  -3.164  -2.464  0.00  0.00    +0.010 A 
ATOM     12  C   UNL     1      -3.451  -4.533  -2.299  0.00  0.00    -0.014 A 
ATOM     13  C   UNL     1      -2.604  -4.995  -1.311  0.00  0.00    +0.089 A 
ATOM     14  N   UNL     1      -1.953  -4.155  -0.530  0.00  0.00    -0.349 N 
ATOM     15  H   UNL     1      -1.361  -4.507   0.154  0.00  0.00    +0.167 HD
ENDROOT
BRANCH  12  16
ATOM     16  C   UNL     1      -4.185  -5.503  -3.188  0.00  0.00    +0.142 C 
BRANCH  16  17
ATOM     17  N   UNL     1      -3.369  -5.796  -4.369  0.00  0.00    -0.295 N 
ATOM     18  C   UNL     1      -3.827  -6.645  -5.310  0.00  0.00    +0.302 C 
ATOM     19  O   UNL     1      -4.917  -7.168  -5.179  0.00  0.00    -0.253 OA
ATOM     20  N   UNL     1      -3.077  -6.914  -6.397  0.00  0.00    -0.286 N 
ATOM     21  C   UNL     1      -1.764  -6.284  -6.556  0.00  0.00    +0.134 C 
ATOM     22  H   UNL     1      -2.500  -5.378  -4.474  0.00  0.00    +0.151 HD
BRANCH  20  23
ATOM     23  C   UNL     1      -3.575  -7.837  -7.420  0.00  0.00    +0.077 C 
ATOM     24  C   UNL     1      -2.611  -9.018  -7.553  0.00  0.00    +0.022 C 
ATOM     25  C   UNL     1      -3.131  -9.982  -8.622  0.00  0.00    +0.002 C 
ATOM     26  C   UNL     1      -3.231  -9.252  -9.963  0.00  0.00    +0.000 C 
ATOM     27  C   UNL     1      -4.194  -8.071  -9.829  0.00  0.00    +0.002 C 
ATOM     28  C   UNL     1      -3.675  -7.107  -8.761  0.00  0.00    +0.022 C 
ENDBRANCH  20  23
ENDBRANCH  16  17
ENDBRANCH  12  16
TORSDOF 3
