REMARK  Name = ZINC63795215
REMARK  6 active torsions:
REMARK  status: ('A' for Active; 'I' for Inactive)
REMARK    1  A    between atoms: C_1  and  C_2
REMARK    2  A    between atoms: C_4  and  C_13
REMARK    3  A    between atoms: C_13  and  C_14
REMARK    4  A    between atoms: C_14  and  N_15
REMARK    5  A    between atoms: C_16  and  C_18
REMARK    6  A    between atoms: N_20  and  C_21
REMARK                            x       y       z     vdW  Elec       q    Type
REMARK                         _______ _______ _______ _____ _____    ______ ____
ROOT
ATOM      1  N   UNL     1      -4.732  -1.095  -1.735  0.00  0.00    -0.307 N 
ATOM      2  C   UNL     1      -5.987  -1.509  -1.471  0.00  0.00    +0.299 C 
ATOM      3  O   UNL     1      -6.236  -2.060  -0.419  0.00  0.00    -0.265 OA
ATOM      4  H   UNL     1      -4.534  -0.654  -2.576  0.00  0.00    +0.149 HD
ENDROOT
BRANCH   2   5
ATOM      5  C   UNL     1      -7.072  -1.290  -2.474  0.00  0.00    +0.303 C 
ATOM      6  O   UNL     1      -6.823  -0.739  -3.526  0.00  0.00    -0.265 OA
ATOM      7  N   UNL     1      -8.327  -1.705  -2.210  0.00  0.00    -0.274 N 
ATOM      8  H   UNL     1      -8.512  -2.209  -1.402  0.00  0.00    +0.155 HD
BRANCH   7   9
ATOM      9  C   UNL     1      -9.365  -1.408  -3.102  0.00  0.00    +0.097 A 
ATOM     10  C   UNL     1     -10.094  -2.404  -3.665  0.00  0.00    +0.110 A 
ATOM     11  N   UNL     1     -11.100  -2.120  -4.531  0.00  0.00    -0.365 N 
ATOM     12  C   UNL     1     -11.410  -0.843  -4.861  0.00  0.00    +0.086 A 
ATOM     13  C   UNL     1     -10.722   0.196  -4.336  0.00  0.00    +0.070 A 
ATOM     14  C   UNL     1      -9.672  -0.060  -3.426  0.00  0.00    +0.203 A 
ATOM     15  O   UNL     1      -9.037   0.861  -2.931  0.00  0.00    -0.286 OA
ATOM     16  H   UNL     1     -11.609  -2.847  -4.923  0.00  0.00    +0.165 HD
ENDBRANCH   7   9
ENDBRANCH   2   5
BRANCH   1  17
ATOM     17  C   UNL     1      -3.668  -1.309  -0.751  0.00  0.00    +0.109 C 
BRANCH  17  18
ATOM     18  C   UNL     1      -2.352  -0.750  -1.294  0.00  0.00    +0.052 C 
BRANCH  18  21
ATOM     19  C   UNL     1       0.315   0.945  -0.571  0.00  0.00    +0.035 C 
ATOM     20  C   UNL     1       0.196  -0.573  -0.413  0.00  0.00    +0.103 C 
ATOM     21  C   UNL     1      -1.257  -0.971  -0.282  0.00  0.00    -0.037 C 
ATOM     22  C   UNL     1      -1.375  -1.564   0.927  0.00  0.00    +0.002 A 
ATOM     23  C   UNL     1      -2.515  -2.160   1.635  0.00  0.00    +0.048 A 
ATOM     24  C   UNL     1      -2.319  -2.690   2.865  0.00  0.00    +0.124 A 
ATOM     25  C   UNL     1      -1.056  -2.684   3.478  0.00  0.00    +0.040 A 
ATOM     26  C   UNL     1       0.037  -2.156   2.890  0.00  0.00    +0.029 A 
ATOM     27  C   UNL     1      -0.054  -1.571   1.596  0.00  0.00    +0.043 A 
ATOM     28  N   UNL     1       0.847  -1.004   0.829  0.00  0.00    -0.378 N 
ATOM     29  F   UNL     1      -3.366  -3.239   3.520  0.00  0.00    -0.205 F 
ATOM     30  H   UNL     1       1.786  -0.890   1.046  0.00  0.00    +0.160 HD
ENDBRANCH  18  21
ENDBRANCH  17  18
ENDBRANCH   1  17
TORSDOF 5
