REMARK  Name = ZINC67444032
REMARK  9 active torsions:
REMARK  status: ('A' for Active; 'I' for Inactive)
REMARK    1  A    between atoms: C_1  and  C_2
REMARK    2  A    between atoms: C_6  and  O_8
REMARK    3  A    between atoms: O_8  and  C_9
REMARK    4  A    between atoms: C_9  and  C_10
REMARK    5  A    between atoms: C_10  and  C_12
REMARK    6  A    between atoms: C_10  and  O_30
REMARK    7  A    between atoms: C_12  and  N_13
REMARK    8  A    between atoms: C_14  and  C_16
REMARK    9  A    between atoms: N_18  and  C_19
REMARK                            x       y       z     vdW  Elec       q    Type
REMARK                         _______ _______ _______ _____ _____    ______ ____
ROOT
ATOM      1  N   UNL     1      -0.091  -6.921   4.961  0.00  0.00    -0.305 N 
ATOM      2  C   UNL     1       0.198  -8.227   5.125  0.00  0.00    +0.299 C 
ATOM      3  O   UNL     1       0.449  -8.918   4.159  0.00  0.00    -0.265 OA
ATOM      4  H   UNL     1      -0.292  -6.368   5.732  0.00  0.00    +0.149 HD
ENDROOT
BRANCH   2   5
ATOM      5  C   UNL     1       0.208  -8.823   6.494  0.00  0.00    +0.303 C 
ATOM      6  O   UNL     1      -0.043  -8.132   7.459  0.00  0.00    -0.265 OA
ATOM      7  N   UNL     1       0.496 -10.130   6.657  0.00  0.00    -0.278 N 
ATOM      8  H   UNL     1       0.622 -10.700   5.882  0.00  0.00    +0.155 HD
BRANCH   7   9
ATOM      9  C   UNL     1       0.615 -10.664   7.944  0.00  0.00    +0.036 A 
ATOM     10  C   UNL     1       0.232 -11.977   8.189  0.00  0.00    +0.027 A 
ATOM     11  C   UNL     1       0.347 -12.509   9.460  0.00  0.00    +0.049 A 
ATOM     12  C   UNL     1       0.846 -11.733  10.492  0.00  0.00    +0.142 A 
ATOM     13  C   UNL     1       1.231 -10.415  10.249  0.00  0.00    +0.077 A 
ATOM     14  C   UNL     1       1.121  -9.883   8.976  0.00  0.00    +0.050 A 
ATOM     15  N   UNL     1       1.732  -9.642  11.306  0.00  0.00    -0.280 N 
ATOM     16  C   UNL     1       2.126 -10.260  12.441  0.00  0.00    +0.255 C 
ATOM     17  O   UNL     1       2.534  -9.609  13.379  0.00  0.00    -0.272 OA
ATOM     18  C   UNL     1       2.057 -11.763  12.536  0.00  0.00    +0.325 C 
ATOM     19  O   UNL     1       0.966 -12.244  11.747  0.00  0.00    -0.481 OA
ATOM     20  H   UNL     1       1.795  -8.677  11.224  0.00  0.00    +0.155 HD
ENDBRANCH   7   9
ENDBRANCH   2   5
BRANCH   1  21
ATOM     21  C   UNL     1      -0.101  -6.335   3.618  0.00  0.00    +0.139 C 
BRANCH  21  22
ATOM     22  C   UNL     1      -0.455  -4.850   3.712  0.00  0.00    +0.169 C 
BRANCH  22  23
ATOM     23  O   UNL     1      -1.748  -4.705   4.304  0.00  0.00    -0.387 OA
ATOM     24  H   UNL     1      -2.458  -5.137   3.810  0.00  0.00    +0.210 HD
ENDBRANCH  22  23
BRANCH  22  25
ATOM     25  C   UNL     1      -0.466  -4.239   2.309  0.00  0.00    +0.261 C 
BRANCH  25  26
ATOM     26  O   UNL     1      -0.682  -2.829   2.405  0.00  0.00    -0.489 OA
BRANCH  26  32
ATOM     27  C   UNL     1      -1.187   1.441   0.096  0.00  0.00    +0.044 C 
ATOM     28  C   UNL     1      -0.963  -0.049   0.075  0.00  0.00    -0.047 A 
ATOM     29  C   UNL     1      -0.795  -0.706  -1.130  0.00  0.00    +0.003 A 
ATOM     30  C   UNL     1      -0.590  -2.073  -1.152  0.00  0.00    +0.004 A 
ATOM     31  C   UNL     1      -0.551  -2.787   0.030  0.00  0.00    +0.045 A 
ATOM     32  C   UNL     1      -0.719  -2.130   1.241  0.00  0.00    +0.121 A 
ATOM     33  C   UNL     1      -0.919  -0.757   1.261  0.00  0.00    +0.049 A 
ENDBRANCH  26  32
ENDBRANCH  25  26
ENDBRANCH  22  25
ENDBRANCH  21  22
ENDBRANCH   1  21
TORSDOF 8
