REMARK  Name = ZINC42576100
REMARK  6 active torsions:
REMARK  status: ('A' for Active; 'I' for Inactive)
REMARK    1  A    between atoms: C_1  and  C_2
REMARK    2  A    between atoms: C_2  and  C_4
REMARK    3  A    between atoms: C_2  and  N_9
REMARK    4  A    between atoms: N_6  and  C_7
REMARK    5  A    between atoms: N_6  and  C_8
REMARK    6  A    between atoms: C_13  and  C_15
REMARK                            x       y       z     vdW  Elec       q    Type
REMARK                         _______ _______ _______ _____ _____    ______ ____
ROOT
ATOM      1  N   UNL     1       0.711  -0.489   1.189  0.00  0.00    -0.288 N 
ATOM      2  C   UNL     1       0.051  -0.633   2.355  0.00  0.00    +0.307 C 
ATOM      3  O   UNL     1      -1.131  -0.361   2.423  0.00  0.00    -0.252 OA
ATOM      4  N   UNL     1       0.703  -1.080   3.447  0.00  0.00    -0.239 N 
ATOM      5  C   UNL     1       0.044  -1.224   4.614  0.00  0.00    +0.235 C 
ATOM      6  O   UNL     1      -1.136  -0.952   4.681  0.00  0.00    -0.274 OA
ATOM      7  H   UNL     1       1.654  -0.707   1.135  0.00  0.00    +0.151 HD
ATOM      8  H   UNL     1       1.647  -1.298   3.394  0.00  0.00    +0.159 HD
ENDROOT
BRANCH   1  10
ATOM      9  C   UNL     1      -0.019   1.526   0.010  0.00  0.00    +0.038 C 
ATOM     10  C   UNL     1       0.002  -0.004   0.002  0.00  0.00    +0.157 C 
BRANCH  10  11
ATOM     11  C   UNL     1       0.707  -0.490  -1.238  0.00  0.00    +0.235 C 
ATOM     12  O   UNL     1       1.704  -1.174  -1.140  0.00  0.00    -0.274 OA
ATOM     13  N   UNL     1       0.231  -0.164  -2.456  0.00  0.00    -0.306 N 
ATOM     14  C   UNL     1       0.917  -0.637  -3.661  0.00  0.00    +0.131 C 
ATOM     15  C   UNL     1      -0.973   0.662  -2.574  0.00  0.00    +0.131 C 
ENDBRANCH  10  11
ENDBRANCH   1  10
BRANCH   5  16
ATOM     16  C   UNL     1       0.772  -1.723   5.835  0.00  0.00    +0.204 C 
ATOM     17 CL   UNL     1      -0.372  -1.807   7.226  0.00  0.00    -0.116 Cl
ENDBRANCH   5  16
TORSDOF 3
