REMARK  Name = ZINC39674082
REMARK  6 active torsions:
REMARK  status: ('A' for Active; 'I' for Inactive)
REMARK    1  A    between atoms: C_1  and  C_2
REMARK    2  A    between atoms: C_4  and  C_12
REMARK    3  A    between atoms: C_12  and  C_13
REMARK    4  A    between atoms: C_13  and  N_14
REMARK    5  A    between atoms: C_15  and  C_17
REMARK    6  A    between atoms: C_28  and  C_30
REMARK                            x       y       z     vdW  Elec       q    Type
REMARK                         _______ _______ _______ _____ _____    ______ ____
ROOT
ATOM      1  C   UNL     1      -5.423   2.939   4.370  0.00  0.00    +0.100 C 
ATOM      2  C   UNL     1      -6.672   3.196   3.498  0.00  0.00    +0.121 C 
ATOM      3  N   UNL     1      -7.597   3.946   4.379  0.00  0.00    -0.300 N 
ATOM      4  C   UNL     1      -6.719   4.871   5.134  0.00  0.00    +0.115 C 
ATOM      5  C   UNL     1      -5.457   4.041   5.443  0.00  0.00    -0.004 C 
ATOM      6  C   UNL     1      -4.212   4.916   5.340  0.00  0.00    -0.010 C 
ATOM      7  C   UNL     1      -4.240   5.968   6.453  0.00  0.00    -0.082 C 
ATOM      8  N   UNL     1      -4.287   5.300   7.759  0.00  0.00    +0.379 N 
ATOM      9  C   UNL     1      -5.533   4.534   7.885  0.00  0.00    -0.082 C 
ATOM     10  C   UNL     1      -5.559   3.422   6.833  0.00  0.00    -0.010 C 
ATOM     11  C   UNL     1      -8.935   3.815   4.474  0.00  0.00    +0.219 C 
ATOM     12  O   UNL     1      -9.507   2.951   3.843  0.00  0.00    -0.275 OA
ATOM     13  H   UNL     1      -3.499   4.675   7.844  0.00  0.00    -0.086 HD
ATOM     14  H   UNL     1      -4.243   5.993   8.491  0.00  0.00    -0.086 HD
ENDROOT
BRANCH  11  15
ATOM     15  C   UNL     1      -9.722   4.742   5.365  0.00  0.00    +0.079 C 
ATOM     16  C   UNL     1     -11.022   4.057   5.803  0.00  0.00    +0.017 C 
ATOM     17  C   UNL     1     -11.710   4.944   6.843  0.00  0.00    +0.027 C 
ATOM     18  C   UNL     1     -11.791   6.357   6.344  0.00  0.00    -0.031 C 
ATOM     19  C   UNL     1     -11.079   6.824   5.369  0.00  0.00    -0.030 C 
ATOM     20  C   UNL     1     -10.077   6.016   4.596  0.00  0.00    +0.039 C 
ENDBRANCH  11  15
BRANCH   1  22
ATOM     21  N   UNL     1      -3.068   2.359   3.887  0.00  0.00    -0.315 N 
ATOM     22  C   UNL     1      -4.170   3.052   3.541  0.00  0.00    +0.218 C 
ATOM     23  O   UNL     1      -4.155   3.767   2.561  0.00  0.00    -0.275 OA
ATOM     24  H   UNL     1      -3.080   1.787   4.670  0.00  0.00    +0.149 HD
BRANCH  21  25
ATOM     25  C   UNL     1      -1.850   2.470   3.080  0.00  0.00    +0.109 C 
BRANCH  25  26
ATOM     26  C   UNL     1      -0.755   1.589   3.686  0.00  0.00    +0.056 C 
BRANCH  26  30
ATOM     27  C   UNL     1       1.529   3.650   4.096  0.00  0.00    +0.063 C 
ATOM     28  C   UNL     1       1.490   2.590   3.026  0.00  0.00    +0.017 A 
ATOM     29  H   UNL     1       3.273   2.915   1.999  0.00  0.00    +0.166 HD
ATOM     30  C   UNL     1       0.497   1.702   2.856  0.00  0.00    -0.018 A 
ATOM     31  C   UNL     1       0.863   0.865   1.711  0.00  0.00    +0.003 A 
ATOM     32  C   UNL     1       0.253  -0.208   1.059  0.00  0.00    +0.010 A 
ATOM     33  C   UNL     1       0.869  -0.791  -0.012  0.00  0.00    +0.001 A 
ATOM     34  C   UNL     1       2.099  -0.325  -0.457  0.00  0.00    +0.002 A 
ATOM     35  C   UNL     1       2.719   0.732   0.171  0.00  0.00    +0.026 A 
ATOM     36  C   UNL     1       2.109   1.341   1.263  0.00  0.00    +0.047 A 
ATOM     37  N   UNL     1       2.459   2.393   2.080  0.00  0.00    -0.358 N 
ENDBRANCH  26  30
ENDBRANCH  25  26
ENDBRANCH  21  25
ENDBRANCH   1  22
TORSDOF 5
