REMARK  Name = ZINC08486243
REMARK  9 active torsions:
REMARK  status: ('A' for Active; 'I' for Inactive)
REMARK    1  A    between atoms: C_1  and  C_2
REMARK    2  A    between atoms: C_2  and  C_4
REMARK    3  A    between atoms: C_2  and  N_9
REMARK    4  A    between atoms: C_4  and  C_5
REMARK    5  A    between atoms: C_5  and  C_6
REMARK    6  A    between atoms: C_6  and  C_7
REMARK    7  A    between atoms: C_6  and  C_8
REMARK    8  A    between atoms: C_10  and  C_12
REMARK    9  A    between atoms: C_12  and  N_13
REMARK                            x       y       z     vdW  Elec       q    Type
REMARK                         _______ _______ _______ _____ _____    ______ ____
ROOT
ATOM      1  C   UNL     1       2.783  -1.099   2.395  0.00  0.00    +0.221 C 
ENDROOT
BRANCH   1   2
ATOM      2  N   UNL     1       4.223  -1.127   2.126  0.00  0.00    -0.290 N 
ATOM      3  C   UNL     1       4.787  -2.246   1.602  0.00  0.00    +0.203 A 
ATOM      4  N   UNL     1       6.054  -2.349   1.337  0.00  0.00    -0.237 NA
ATOM      5  C   UNL     1       6.915  -1.326   1.569  0.00  0.00    +0.081 A 
ATOM      6  C   UNL     1       8.276  -1.435   1.285  0.00  0.00    +0.067 A 
ATOM      7  C   UNL     1       9.111  -0.366   1.539  0.00  0.00    +0.125 A 
ATOM      8  C   UNL     1       8.611   0.816   2.076  0.00  0.00    +0.039 A 
ATOM      9  C   UNL     1       7.280   0.944   2.363  0.00  0.00    +0.018 A 
ATOM     10  C   UNL     1       6.416  -0.121   2.114  0.00  0.00    +0.065 A 
ATOM     11  C   UNL     1       4.976  -0.037   2.398  0.00  0.00    +0.262 A 
ATOM     12  O   UNL     1       4.482   0.974   2.863  0.00  0.00    -0.267 OA
ATOM     13  F   UNL     1      10.430  -0.469   1.264  0.00  0.00    -0.205 F 
ENDBRANCH   1   2
BRANCH   1  15
ATOM     14  N   UNL     1       0.711  -0.489   1.189  0.00  0.00    -0.311 N 
ATOM     15  C   UNL     1       2.054  -0.600   1.174  0.00  0.00    +0.233 C 
ATOM     16  O   UNL     1       2.676  -0.297   0.177  0.00  0.00    -0.274 OA
ATOM     17  H   UNL     1       0.213  -0.731   1.986  0.00  0.00    +0.149 HD
BRANCH  14  19
ATOM     18  C   UNL     1      -0.019   1.526   0.010  0.00  0.00    +0.028 C 
ATOM     19  C   UNL     1       0.002  -0.004   0.002  0.00  0.00    +0.070 C 
BRANCH  19  20
ATOM     20  C   UNL     1      -1.433  -0.534   0.013  0.00  0.00    +0.022 C 
BRANCH  20  21
ATOM     21  C   UNL     1      -1.416  -2.058  -0.121  0.00  0.00    +0.005 C 
BRANCH  21  22
ATOM     22  C   UNL     1      -2.851  -2.587  -0.110  0.00  0.00    -0.017 C 
ATOM     23  C   UNL     1      -2.840  -4.095  -0.369  0.00  0.00    +0.007 C 
ATOM     24  C   UNL     1      -3.487  -2.308   1.253  0.00  0.00    +0.007 C 
ENDBRANCH  21  22
ENDBRANCH  20  21
ENDBRANCH  19  20
ENDBRANCH  14  19
ENDBRANCH   1  15
TORSDOF 6
