REMARK  Name = ZINC38488521
REMARK  6 active torsions:
REMARK  status: ('A' for Active; 'I' for Inactive)
REMARK    1  A    between atoms: C_7  and  N_19
REMARK    2  A    between atoms: C_9  and  S_12
REMARK    3  A    between atoms: C_10  and  O_11
REMARK    4  A    between atoms: S_12  and  C_13
REMARK    5  A    between atoms: N_19  and  S_20
REMARK    6  A    between atoms: S_20  and  C_23
REMARK                            x       y       z     vdW  Elec       q    Type
REMARK                         _______ _______ _______ _____ _____    ______ ____
ROOT
ATOM      1  C   UNL     1       0.027   1.342   0.542  0.00  0.00    +0.001 A 
ATOM      2  C   UNL     1       1.227   2.044   0.652  0.00  0.00    +0.001 A 
ATOM      3  C   UNL     1       2.423   1.414   0.501  0.00  0.00    +0.012 A 
ATOM      4  C   UNL     1       2.454   0.034   0.231  0.00  0.00    +0.026 A 
ATOM      5  C   UNL     1       1.234  -0.679   0.120  0.00  0.00    +0.008 A 
ATOM      6  C   UNL     1       0.019   0.006   0.282  0.00  0.00    +0.010 A 
ATOM      7  C   UNL     1       1.260  -2.064  -0.151  0.00  0.00    +0.057 A 
ATOM      8  C   UNL     1       2.467  -2.707  -0.305  0.00  0.00    +0.044 A 
ATOM      9  C   UNL     1       3.670  -2.004  -0.196  0.00  0.00    +0.059 A 
ATOM     10  C   UNL     1       3.673  -0.648   0.070  0.00  0.00    +0.138 A 
ENDROOT
BRANCH  10  11
ATOM     11  O   UNL     1       4.852   0.025   0.173  0.00  0.00    -0.505 OA
ATOM     12  H   UNL     1       5.213   0.051   1.070  0.00  0.00    +0.292 HD
ENDBRANCH  10  11
BRANCH   7  13
ATOM     13  N   UNL     1       0.065  -2.779  -0.262  0.00  0.00    -0.216 N 
ATOM     14  H   UNL     1      -0.715  -2.361  -0.660  0.00  0.00    +0.174 HD
BRANCH  13  15
ATOM     15  S   UNL     1      -0.020  -4.339   0.286  0.00  0.00    +0.072 S 
ATOM     16  O   UNL     1      -1.377  -4.741   0.159  0.00  0.00    -0.150 OA
ATOM     17  O   UNL     1       1.045  -5.046  -0.335  0.00  0.00    -0.150 OA
BRANCH  15  18
ATOM     18  C   UNL     1       0.336  -4.306   2.011  0.00  0.00    +0.109 A 
ATOM     19  C   UNL     1       1.641  -4.434   2.449  0.00  0.00    +0.030 A 
ATOM     20  C   UNL     1       1.924  -4.408   3.801  0.00  0.00    +0.025 A 
ATOM     21  C   UNL     1       0.895  -4.252   4.720  0.00  0.00    +0.037 A 
ATOM     22  C   UNL     1      -0.415  -4.124   4.277  0.00  0.00    -0.024 A 
ATOM     23  C   UNL     1      -0.691  -4.146   2.924  0.00  0.00    +0.034 A 
ATOM     24  C   UNL     1      -1.531  -3.954   5.275  0.00  0.00    +0.046 C 
ATOM     25  C   UNL     1      -1.208  -4.746   6.542  0.00  0.00    +0.101 C 
ATOM     26  C   UNL     1       0.198  -4.447   6.989  0.00  0.00    +0.218 C 
ATOM     27  O   UNL     1       0.454  -4.404   8.174  0.00  0.00    -0.275 OA
ATOM     28  N   UNL     1       1.174  -4.225   6.090  0.00  0.00    -0.285 N 
ATOM     29  H   UNL     1       2.077  -4.045   6.394  0.00  0.00    +0.155 HD
ENDBRANCH  15  18
ENDBRANCH  13  15
ENDBRANCH   7  13
BRANCH   9  30
ATOM     30  S   UNL     1       5.199  -2.857  -0.398  0.00  0.00    -0.047 S 
BRANCH  30  31
ATOM     31  C   UNL     1       5.728  -2.405  -2.017  0.00  0.00    +0.189 A 
ATOM     32  N   UNL     1       5.138  -1.537  -2.812  0.00  0.00    -0.209 NA
ATOM     33  C   UNL     1       5.814  -1.445  -3.957  0.00  0.00    +0.245 A 
ATOM     34  N   UNL     1       6.842  -2.248  -3.913  0.00  0.00    -0.160 NA
ATOM     35  H   UNL     1       7.451  -3.534  -2.325  0.00  0.00    +0.191 HD
ATOM     36  N   UNL     1       6.816  -2.882  -2.660  0.00  0.00    -0.254 N 
ENDBRANCH  30  31
ENDBRANCH   9  30
TORSDOF 6
