REMARK  Name = ZINC32870735
REMARK  8 active torsions:
REMARK  status: ('A' for Active; 'I' for Inactive)
REMARK    1  A    between atoms: C_1  and  C_2
REMARK    2  A    between atoms: C_6  and  N_9
REMARK    3  A    between atoms: C_7  and  C_8
REMARK    4  A    between atoms: N_12  and  C_15
REMARK    5  A    between atoms: C_15  and  C_16
REMARK    6  A    between atoms: C_16  and  C_17
REMARK    7  A    between atoms: N_19  and  C_20
REMARK    8  A    between atoms: C_21  and  C_25
REMARK                            x       y       z     vdW  Elec       q    Type
REMARK                         _______ _______ _______ _____ _____    ______ ____
ROOT
ATOM      1  C   UNL     1       0.065  -2.979   6.571  0.00  0.00    -0.069 C 
ENDROOT
BRANCH   1   5
ATOM      2  N   UNL     1       0.051  -2.796   2.390  0.00  0.00    -0.333 N 
ATOM      3  C   UNL     1      -1.202  -3.202   3.046  0.00  0.00    +0.086 C 
ATOM      4  C   UNL     1      -1.146  -2.764   4.513  0.00  0.00    -0.060 C 
ATOM      5  N   UNL     1       0.067  -3.305   5.138  0.00  0.00    +0.382 N 
ATOM      6  C   UNL     1       1.258  -2.723   4.507  0.00  0.00    -0.060 C 
ATOM      7  C   UNL     1       1.321  -3.163   3.036  0.00  0.00    +0.086 C 
ATOM      8  H   UNL     1       0.084  -4.308   5.025  0.00  0.00    -0.082 HD
BRANCH   2  14
ATOM      9  C   UNL     1      -0.018   1.503   0.010  0.00  0.00    +0.044 C 
ATOM     10  C   UNL     1       0.002  -0.004   0.002  0.00  0.00    -0.046 A 
ATOM     11  C   UNL     1       0.006  -0.688  -1.200  0.00  0.00    +0.004 A 
ATOM     12  C   UNL     1       0.024  -2.071  -1.212  0.00  0.00    +0.002 A 
ATOM     13  C   UNL     1       0.039  -2.773  -0.023  0.00  0.00    +0.023 A 
ATOM     14  C   UNL     1       0.036  -2.089   1.186  0.00  0.00    +0.033 A 
ATOM     15  C   UNL     1       0.023  -0.700   1.194  0.00  0.00    -0.027 A 
ATOM     16  C   UNL     1       0.025   0.046   2.504  0.00  0.00    +0.046 C 
ENDBRANCH   2  14
ENDBRANCH   1   5
BRANCH   1  17
ATOM     17  C   UNL     1       1.263  -3.647   7.248  0.00  0.00    +0.077 C 
BRANCH  17  18
ATOM     18  C   UNL     1       1.261  -3.312   8.717  0.00  0.00    +0.216 C 
ATOM     19  O   UNL     1       0.387  -2.608   9.177  0.00  0.00    -0.276 OA
ATOM     20  N   UNL     1       2.230  -3.794   9.520  0.00  0.00    -0.279 N 
ATOM     21  H   UNL     1       2.929  -4.357   9.152  0.00  0.00    +0.155 HD
BRANCH  20  22
ATOM     22  C   UNL     1       2.228  -3.486  10.871  0.00  0.00    +0.084 A 
ATOM     23  C   UNL     1       3.140  -3.884  11.838  0.00  0.00    +0.065 A 
ATOM     24  C   UNL     1       2.900  -3.416  13.184  0.00  0.00    +0.022 A 
ATOM     25  C   UNL     1       1.813  -2.640  13.351  0.00  0.00    +0.048 A 
ATOM     26  S   UNL     1       1.127  -2.539  11.712  0.00  0.00    -0.081 S 
BRANCH  23  27
ATOM     27  C   UNL     1       4.287  -4.737  11.512  0.00  0.00    +0.244 C 
ATOM     28  O   UNL     1       4.459  -5.114  10.367  0.00  0.00    -0.270 OA
ATOM     29  N   UNL     1       5.151  -5.103  12.479  0.00  0.00    -0.325 N 
ATOM     30  H   UNL     1       5.014  -4.803  13.391  0.00  0.00    +0.145 HD
ATOM     31  H   UNL     1       5.910  -5.668  12.263  0.00  0.00    +0.145 HD
ENDBRANCH  23  27
ENDBRANCH  20  22
ENDBRANCH  17  18
ENDBRANCH   1  17
TORSDOF 6
