REMARK  Name = ZINC08718740
REMARK  8 active torsions:
REMARK  status: ('A' for Active; 'I' for Inactive)
REMARK    1  A    between atoms: C_1  and  C_2
REMARK    2  A    between atoms: C_5  and  N_8
REMARK    3  A    between atoms: C_9  and  C_11
REMARK    4  A    between atoms: C_11  and  S_12
REMARK    5  A    between atoms: S_12  and  C_13
REMARK    6  A    between atoms: C_18  and  C_19
REMARK    7  A    between atoms: N_21  and  C_22
REMARK    8  A    between atoms: C_31  and  C_34
REMARK                            x       y       z     vdW  Elec       q    Type
REMARK                         _______ _______ _______ _____ _____    ______ ____
ROOT
ATOM      1  C   UNL     1       3.990  -6.568  -0.518  0.00  0.00    +0.020 A 
ATOM      2  C   UNL     1       2.734  -7.165  -0.506  0.00  0.00    +0.015 A 
ATOM      3  C   UNL     1       2.620  -8.534  -0.628  0.00  0.00    +0.001 A 
ATOM      4  C   UNL     1       3.751  -9.324  -0.764  0.00  0.00    +0.001 A 
ATOM      5  C   UNL     1       5.003  -8.751  -0.779  0.00  0.00    +0.014 A 
ATOM      6  C   UNL     1       5.137  -7.365  -0.661  0.00  0.00    +0.050 A 
ENDROOT
BRANCH   6   7
ATOM      7  C   UNL     1       6.473  -6.744  -0.682  0.00  0.00    +0.249 C 
ATOM      8  O   UNL     1       6.585  -5.538  -0.576  0.00  0.00    -0.270 OA
ATOM      9  N   UNL     1       7.571  -7.513  -0.819  0.00  0.00    -0.281 N 
ATOM     10  H   UNL     1       7.480  -8.467  -0.971  0.00  0.00    +0.155 HD
BRANCH   9  11
ATOM     11  C   UNL     1       8.845  -6.936  -0.742  0.00  0.00    +0.036 A 
ATOM     12  C   UNL     1       9.892  -7.639  -0.161  0.00  0.00    +0.027 A 
ATOM     13  C   UNL     1      11.150  -7.073  -0.082  0.00  0.00    +0.049 A 
ATOM     14  C   UNL     1      11.370  -5.802  -0.585  0.00  0.00    +0.143 A 
ATOM     15  C   UNL     1      10.321  -5.093  -1.169  0.00  0.00    +0.077 A 
ATOM     16  C   UNL     1       9.061  -5.662  -1.252  0.00  0.00    +0.050 A 
ATOM     17  N   UNL     1      10.559  -3.807  -1.672  0.00  0.00    -0.279 N 
ATOM     18  C   UNL     1      11.834  -3.407  -1.871  0.00  0.00    +0.258 C 
ATOM     19  O   UNL     1      12.065  -2.288  -2.278  0.00  0.00    -0.271 OA
ATOM     20  C   UNL     1      12.969  -4.358  -1.587  0.00  0.00    +0.256 C 
ATOM     21  O   UNL     1      12.604  -5.234  -0.517  0.00  0.00    -0.478 OA
ATOM     22  C   UNL     1      14.214  -3.562  -1.192  0.00  0.00    +0.062 C 
ATOM     23  H   UNL     1       9.819  -3.212  -1.874  0.00  0.00    +0.155 HD
ENDBRANCH   9  11
ENDBRANCH   6   7
BRANCH   1  24
ATOM     24  S   UNL     1       4.139  -4.819  -0.364  0.00  0.00    -0.115 S 
BRANCH  24  25
ATOM     25  C   UNL     1       2.426  -4.243  -0.217  0.00  0.00    +0.170 C 
BRANCH  25  27
ATOM     26  N   UNL     1       1.238  -2.089   0.049  0.00  0.00    -0.285 N 
ATOM     27  C   UNL     1       2.410  -2.743  -0.076  0.00  0.00    +0.227 C 
ATOM     28  O   UNL     1       3.453  -2.123  -0.075  0.00  0.00    -0.275 OA
ATOM     29  H   UNL     1       0.410  -2.589   0.122  0.00  0.00    +0.155 HD
BRANCH  26  34
ATOM     30  C   UNL     1       1.146   3.582   0.143  0.00  0.00    +0.044 C 
ATOM     31  C   UNL     1       1.171   2.076   0.118  0.00  0.00    -0.050 A 
ATOM     32  C   UNL     1       2.113   1.413  -0.647  0.00  0.00    +0.005 A 
ATOM     33  C   UNL     1       2.138   0.033  -0.672  0.00  0.00    +0.023 A 
ATOM     34  C   UNL     1       1.216  -0.690   0.072  0.00  0.00    +0.033 A 
ATOM     35  C   UNL     1       0.270  -0.022   0.840  0.00  0.00    +0.023 A 
ATOM     36  C   UNL     1       0.251   1.358   0.860  0.00  0.00    +0.005 A 
ENDBRANCH  26  34
ENDBRANCH  25  27
ENDBRANCH  24  25
ENDBRANCH   1  24
TORSDOF 6
