REMARK  Name = ZINC36813144
REMARK  5 active torsions:
REMARK  status: ('A' for Active; 'I' for Inactive)
REMARK    1  A    between atoms: C_1  and  C_2
REMARK    2  A    between atoms: C_2  and  C_4
REMARK    3  A    between atoms: C_2  and  N_10
REMARK    4  A    between atoms: N_10  and  C_11
REMARK    5  A    between atoms: C_20  and  N_21
REMARK                            x       y       z     vdW  Elec       q    Type
REMARK                         _______ _______ _______ _____ _____    ______ ____
ROOT
ATOM      1  C   UNL     1      -2.182  -0.426  -1.048  0.00  0.00    +0.059 A 
ATOM      2  C   UNL     1      -3.589  -0.479  -0.937  0.00  0.00    +0.022 A 
ATOM      3  C   UNL     1      -4.241  -0.109   0.249  0.00  0.00    +0.027 A 
ATOM      4  C   UNL     1      -5.601  -0.173   0.319  0.00  0.00    +0.019 A 
ATOM      5  C   UNL     1      -6.352  -0.601  -0.774  0.00  0.00    +0.017 A 
ATOM      6  C   UNL     1      -5.751  -0.966  -1.939  0.00  0.00    +0.027 A 
ATOM      7  C   UNL     1      -4.350  -0.913  -2.049  0.00  0.00    +0.048 A 
ATOM      8  N   UNL     1      -3.737  -1.266  -3.184  0.00  0.00    -0.359 N 
ATOM      9  C   UNL     1      -2.430  -1.223  -3.305  0.00  0.00    +0.107 A 
ATOM     10  C   UNL     1      -1.611  -0.802  -2.259  0.00  0.00    +0.063 A 
ATOM     11 BR   UNL     1      -6.478   0.324   1.919  0.00  0.00    -0.050 Br
ATOM     12  H   UNL     1      -4.271  -1.562  -3.938  0.00  0.00    +0.165 HD
ENDROOT
BRANCH  10  13
ATOM     13  N   UNL     1      -0.219  -0.762  -2.425  0.00  0.00    -0.355 N 
ATOM     14  H   UNL     1       0.355  -0.565  -1.668  0.00  0.00    +0.142 HD
ATOM     15  H   UNL     1       0.171  -0.932  -3.297  0.00  0.00    +0.142 HD
ENDBRANCH  10  13
BRANCH   1  16
ATOM     16  N   UNL     1      -1.393  -0.005   0.018  0.00  0.00    -0.335 N 
ATOM     17  H   UNL     1      -1.488   0.895   0.366  0.00  0.00    +0.147 HD
BRANCH  16  19
ATOM     18  C   UNL     1       0.657  -0.117   1.347  0.00  0.00    +0.033 C 
ATOM     19  C   UNL     1      -0.418  -0.922   0.614  0.00  0.00    +0.099 C 
BRANCH  19  20
ATOM     20  C   UNL     1      -1.117  -1.833   1.590  0.00  0.00    -0.009 A 
ATOM     21  C   UNL     1      -0.771  -3.174   1.669  0.00  0.00    +0.008 A 
ATOM     22  C   UNL     1      -1.441  -3.974   2.582  0.00  0.00    +0.020 A 
ATOM     23  C   UNL     1      -2.423  -3.414   3.376  0.00  0.00    +0.111 A 
ATOM     24  N   UNL     1      -2.726  -2.135   3.273  0.00  0.00    -0.263 NA
ATOM     25  C   UNL     1      -2.105  -1.342   2.421  0.00  0.00    +0.116 A 
ENDBRANCH  19  20
ENDBRANCH  16  19
ENDBRANCH   1  16
TORSDOF 4
