REMARK  Name = ZINC22184766
REMARK  5 active torsions:
REMARK  status: ('A' for Active; 'I' for Inactive)
REMARK    1  A    between atoms: C_1  and  N_2
REMARK    2  A    between atoms: N_2  and  C_3
REMARK    3  A    between atoms: C_3  and  C_4
REMARK    4  A    between atoms: C_15  and  C_17
REMARK    5  A    between atoms: C_17  and  C_18
REMARK                            x       y       z     vdW  Elec       q    Type
REMARK                         _______ _______ _______ _____ _____    ______ ____
ROOT
ATOM      1  C   UNL     1       0.024  -0.743   1.267  0.00  0.00    +0.181 C 
ENDROOT
BRANCH   1   2
ATOM      2  C   UNL     1      -1.389  -1.016   1.714  0.00  0.00    +0.128 A 
ATOM      3  N   UNL     1      -1.579  -1.692   2.877  0.00  0.00    -0.309 N 
ATOM      4  H   UNL     1      -0.819  -1.988   3.402  0.00  0.00    +0.170 HD
ATOM      5  C   UNL     1      -2.842  -1.948   3.298  0.00  0.00    +0.266 A 
ATOM      6  O   UNL     1      -3.046  -2.551   4.338  0.00  0.00    -0.267 OA
ATOM      7  C   UNL     1      -3.901  -1.501   2.508  0.00  0.00    +0.102 A 
ATOM      8  C   UNL     1      -3.677  -0.804   1.308  0.00  0.00    +0.085 A 
ATOM      9  N   UNL     1      -2.362  -0.591   0.973  0.00  0.00    -0.232 NA
ATOM     10  C   UNL     1      -4.829  -0.413   0.612  0.00  0.00    +0.036 A 
ATOM     11  C   UNL     1      -6.052  -0.708   1.103  0.00  0.00    +0.048 A 
ATOM     12  S   UNL     1      -5.669  -1.580   2.614  0.00  0.00    -0.090 S 
ENDBRANCH   1   2
BRANCH   1  14
ATOM     13  C   UNL     1      -0.018   1.461   0.010  0.00  0.00    +0.132 C 
ATOM     14  N   UNL     1       0.002  -0.004   0.002  0.00  0.00    -0.297 N 
ATOM     15  C   UNL     1       0.000  -0.672  -1.169  0.00  0.00    +0.216 C 
ATOM     16  O   UNL     1       0.017  -1.884  -1.175  0.00  0.00    -0.276 OA
BRANCH  15  17
ATOM     17  C   UNL     1      -0.023   0.089  -2.470  0.00  0.00    +0.099 C 
BRANCH  17  18
ATOM     18  C   UNL     1      -0.020  -0.899  -3.638  0.00  0.00    -0.002 C 
ATOM     19  C   UNL     1       1.298  -1.676  -3.646  0.00  0.00    +0.004 C 
ATOM     20  C   UNL     1       1.300  -2.664  -4.815  0.00  0.00    +0.000 C 
ATOM     21  C   UNL     1       1.151  -1.898  -6.131  0.00  0.00    +0.000 C 
ATOM     22  C   UNL     1      -0.167  -1.121  -6.122  0.00  0.00    +0.000 C 
ATOM     23  C   UNL     1      -0.169  -0.133  -4.954  0.00  0.00    +0.004 C 
ENDBRANCH  17  18
ENDBRANCH  15  17
ENDBRANCH   1  14
TORSDOF 4
