REMARK  Name = ZINC12083759
REMARK  5 active torsions:
REMARK  status: ('A' for Active; 'I' for Inactive)
REMARK    1  A    between atoms: C_1  and  C_2
REMARK    2  A    between atoms: C_10  and  N_25
REMARK    3  A    between atoms: C_11  and  C_13
REMARK    4  A    between atoms: N_15  and  C_16
REMARK    5  A    between atoms: C_19  and  N_22
REMARK                            x       y       z     vdW  Elec       q    Type
REMARK                         _______ _______ _______ _____ _____    ______ ____
ROOT
ATOM      1  C   UNL     1      -3.491   8.276   0.660  0.00  0.00    +0.044 C 
ATOM      2  C   UNL     1      -4.466   7.127   0.612  0.00  0.00    -0.034 A 
ATOM      3  C   UNL     1      -5.796   7.363   0.710  0.00  0.00    +0.074 A 
ATOM      4  C   UNL     1      -6.719   6.304   0.669  0.00  0.00    +0.250 A 
ATOM      5  O   UNL     1      -7.914   6.530   0.758  0.00  0.00    -0.268 OA
ATOM      6  N   UNL     1      -6.280   5.037   0.530  0.00  0.00    -0.317 N 
ATOM      7  H   UNL     1      -6.919   4.307   0.501  0.00  0.00    +0.169 HD
ATOM      8  C   UNL     1      -4.952   4.774   0.430  0.00  0.00    +0.090 A 
ATOM      9  C   UNL     1      -3.986   5.790   0.465  0.00  0.00    +0.030 A 
ATOM     10  C   UNL     1      -2.608   5.338   0.352  0.00  0.00    +0.054 A 
ATOM     11  C   UNL     1      -2.402   3.979   0.212  0.00  0.00    +0.097 A 
ATOM     12  S   UNL     1      -4.053   3.313   0.248  0.00  0.00    -0.064 S 
ENDROOT
BRANCH  11  13
ATOM     13  C   UNL     1      -1.178   3.286   0.080  0.00  0.00    +0.257 C 
ATOM     14  O   UNL     1      -0.127   3.901   0.075  0.00  0.00    -0.269 OA
ATOM     15  N   UNL     1      -1.173   1.943  -0.040  0.00  0.00    -0.281 N 
ATOM     16  H   UNL     1      -2.011   1.459  -0.101  0.00  0.00    +0.155 HD
BRANCH  15  17
ATOM     17  C   UNL     1       0.040   1.249  -0.078  0.00  0.00    +0.034 A 
ATOM     18  C   UNL     1       1.145   1.811  -0.705  0.00  0.00    +0.025 A 
ATOM     19  C   UNL     1       2.340   1.121  -0.745  0.00  0.00    +0.034 A 
ATOM     20  C   UNL     1       2.437  -0.130  -0.164  0.00  0.00    +0.126 A 
ATOM     21  C   UNL     1       1.339  -0.693   0.461  0.00  0.00    +0.034 A 
ATOM     22  C   UNL     1       0.141  -0.007   0.505  0.00  0.00    +0.025 A 
BRANCH  20  23
ATOM     23  N   UNL     1       3.720  -0.868  -0.209  0.00  0.00    +0.056 N 
ATOM     24  O   UNL     1       3.807  -1.970   0.303  0.00  0.00    -0.126 OA
ATOM     25  O   UNL     1       4.687  -0.373  -0.759  0.00  0.00    -0.126 OA
ENDBRANCH  20  23
ENDBRANCH  15  17
ENDBRANCH  11  13
BRANCH  10  26
ATOM     26  N   UNL     1      -1.548   6.233   0.378  0.00  0.00    -0.356 N 
ATOM     27  H   UNL     1      -0.635   5.904   0.376  0.00  0.00    +0.142 HD
ATOM     28  H   UNL     1      -1.719   7.187   0.399  0.00  0.00    +0.142 HD
ENDBRANCH  10  26
TORSDOF 4
