REMARK  Name = ZINC40885247
REMARK  11 active torsions:
REMARK  status: ('A' for Active; 'I' for Inactive)
REMARK    1  A    between atoms: C_1  and  C_2
REMARK    2  A    between atoms: C_2  and  O_3
REMARK    3  A    between atoms: O_3  and  C_4
REMARK    4  A    between atoms: C_7  and  C_10
REMARK    5  A    between atoms: N_11  and  N_12
REMARK    6  A    between atoms: C_13  and  C_15
REMARK    7  A    between atoms: C_15  and  O_16
REMARK    8  A    between atoms: O_16  and  C_17
REMARK    9  A    between atoms: C_19  and  C_25
REMARK   10  A    between atoms: C_21  and  C_24
REMARK   11  A    between atoms: C_22  and  C_23
REMARK                            x       y       z     vdW  Elec       q    Type
REMARK                         _______ _______ _______ _____ _____    ______ ____
ROOT
ATOM      1  N   UNL     1       1.816  -7.880  -3.056  0.00  0.00    -0.204 N 
ATOM      2  C   UNL     1       2.440  -8.381  -4.141  0.00  0.00    +0.270 C 
ATOM      3  O   UNL     1       2.907  -7.631  -4.972  0.00  0.00    -0.270 OA
ATOM      4  H   UNL     1       1.443  -8.480  -2.391  0.00  0.00    +0.177 HD
ENDROOT
BRANCH   1   6
ATOM      5  C   UNL     1       1.107  -6.011  -1.844  0.00  0.00    +0.138 C 
ATOM      6  N   UNL     1       1.707  -6.494  -2.889  0.00  0.00    -0.188 NA
BRANCH   5  10
ATOM      7  C   UNL     1       0.777  -1.810  -1.336  0.00  0.00    +0.121 A 
ATOM      8  C   UNL     1       0.241  -2.666  -0.383  0.00  0.00    +0.046 A 
ATOM      9  C   UNL     1       0.345  -4.031  -0.544  0.00  0.00    +0.013 A 
ATOM     10  C   UNL     1       0.992  -4.552  -1.668  0.00  0.00    -0.005 A 
ATOM     11  C   UNL     1       1.529  -3.687  -2.624  0.00  0.00    +0.013 A 
ATOM     12  C   UNL     1       1.415  -2.323  -2.457  0.00  0.00    +0.046 A 
BRANCH   7  13
ATOM     13  O   UNL     1       0.671  -0.465  -1.174  0.00  0.00    -0.492 OA
BRANCH  13  15
ATOM     14  C   UNL     1      -0.019   1.526   0.010  0.00  0.00    +0.048 C 
ATOM     15  C   UNL     1       0.002  -0.004   0.002  0.00  0.00    +0.225 C 
ENDBRANCH  13  15
ENDBRANCH   7  13
ENDBRANCH   5  10
ENDBRANCH   1   6
BRANCH   2  16
ATOM     16  C   UNL     1       2.557  -9.873  -4.321  0.00  0.00    +0.326 C 
BRANCH  16  17
ATOM     17  O   UNL     1       3.254 -10.152  -5.537  0.00  0.00    -0.482 OA
BRANCH  17  18
ATOM     18  C   UNL     1       3.446 -11.460  -5.851  0.00  0.00    +0.125 A 
ATOM     19  C   UNL     1       2.969 -12.455  -5.009  0.00  0.00    +0.049 A 
ATOM     20  C   UNL     1       3.165 -13.784  -5.331  0.00  0.00    -0.047 A 
ATOM     21  C   UNL     1       3.836 -14.123  -6.491  0.00  0.00    +0.007 A 
ATOM     22  C   UNL     1       4.313 -13.135  -7.331  0.00  0.00    -0.044 A 
ATOM     23  C   UNL     1       4.115 -11.804  -7.017  0.00  0.00    -0.006 A 
ATOM     24  C   UNL     1       4.629 -10.727  -7.936  0.00  0.00    +0.048 C 
ATOM     25  C   UNL     1       5.045 -13.509  -8.595  0.00  0.00    +0.044 C 
ATOM     26  C   UNL     1       2.647 -14.864  -4.417  0.00  0.00    +0.044 C 
ENDBRANCH  17  18
ENDBRANCH  16  17
ENDBRANCH   2  16
TORSDOF 7
