REMARK  Name = ZINC39533668
REMARK  9 active torsions:
REMARK  status: ('A' for Active; 'I' for Inactive)
REMARK    1  A    between atoms: C_1  and  O_2
REMARK    2  A    between atoms: O_2  and  C_3
REMARK    3  A    between atoms: N_6  and  C_10
REMARK    4  A    between atoms: C_10  and  C_12
REMARK    5  A    between atoms: C_10  and  C_21
REMARK    6  A    between atoms: C_12  and  N_13
REMARK    7  A    between atoms: N_13  and  C_14
REMARK    8  A    between atoms: C_19  and  O_20
REMARK    9  A    between atoms: C_24  and  C_27
REMARK                            x       y       z     vdW  Elec       q    Type
REMARK                         _______ _______ _______ _____ _____    ______ ____
ROOT
ATOM      1  C   UNL     1       1.932  -4.069   1.722  0.00  0.00    -0.020 C 
ENDROOT
BRANCH   1   4
ATOM      2  C   UNL     1       0.886  -0.479   1.400  0.00  0.00    +0.169 C 
ATOM      3  C   UNL     1       1.034  -1.956   1.029  0.00  0.00    -0.030 C 
ATOM      4  N   UNL     1       1.775  -2.655   2.087  0.00  0.00    +0.389 N 
ATOM      5  C   UNL     1       1.036  -2.556   3.353  0.00  0.00    -0.062 C 
ATOM      6  C   UNL     1       0.888  -1.084   3.743  0.00  0.00    +0.065 C 
ATOM      7  N   UNL     1       0.171  -0.367   2.679  0.00  0.00    -0.295 NA
ATOM      8  H   UNL     1       0.026   0.600   2.929  0.00  0.00    +0.124 HD
ATOM      9  H   UNL     1       2.685  -2.233   2.196  0.00  0.00    -0.081 HD
BRANCH   2  11
ATOM     10  C   UNL     1       0.237   1.622   0.447  0.00  0.00    +0.196 C 
ATOM     11  O   UNL     1       0.149   0.198   0.380  0.00  0.00    -0.367 OA
ENDBRANCH   2  11
ENDBRANCH   1   4
BRANCH   1  12
ATOM     12  C   UNL     1       2.659  -4.795   2.825  0.00  0.00    -0.059 A 
ATOM     13  C   UNL     1       3.714  -4.181   3.475  0.00  0.00    +0.002 A 
ATOM     14  C   UNL     1       4.383  -4.841   4.486  0.00  0.00    +0.009 A 
ATOM     15  C   UNL     1       3.994  -6.129   4.850  0.00  0.00    -0.018 A 
ATOM     16  C   UNL     1       2.931  -6.742   4.192  0.00  0.00    +0.009 A 
ATOM     17  C   UNL     1       2.265  -6.071   3.186  0.00  0.00    +0.002 A 
BRANCH  15  18
ATOM     18  C   UNL     1       4.710  -6.844   5.936  0.00  0.00    -0.018 A 
ATOM     19  C   UNL     1       5.770  -6.228   6.598  0.00  0.00    +0.008 A 
ATOM     20  C   UNL     1       6.433  -6.897   7.607  0.00  0.00    +0.001 A 
ATOM     21  C   UNL     1       6.046  -8.177   7.961  0.00  0.00    +0.000 A 
ATOM     22  C   UNL     1       4.994  -8.793   7.307  0.00  0.00    +0.001 A 
ATOM     23  C   UNL     1       4.321  -8.131   6.300  0.00  0.00    +0.008 A 
ENDBRANCH  15  18
ENDBRANCH   1  12
BRANCH   1  24
ATOM     24  C   UNL     1       2.737  -4.175   0.425  0.00  0.00    +0.091 C 
BRANCH  24  25
ATOM     25  N   UNL     1       2.826  -5.579   0.018  0.00  0.00    -0.342 N 
ATOM     26  H   UNL     1       2.343  -6.259   0.514  0.00  0.00    +0.146 HD
BRANCH  25  27
ATOM     27  C   UNL     1       3.608  -5.940  -1.085  0.00  0.00    +0.069 A 
ATOM     28  C   UNL     1       4.304  -4.970  -1.792  0.00  0.00    +0.026 A 
ATOM     29  C   UNL     1       5.075  -5.329  -2.881  0.00  0.00    +0.002 A 
ATOM     30  C   UNL     1       5.156  -6.654  -3.269  0.00  0.00    +0.004 A 
ATOM     31  C   UNL     1       4.465  -7.626  -2.569  0.00  0.00    +0.047 A 
ATOM     32  C   UNL     1       3.694  -7.275  -1.474  0.00  0.00    +0.138 A 
BRANCH  32  33
ATOM     33  O   UNL     1       3.018  -8.232  -0.782  0.00  0.00    -0.505 OA
ATOM     34  H   UNL     1       2.124  -8.399  -1.112  0.00  0.00    +0.292 HD
ENDBRANCH  32  33
ENDBRANCH  25  27
ENDBRANCH  24  25
ENDBRANCH   1  24
TORSDOF 8
