REMARK  Name = ZINC00690804
REMARK  7 active torsions:
REMARK  status: ('A' for Active; 'I' for Inactive)
REMARK    1  A    between atoms: C_1  and  N_2
REMARK    2  A    between atoms: N_2  and  C_3
REMARK    3  A    between atoms: N_2  and  N_4
REMARK    4  A    between atoms: C_7  and  C_14
REMARK    5  A    between atoms: C_9  and  C_12
REMARK    6  A    between atoms: C_10  and  N_11
REMARK    7  A    between atoms: C_24  and  C_27
REMARK                            x       y       z     vdW  Elec       q    Type
REMARK                         _______ _______ _______ _____ _____    ______ ____
ROOT
ATOM      1  N   UNL     1      -2.750   2.324  -0.294  0.00  0.00    -0.223 N 
ATOM      2  C   UNL     1      -2.471   2.178  -1.627  0.00  0.00    +0.037 C 
ATOM      3  C   UNL     1      -1.265   1.728  -2.032  0.00  0.00    +0.026 C 
ATOM      4  C   UNL     1      -0.193   1.375  -1.031  0.00  0.00    +0.097 C 
ATOM      5  C   UNL     1      -0.488   1.977   0.311  0.00  0.00    +0.078 C 
ATOM      6  C   UNL     1      -1.733   2.417   0.626  0.00  0.00    +0.117 C 
ATOM      7  C   UNL     1      -0.972   1.571  -3.398  0.00  0.00    +0.162 C 
ATOM      8  O   UNL     1       0.129   1.178  -3.730  0.00  0.00    -0.292 OA
ATOM      9  C   UNL     1      -1.994   1.883  -4.456  0.00  0.00    +0.088 C 
ATOM     10  C   UNL     1      -3.395   1.664  -3.874  0.00  0.00    +0.032 C 
ATOM     11  C   UNL     1      -3.543   2.537  -2.626  0.00  0.00    +0.061 C 
ENDROOT
BRANCH   4  12
ATOM     12  C   UNL     1      -0.118  -0.124  -0.895  0.00  0.00    -0.035 A 
ATOM     13  C   UNL     1      -1.218  -0.833  -0.449  0.00  0.00    +0.006 A 
ATOM     14  C   UNL     1      -1.152  -2.208  -0.329  0.00  0.00    +0.020 A 
ATOM     15  C   UNL     1       0.019  -2.874  -0.644  0.00  0.00    +0.041 A 
ATOM     16  C   UNL     1       1.122  -2.163  -1.084  0.00  0.00    +0.020 A 
ATOM     17  C   UNL     1       1.052  -0.788  -1.210  0.00  0.00    +0.006 A 
ATOM     18 CL   UNL     1       0.106  -4.601  -0.487  0.00  0.00    -0.084 Cl
ENDBRANCH   4  12
BRANCH  10  19
ATOM     19  C   UNL     1      -4.434   2.057  -4.893  0.00  0.00    -0.044 A 
ATOM     20  C   UNL     1      -4.464   3.347  -5.388  0.00  0.00    +0.004 A 
ATOM     21  C   UNL     1      -5.414   3.706  -6.325  0.00  0.00    +0.000 A 
ATOM     22  C   UNL     1      -6.339   2.777  -6.762  0.00  0.00    +0.000 A 
ATOM     23  C   UNL     1      -6.312   1.488  -6.264  0.00  0.00    +0.000 A 
ATOM     24  C   UNL     1      -5.360   1.128  -5.330  0.00  0.00    +0.004 A 
ENDBRANCH  10  19
BRANCH   1  26
ATOM     25  C   UNL     1      -4.702   3.609  -0.338  0.00  0.00    +0.128 C 
ATOM     26  N   UNL     1      -4.049   2.377   0.124  0.00  0.00    -0.227 NA
ATOM     27  C   UNL     1      -4.793   1.189  -0.318  0.00  0.00    +0.128 C 
ENDBRANCH   1  26
BRANCH   6  28
ATOM     28  N   UNL     1      -1.978   2.956   1.866  0.00  0.00    -0.344 N 
ATOM     29  H   UNL     1      -2.825   3.391   2.047  0.00  0.00    +0.144 HD
ATOM     30  H   UNL     1      -1.302   2.902   2.560  0.00  0.00    +0.144 HD
ENDBRANCH   6  28
BRANCH   5  31
ATOM     31  C   UNL     1       0.562   2.090   1.278  0.00  0.00    +0.099 C 
ATOM     32  N   UNL     1       1.395   2.179   2.045  0.00  0.00    -0.191 NA
ENDBRANCH   5  31
TORSDOF 5
