REMARK  Name = ZINC09115664
REMARK  3 active torsions:
REMARK  status: ('A' for Active; 'I' for Inactive)
REMARK    1  A    between atoms: C_6  and  C_10
REMARK    2  A    between atoms: N_12  and  C_13
REMARK    3  A    between atoms: C_17  and  C_19
REMARK                            x       y       z     vdW  Elec       q    Type
REMARK                         _______ _______ _______ _____ _____    ______ ____
ROOT
ATOM      1  C   UNL     1      -3.554  -3.367   0.540  0.00  0.00    +0.034 A 
ATOM      2  C   UNL     1      -2.724  -4.398   0.114  0.00  0.00    +0.023 A 
ATOM      3  C   UNL     1      -1.442  -4.123  -0.324  0.00  0.00    +0.002 A 
ATOM      4  C   UNL     1      -0.980  -2.822  -0.346  0.00  0.00    +0.012 A 
ATOM      5  C   UNL     1      -1.803  -1.782   0.084  0.00  0.00    +0.021 A 
ATOM      6  C   UNL     1      -3.096  -2.058   0.526  0.00  0.00    +0.035 A 
ENDROOT
BRANCH   5   7
ATOM      7  C   UNL     1      -1.307  -0.388   0.067  0.00  0.00    +0.164 A 
ATOM      8  N   UNL     1      -2.039   0.706   0.086  0.00  0.00    -0.129 NA
ATOM      9  N   UNL     1      -1.275   1.741   0.068  0.00  0.00    -0.134 NA
ATOM     10  C   UNL     1      -0.025   1.371   0.041  0.00  0.00    +0.134 A 
ATOM     11  N   UNL     1      -0.003   0.012   0.028  0.00  0.00    -0.311 N 
ATOM     12  C   UNL     1       1.185  -0.840  -0.028  0.00  0.00    +0.125 C 
ATOM     13  C   UNL     1       2.366  -0.105   0.614  0.00  0.00    +0.022 C 
ATOM     14  C   UNL     1       3.095   0.720  -0.445  0.00  0.00    +0.002 C 
ATOM     15  C   UNL     1       2.165   1.773  -1.039  0.00  0.00    +0.008 C 
ATOM     16  C   UNL     1       1.189   2.263   0.036  0.00  0.00    +0.076 C 
ENDBRANCH   5   7
BRANCH   1  19
ATOM     17  C   UNL     1      -5.850  -2.780   0.738  0.00  0.00    +0.268 C 
ATOM     18  O   UNL     1      -5.648  -1.798   0.050  0.00  0.00    -0.268 OA
ATOM     19  N   UNL     1      -4.850  -3.650   0.982  0.00  0.00    -0.280 N 
ATOM     20  H   UNL     1      -5.030  -4.472   1.463  0.00  0.00    +0.155 HD
BRANCH  17  26
ATOM     21  C   UNL     1     -10.977  -4.377   3.348  0.00  0.00    +0.005 A 
ATOM     22  C   UNL     1     -11.447  -3.198   2.743  0.00  0.00    +0.018 A 
ATOM     23  C   UNL     1     -10.618  -2.437   2.000  0.00  0.00    +0.093 A 
ATOM     24  N   UNL     1      -9.312  -2.797   1.824  0.00  0.00    -0.306 N 
ATOM     25  C   UNL     1      -8.285  -2.217   1.143  0.00  0.00    +0.125 A 
ATOM     26  C   UNL     1      -7.191  -3.018   1.306  0.00  0.00    +0.144 A 
ATOM     27  N   UNL     1      -7.546  -4.060   2.081  0.00  0.00    -0.223 NA
ATOM     28  C   UNL     1      -8.823  -3.942   2.402  0.00  0.00    +0.138 A 
ATOM     29  C   UNL     1      -9.681  -4.749   3.182  0.00  0.00    +0.047 A 
ENDBRANCH  17  26
ENDBRANCH   1  19
TORSDOF 3
