REMARK  Name = ZINC38576123
REMARK  6 active torsions:
REMARK  status: ('A' for Active; 'I' for Inactive)
REMARK    1  A    between atoms: C_1  and  C_2
REMARK    2  A    between atoms: C_6  and  C_23
REMARK    3  A    between atoms: C_9  and  O_22
REMARK    4  A    between atoms: C_28  and  C_29
REMARK    5  A    between atoms: C_32  and  O_35
REMARK    6  A    between atoms: O_35  and  C_36
REMARK                            x       y       z     vdW  Elec       q    Type
REMARK                         _______ _______ _______ _____ _____    ______ ____
ROOT
ATOM      1  C   UNL     1      -0.673  -0.770  -0.181  0.00  0.00    +0.026 C 
ATOM      2  C   UNL     1      -0.168  -1.942  -1.026  0.00  0.00    +0.077 C 
ATOM      3  C   UNL     1       0.885  -1.462  -2.052  0.00  0.00    +0.056 C 
ATOM      4  C   UNL     1       0.215  -1.052  -3.353  0.00  0.00    +0.020 C 
ATOM      5  C   UNL     1      -0.706  -2.175  -3.835  0.00  0.00    +0.100 C 
ATOM      6  C   UNL     1       0.079  -3.456  -3.887  0.00  0.00    +0.185 C 
ATOM      7  N   UNL     1       1.116  -3.662  -3.184  0.00  0.00    -0.230 NA
ATOM      8  C   UNL     1       1.731  -2.740  -2.220  0.00  0.00    +0.216 C 
ATOM      9  N   UNL     1       1.682  -3.354  -0.874  0.00  0.00    -0.224 N 
ATOM     10  N   UNL     1       0.586  -2.902  -0.190  0.00  0.00    -0.234 NA
ATOM     11  C   UNL     1       2.615  -4.264  -0.377  0.00  0.00    +0.157 A 
ATOM     12  C   UNL     1       2.462  -4.782   0.924  0.00  0.00    +0.052 A 
ATOM     13  C   UNL     1       3.371  -5.669   1.408  0.00  0.00    +0.075 A 
ATOM     14  C   UNL     1       4.457  -6.056   0.595  0.00  0.00    +0.265 A 
ATOM     15  N   UNL     1       4.576  -5.542  -0.645  0.00  0.00    -0.241 N 
ATOM     16  N   UNL     1       3.625  -4.635  -1.126  0.00  0.00    -0.155 NA
ATOM     17  O   UNL     1       5.284  -6.851   1.013  0.00  0.00    -0.266 OA
ATOM     18  H   UNL     1       0.856  -2.484   0.688  0.00  0.00    +0.145 HD
ATOM     19  H   UNL     1       5.321  -5.805  -1.208  0.00  0.00    +0.192 HD
ENDROOT
BRANCH   4  20
ATOM     20  C   UNL     1      -0.609   0.217  -3.124  0.00  0.00    +0.087 C 
ATOM     21  C   UNL     1      -1.784   0.270  -4.079  0.00  0.00    +0.117 C 
ATOM     22  N   UNL     1      -1.615   1.332  -4.798  0.00  0.00    -0.161 NA
ATOM     23  N   UNL     1      -0.459   2.026  -4.458  0.00  0.00    -0.153 NA
ATOM     24  C   UNL     1       0.197   1.449  -3.484  0.00  0.00    +0.079 C 
BRANCH  24  25
ATOM     25  C   UNL     1       1.453   1.899  -2.866  0.00  0.00    -0.001 A 
ATOM     26  C   UNL     1       1.783   1.491  -1.569  0.00  0.00    +0.013 A 
ATOM     27  C   UNL     1       2.961   1.915  -0.995  0.00  0.00    +0.046 A 
ATOM     28  C   UNL     1       3.822   2.746  -1.702  0.00  0.00    +0.120 A 
ATOM     29  C   UNL     1       3.499   3.153  -2.992  0.00  0.00    +0.046 A 
ATOM     30  C   UNL     1       2.326   2.731  -3.576  0.00  0.00    +0.013 A 
BRANCH  28  31
ATOM     31  O   UNL     1       4.982   3.161  -1.132  0.00  0.00    -0.495 OA
ATOM     32  C   UNL     1       5.821   4.013  -1.915  0.00  0.00    +0.277 C 
ENDBRANCH  28  31
ENDBRANCH  24  25
ENDBRANCH   4  20
BRANCH   6  33
ATOM     33  O   UNL     1      -0.338  -4.433  -4.719  0.00  0.00    -0.496 OA
ATOM     34  H   UNL     1       0.214  -5.228  -4.700  0.00  0.00    +0.293 HD
ENDBRANCH   6  33
TORSDOF 4
