REMARK  Name = ZINC51094478
REMARK  5 active torsions:
REMARK  status: ('A' for Active; 'I' for Inactive)
REMARK    1  A    between atoms: C_3  and  N_19
REMARK    2  A    between atoms: C_4  and  C_8
REMARK    3  A    between atoms: N_10  and  C_11
REMARK    4  A    between atoms: C_11  and  C_12
REMARK    5  A    between atoms: N_19  and  N_20
REMARK                            x       y       z     vdW  Elec       q    Type
REMARK                         _______ _______ _______ _____ _____    ______ ____
ROOT
ATOM      1  C   UNL     1      -0.084   1.246   0.020  0.00  0.00    +0.022 A 
ATOM      2  C   UNL     1       1.011   2.086  -0.007  0.00  0.00    +0.026 A 
ATOM      3  C   UNL     1       2.295   1.557  -0.033  0.00  0.00    +0.053 A 
ATOM      4  C   UNL     1       2.472   0.164  -0.031  0.00  0.00    +0.060 A 
ATOM      5  C   UNL     1       1.355  -0.674  -0.003  0.00  0.00    +0.035 A 
ATOM      6  C   UNL     1       0.088  -0.130   0.022  0.00  0.00    +0.042 A 
ATOM      7 CL   UNL     1      -1.299  -1.174   0.058  0.00  0.00    -0.084 Cl
ENDROOT
BRANCH   4   8
ATOM      8  C   UNL     1       3.830  -0.410  -0.059  0.00  0.00    +0.246 C 
ATOM      9  O   UNL     1       4.800   0.318   0.021  0.00  0.00    -0.270 OA
ATOM     10  N   UNL     1       3.996  -1.743  -0.173  0.00  0.00    -0.309 N 
ATOM     11  H   UNL     1       3.222  -2.324  -0.238  0.00  0.00    +0.149 HD
BRANCH  10  12
ATOM     12  C   UNL     1       5.345  -2.314  -0.201  0.00  0.00    +0.136 C 
BRANCH  12  13
ATOM     13  C   UNL     1       5.252  -3.835  -0.337  0.00  0.00    +0.135 C 
ATOM     14  C   UNL     1       6.662  -4.431  -0.365  0.00  0.00    +0.033 C 
ATOM     15  C   UNL     1       6.560  -5.958  -0.440  0.00  0.00    +0.005 C 
ATOM     16  C   UNL     1       5.739  -6.463   0.751  0.00  0.00    +0.028 C 
ATOM     17  C   UNL     1       4.365  -5.788   0.736  0.00  0.00    +0.160 C 
ATOM     18  O   UNL     1       4.532  -4.369   0.776  0.00  0.00    -0.375 OA
ENDBRANCH  12  13
ENDBRANCH  10  12
ENDBRANCH   4   8
BRANCH   3  19
ATOM     19  N   UNL     1       3.398   2.401  -0.062  0.00  0.00    -0.282 N 
ATOM     20  H   UNL     1       4.293   2.032   0.001  0.00  0.00    +0.166 HD
BRANCH  19  21
ATOM     21  N   UNL     1       3.222   3.751  -0.177  0.00  0.00    -0.256 NA
ATOM     22  H   UNL     1       4.109   4.232  -0.184  0.00  0.00    +0.140 HD
ATOM     23  H   UNL     1       2.682   3.976  -0.999  0.00  0.00    +0.140 HD
ENDBRANCH  19  21
ENDBRANCH   3  19
TORSDOF 5
