REMARK  Name = ZINC06239673
REMARK  8 active torsions:
REMARK  status: ('A' for Active; 'I' for Inactive)
REMARK    1  A    between atoms: C_1  and  O_2
REMARK    2  A    between atoms: O_2  and  C_3
REMARK    3  A    between atoms: C_6  and  O_31
REMARK    4  A    between atoms: C_7  and  C_9
REMARK    5  A    between atoms: C_16  and  N_30
REMARK    6  A    between atoms: C_17  and  C_28
REMARK    7  A    between atoms: C_18  and  C_20
REMARK    8  A    between atoms: O_31  and  C_32
REMARK                            x       y       z     vdW  Elec       q    Type
REMARK                         _______ _______ _______ _____ _____    ______ ____
ROOT
ATOM      1  C   UNL     1       1.385  -4.143   2.233  0.00  0.00    +0.104 A 
ATOM      2  C   UNL     1       0.774  -5.017   1.328  0.00  0.00    +0.054 A 
ATOM      3  C   UNL     1       1.068  -6.294   1.710  0.00  0.00    +0.223 A 
ATOM      4  N   UNL     1       1.837  -6.224   2.817  0.00  0.00    -0.246 N 
ATOM      5  H   UNL     1       2.196  -6.978   3.310  0.00  0.00    +0.192 HD
ATOM      6  N   UNL     1       2.030  -4.869   3.126  0.00  0.00    -0.170 NA
ATOM      7  O   UNL     1       0.624  -7.381   1.032  0.00  0.00    -0.423 OA
ATOM      8  C   UNL     1       0.104  -7.183  -0.196  0.00  0.00    +0.200 C 
ATOM      9  C   UNL     1      -0.239  -5.968  -0.680  0.00  0.00    +0.098 C 
ATOM     10  C   UNL     1      -0.074  -4.702   0.123  0.00  0.00    +0.103 C 
ENDROOT
BRANCH  10  11
ATOM     11  C   UNL     1      -1.425  -4.203   0.568  0.00  0.00    -0.015 A 
ATOM     12  C   UNL     1      -2.185  -4.954   1.446  0.00  0.00    +0.006 A 
ATOM     13  C   UNL     1      -3.424  -4.497   1.854  0.00  0.00    +0.002 A 
ATOM     14  C   UNL     1      -3.904  -3.288   1.386  0.00  0.00    +0.021 A 
ATOM     15  C   UNL     1      -3.145  -2.536   0.508  0.00  0.00    +0.060 A 
ATOM     16  C   UNL     1      -1.902  -2.991   0.104  0.00  0.00    +0.063 A 
ATOM     17 CL   UNL     1      -0.944  -2.044  -0.992  0.00  0.00    -0.082 Cl
ATOM     18 CL   UNL     1      -3.748  -1.018  -0.080  0.00  0.00    -0.082 Cl
ENDBRANCH  10  11
BRANCH   1  23
ATOM     19  C   UNL     1       1.541  -0.600   0.974  0.00  0.00    +0.121 A 
ATOM     20  C   UNL     1       1.210   0.111   2.119  0.00  0.00    +0.049 A 
ATOM     21  C   UNL     1       0.935  -0.557   3.297  0.00  0.00    +0.050 A 
ATOM     22  C   UNL     1       0.990  -1.940   3.341  0.00  0.00    +0.130 A 
ATOM     23  C   UNL     1       1.324  -2.661   2.191  0.00  0.00    +0.048 A 
ATOM     24  C   UNL     1       1.594  -1.983   1.005  0.00  0.00    +0.059 A 
BRANCH  19  26
ATOM     25  C   UNL     1       1.737   1.490  -0.144  0.00  0.00    +0.277 C 
ATOM     26  O   UNL     1       1.810   0.063  -0.183  0.00  0.00    -0.495 OA
ENDBRANCH  19  26
BRANCH  22  27
ATOM     27  O   UNL     1       0.721  -2.596   4.501  0.00  0.00    -0.494 OA
ATOM     28  C   UNL     1       0.388  -1.795   5.637  0.00  0.00    +0.277 C 
ENDBRANCH  22  27
ENDBRANCH   1  23
BRANCH   8  29
ATOM     29  N   UNL     1      -0.087  -8.278  -1.002  0.00  0.00    -0.328 N 
ATOM     30  H   UNL     1       0.150  -9.162  -0.682  0.00  0.00    +0.145 HD
ATOM     31  H   UNL     1      -0.459  -8.166  -1.891  0.00  0.00    +0.145 HD
ENDBRANCH   8  29
BRANCH   9  32
ATOM     32  C   UNL     1      -0.778  -5.881  -2.004  0.00  0.00    +0.101 C 
ATOM     33  N   UNL     1      -1.205  -5.811  -3.054  0.00  0.00    -0.191 NA
ENDBRANCH   9  32
TORSDOF 6
