REMARK  Name = ZINC67267986
REMARK  7 active torsions:
REMARK  status: ('A' for Active; 'I' for Inactive)
REMARK    1  A    between atoms: C_1  and  C_2
REMARK    2  A    between atoms: C_2  and  C_3
REMARK    3  A    between atoms: C_3  and  C_5
REMARK    4  A    between atoms: C_3  and  C_6
REMARK    5  A    between atoms: C_6  and  C_8
REMARK    6  A    between atoms: C_6  and  N_18
REMARK    7  A    between atoms: C_19  and  C_21
REMARK                            x       y       z     vdW  Elec       q    Type
REMARK                         _______ _______ _______ _____ _____    ______ ____
ROOT
ATOM      1  N   UNL     1      -3.455  -0.961   1.414  0.00  0.00    -0.305 N 
ATOM      2  C   UNL     1      -3.537  -2.255   1.782  0.00  0.00    +0.217 C 
ATOM      3  O   UNL     1      -2.542  -2.845   2.145  0.00  0.00    -0.275 OA
ATOM      4  H   UNL     1      -4.251  -0.488   1.123  0.00  0.00    +0.149 HD
ENDROOT
BRANCH   2   5
ATOM      5  C   UNL     1      -4.864  -2.967   1.742  0.00  0.00    +0.075 C 
ATOM      6  C   UNL     1      -5.853  -2.256   2.668  0.00  0.00    +0.015 C 
ATOM      7  C   UNL     1      -7.204  -2.974   2.617  0.00  0.00    +0.036 C 
ATOM      8  C   UNL     1      -7.029  -4.425   3.051  0.00  0.00    +0.112 C 
ATOM      9  C   UNL     1      -6.026  -5.140   2.152  0.00  0.00    +0.036 C 
ATOM     10  C   UNL     1      -4.680  -4.414   2.205  0.00  0.00    +0.015 C 
ATOM     11  C   UNL     1      -6.587  -4.495   4.495  0.00  0.00    +0.244 C 
ATOM     12  O   UNL     1      -5.569  -4.044   4.973  0.00  0.00    -0.273 OA
ATOM     13  N   UNL     1      -7.565  -5.164   5.139  0.00  0.00    -0.238 N 
ATOM     14  C   UNL     1      -8.550  -5.521   4.305  0.00  0.00    +0.307 C 
ATOM     15  O   UNL     1      -9.541  -6.134   4.652  0.00  0.00    -0.252 OA
ATOM     16  N   UNL     1      -8.320  -5.124   3.039  0.00  0.00    -0.285 N 
ATOM     17  H   UNL     1      -7.556  -5.363   6.088  0.00  0.00    +0.159 HD
ATOM     18  H   UNL     1      -8.894  -5.271   2.271  0.00  0.00    +0.151 HD
ENDBRANCH   2   5
BRANCH   1  19
ATOM     19  C   UNL     1      -2.165  -0.268   1.452  0.00  0.00    +0.142 C 
BRANCH  19  20
ATOM     20  C   UNL     1      -2.395   1.214   1.607  0.00  0.00    +0.129 A 
ATOM     21  N   UNL     1      -3.606   1.797   1.813  0.00  0.00    -0.340 N 
ATOM     22  H   UNL     1      -4.459   1.341   1.886  0.00  0.00    +0.167 HD
ATOM     23  C   UNL     1      -3.397   3.159   1.900  0.00  0.00    +0.066 A 
ATOM     24  C   UNL     1      -4.227   4.254   2.099  0.00  0.00    +0.028 A 
ATOM     25  C   UNL     1      -3.687   5.522   2.136  0.00  0.00    +0.002 A 
ATOM     26  C   UNL     1      -2.322   5.710   1.974  0.00  0.00    +0.002 A 
ATOM     27  C   UNL     1      -1.490   4.644   1.776  0.00  0.00    +0.030 A 
ATOM     28  C   UNL     1      -2.015   3.350   1.736  0.00  0.00    +0.089 A 
ATOM     29  N   UNL     1      -1.463   2.121   1.567  0.00  0.00    -0.231 NA
ENDBRANCH  19  20
BRANCH  19  30
ATOM     30  C   UNL     1      -1.404  -0.533   0.152  0.00  0.00    +0.013 C 
ATOM     31  C   UNL     1      -2.286  -0.157  -1.041  0.00  0.00    +0.010 C 
BRANCH  30  33
ATOM     32  C   UNL     1      -0.045  -2.360   1.180  0.00  0.00    +0.004 C 
ATOM     33  C   UNL     1      -1.039  -2.017   0.069  0.00  0.00    +0.002 C 
ENDBRANCH  30  33
ENDBRANCH  19  30
ENDBRANCH   1  19
TORSDOF 5
