REMARK  Name = ZINC53107094
REMARK  7 active torsions:
REMARK  status: ('A' for Active; 'I' for Inactive)
REMARK    1  A    between atoms: C_1  and  C_2
REMARK    2  A    between atoms: C_5  and  N_8
REMARK    3  A    between atoms: C_10  and  C_16
REMARK    4  A    between atoms: N_13  and  C_14
REMARK    5  A    between atoms: N_13  and  C_15
REMARK    6  A    between atoms: C_17  and  C_18
REMARK    7  A    between atoms: C_17  and  C_20
REMARK                            x       y       z     vdW  Elec       q    Type
REMARK                         _______ _______ _______ _____ _____    ______ ____
ROOT
ATOM      1  N   UNL     1       1.197  -4.292   0.706  0.00  0.00    -0.271 N 
ATOM      2  C   UNL     1       0.062  -5.037   0.552  0.00  0.00    +0.142 A 
ATOM      3  C   UNL     1       0.468  -6.297   0.155  0.00  0.00    +0.104 A 
ATOM      4  N   UNL     1       1.829  -6.283   0.079  0.00  0.00    -0.213 NA
ATOM      5  C   UNL     1       2.263  -5.091   0.400  0.00  0.00    +0.204 A 
ATOM      6  N   UNL     1       3.590  -4.703   0.429  0.00  0.00    -0.307 N 
ATOM      7  C   UNL     1       3.938  -3.305   0.696  0.00  0.00    +0.132 C 
ATOM      8  C   UNL     1       4.647  -5.690   0.194  0.00  0.00    +0.132 C 
ATOM      9 CL   UNL     1      -1.571  -4.506   0.807  0.00  0.00    -0.061 Cl
ENDROOT
BRANCH   1  14
ATOM     10  C   UNL     1       1.437   1.149   2.303  0.00  0.00    +0.044 C 
ATOM     11  C   UNL     1       1.373  -0.295   1.879  0.00  0.00    -0.050 A 
ATOM     12  C   UNL     1       0.773  -0.637   0.681  0.00  0.00    +0.005 A 
ATOM     13  C   UNL     1       0.713  -1.960   0.290  0.00  0.00    +0.026 A 
ATOM     14  C   UNL     1       1.257  -2.948   1.100  0.00  0.00    +0.051 A 
ATOM     15  C   UNL     1       1.860  -2.601   2.302  0.00  0.00    +0.026 A 
ATOM     16  C   UNL     1       1.921  -1.276   2.685  0.00  0.00    +0.005 A 
ENDBRANCH   1  14
BRANCH   3  17
ATOM     17  C   UNL     1      -0.376  -7.401  -0.122  0.00  0.00    +0.053 C 
ATOM     18  C   UNL     1       0.046  -8.681   0.167  0.00  0.00    +0.098 C 
BRANCH  18  19
ATOM     19  C   UNL     1       1.214  -8.893   1.046  0.00  0.00    +0.177 A 
ATOM     20  N   UNL     1       1.758  -7.862   1.691  0.00  0.00    -0.194 NA
ATOM     21  C   UNL     1       2.809  -8.054   2.482  0.00  0.00    +0.217 A 
ATOM     22  N   UNL     1       3.317  -9.274   2.628  0.00  0.00    -0.181 NA
ATOM     23  C   UNL     1       2.775 -10.303   1.985  0.00  0.00    +0.217 A 
ATOM     24  N   UNL     1       3.304 -11.569   2.139  0.00  0.00    -0.327 N 
ATOM     25  N   UNL     1       1.720 -10.116   1.198  0.00  0.00    -0.194 NA
ATOM     26  N   UNL     1       3.373  -6.986   3.150  0.00  0.00    -0.327 N 
ATOM     27  H   UNL     1       4.071 -11.707   2.716  0.00  0.00    +0.145 HD
ATOM     28  H   UNL     1       2.958  -6.111   3.104  0.00  0.00    +0.145 HD
ATOM     29  H   UNL     1       4.184  -7.112   3.667  0.00  0.00    +0.145 HD
ATOM     30  H   UNL     1       2.909 -12.320   1.670  0.00  0.00    +0.145 HD
ENDBRANCH  18  19
BRANCH  18  31
ATOM     31  C   UNL     1      -0.647  -9.806  -0.385  0.00  0.00    +0.103 C 
ATOM     32  N   UNL     1      -1.198 -10.698  -0.823  0.00  0.00    -0.191 NA
ENDBRANCH  18  31
ENDBRANCH   3  17
TORSDOF 4
