REMARK  Name = ZINC52094504
REMARK  4 active torsions:
REMARK  status: ('A' for Active; 'I' for Inactive)
REMARK    1  A    between atoms: C_1  and  N_2
REMARK    2  A    between atoms: N_2  and  C_3
REMARK    3  A    between atoms: C_3  and  C_5
REMARK    4  A    between atoms: C_3  and  C_18
REMARK                            x       y       z     vdW  Elec       q    Type
REMARK                         _______ _______ _______ _____ _____    ______ ____
ROOT
ATOM      1  C   UNL     1       1.158  -1.942   0.923  0.00  0.00    -0.045 A 
ATOM      2  C   UNL     1       0.452  -2.695   0.005  0.00  0.00    +0.031 A 
ATOM      3  C   UNL     1       0.769  -4.031  -0.182  0.00  0.00    +0.067 A 
ATOM      4  C   UNL     1       1.801  -4.612   0.559  0.00  0.00    +0.068 A 
ATOM      5  C   UNL     1       2.504  -3.849   1.478  0.00  0.00    +0.043 A 
ATOM      6  C   UNL     1       2.185  -2.516   1.654  0.00  0.00    +0.022 A 
ATOM      7 BR   UNL     1       3.150  -1.473   2.902  0.00  0.00    -0.050 Br
ATOM      8  N   UNL     1       1.883  -5.943   0.159  0.00  0.00    -0.306 N 
ATOM      9  H   UNL     1       2.510  -6.601   0.500  0.00  0.00    +0.170 HD
ATOM     10  C   UNL     1       0.946  -6.163  -0.781  0.00  0.00    +0.325 A 
ATOM     11  O   UNL     1       0.749  -7.226  -1.341  0.00  0.00    -0.247 OA
ATOM     12  N   UNL     1       0.257  -5.029  -1.009  0.00  0.00    -0.306 N 
ATOM     13  H   UNL     1      -0.472  -4.924  -1.640  0.00  0.00    +0.170 HD
ENDROOT
BRANCH   1  14
ATOM     14  C   UNL     1       0.814  -0.489   1.126  0.00  0.00    -0.037 C 
BRANCH  14  15
ATOM     15  C   UNL     1      -0.298  -0.369   2.170  0.00  0.00    -0.021 C 
ATOM     16  C   UNL     1       0.129  -1.066   3.479  0.00  0.00    +0.002 C 
ATOM     17  C   UNL     1      -1.174  -1.717   4.005  0.00  0.00    +0.000 C 
ATOM     18  C   UNL     1      -1.861  -2.207   2.706  0.00  0.00    +0.000 C 
ATOM     19  C   UNL     1      -1.563  -1.095   1.679  0.00  0.00    +0.002 C 
ENDBRANCH  14  15
BRANCH  14  21
ATOM     20  C   UNL     1       0.158   1.534   0.017  0.00  0.00    -0.100 C 
ATOM     21  N   UNL     1       0.356   0.088  -0.145  0.00  0.00    +0.382 N 
ATOM     22  H   UNL     1      -0.516  -0.343  -0.415  0.00  0.00    -0.085 HD
ATOM     23  H   UNL     1       1.049  -0.079  -0.859  0.00  0.00    -0.085 HD
ENDBRANCH  14  21
ENDBRANCH   1  14
TORSDOF 3
