REMARK  Name = ZINC66686098
REMARK  10 active torsions:
REMARK  status: ('A' for Active; 'I' for Inactive)
REMARK    1  A    between atoms: C_1  and  C_2
REMARK    2  A    between atoms: C_5  and  N_14
REMARK    3  A    between atoms: C_7  and  C_8
REMARK    4  A    between atoms: N_10  and  C_11
REMARK    5  A    between atoms: C_11  and  C_12
REMARK    6  A    between atoms: C_11  and  C_13
REMARK    7  A    between atoms: N_17  and  C_18
REMARK    8  A    between atoms: C_18  and  C_19
REMARK    9  A    between atoms: C_22  and  C_24
REMARK   10  A    between atoms: C_27  and  C_29
REMARK                            x       y       z     vdW  Elec       q    Type
REMARK                         _______ _______ _______ _____ _____    ______ ____
ROOT
ATOM      1  N   UNL     1       0.167  -4.358   0.201  0.00  0.00    -0.269 N 
ATOM      2  C   UNL     1       0.250  -5.164  -0.876  0.00  0.00    +0.304 C 
ATOM      3  O   UNL     1       0.184  -4.691  -1.995  0.00  0.00    -0.252 OA
ATOM      4  N   UNL     1       0.407  -6.492  -0.714  0.00  0.00    -0.292 N 
ATOM      5  H   UNL     1       0.147  -4.741   1.093  0.00  0.00    +0.156 HD
ATOM      6  H   UNL     1       0.460  -6.869   0.178  0.00  0.00    +0.151 HD
ENDROOT
BRANCH   1  11
ATOM      7  C   UNL     1      -0.048   1.283  -0.452  0.00  0.00    +0.044 C 
ATOM      8  C   UNL     1       0.007  -0.213  -0.281  0.00  0.00    -0.038 A 
ATOM      9  C   UNL     1       0.676  -0.761   0.794  0.00  0.00    +0.006 A 
ATOM     10  C   UNL     1       0.730  -2.133   0.955  0.00  0.00    +0.023 A 
ATOM     11  C   UNL     1       0.110  -2.970   0.035  0.00  0.00    +0.035 A 
ATOM     12  C   UNL     1      -0.565  -2.429  -1.049  0.00  0.00    +0.036 A 
ATOM     13  C   UNL     1      -0.623  -1.045  -1.208  0.00  0.00    +0.041 A 
BRANCH  13  14
ATOM     14  C   UNL     1      -1.346  -0.460  -2.358  0.00  0.00    +0.245 C 
ATOM     15  O   UNL     1      -1.338   0.743  -2.533  0.00  0.00    -0.270 OA
ATOM     16  N   UNL     1      -2.013  -1.261  -3.212  0.00  0.00    -0.309 N 
ATOM     17  H   UNL     1      -2.020  -2.221  -3.072  0.00  0.00    +0.149 HD
BRANCH  16  18
ATOM     18  C   UNL     1      -2.729  -0.682  -4.351  0.00  0.00    +0.067 C 
ATOM     19  C   UNL     1      -1.760  -0.490  -5.519  0.00  0.00    +0.027 C 
ATOM     20  C   UNL     1      -3.859  -1.623  -4.776  0.00  0.00    +0.027 C 
ENDBRANCH  16  18
ENDBRANCH  13  14
ENDBRANCH   1  11
BRANCH   4  21
ATOM     21  C   UNL     1       0.497  -7.368  -1.885  0.00  0.00    +0.180 C 
BRANCH  21  22
ATOM     22  C   UNL     1       0.669  -8.795  -1.433  0.00  0.00    +0.122 A 
ATOM     23  C   UNL     1      -0.326  -9.669  -1.192  0.00  0.00    +0.046 A 
ATOM     24  C   UNL     1       0.282 -10.881  -0.794  0.00  0.00    +0.045 A 
ATOM     25  C   UNL     1       1.612 -10.677  -0.815  0.00  0.00    +0.109 A 
ATOM     26  O   UNL     1       1.840  -9.413  -1.209  0.00  0.00    -0.463 OA
BRANCH  25  27
ATOM     27  C   UNL     1       2.666 -11.694  -0.463  0.00  0.00    +0.058 C 
ATOM     28  C   UNL     1       4.124 -11.328  -0.747  0.00  0.00    +0.015 C 
ATOM     29  C   UNL     1       3.610 -11.361   0.694  0.00  0.00    -0.003 C 
ATOM     30  C   UNL     1       4.073 -12.517   1.583  0.00  0.00    +0.008 C 
ENDBRANCH  25  27
ENDBRANCH  21  22
ENDBRANCH   4  21
TORSDOF 6
