REMARK  Name = ZINC20345281
REMARK  7 active torsions:
REMARK  status: ('A' for Active; 'I' for Inactive)
REMARK    1  A    between atoms: C_1  and  C_2
REMARK    2  A    between atoms: C_4  and  C_26
REMARK    3  A    between atoms: C_6  and  N_8
REMARK    4  A    between atoms: N_10  and  C_11
REMARK    5  A    between atoms: C_15  and  O_17
REMARK    6  A    between atoms: O_17  and  C_18
REMARK    7  A    between atoms: C_23  and  C_25
REMARK                            x       y       z     vdW  Elec       q    Type
REMARK                         _______ _______ _______ _____ _____    ______ ____
ROOT
ATOM      1  N   UNL     1       3.573   2.066  -0.088  0.00  0.00    -0.284 N 
ATOM      2  C   UNL     1       3.582   3.406  -0.394  0.00  0.00    +0.213 C 
ATOM      3  N   UNL     1       2.477   4.108  -0.296  0.00  0.00    -0.215 NA
ATOM      4  N   UNL     1       4.748   4.011  -0.802  0.00  0.00    -0.235 N 
ATOM      5  C   UNL     1       5.117   4.384  -2.076  0.00  0.00    +0.140 A 
ATOM      6  N   UNL     1       4.328   4.184  -3.111  0.00  0.00    -0.283 NA
ATOM      7  C   UNL     1       6.364   4.988  -2.214  0.00  0.00    +0.058 A 
ATOM      8  C   UNL     1       7.101   5.142  -1.091  0.00  0.00    +0.007 A 
ATOM      9  S   UNL     1       6.092   4.473   0.146  0.00  0.00    -0.007 S 
ATOM     10  C   UNL     1       8.473   5.751  -0.949  0.00  0.00    +0.053 C 
ATOM     11  H   UNL     1       4.509   1.489  -0.117  0.00  0.00    +0.155 HD
ATOM     12  H   UNL     1       4.640   4.389  -4.006  0.00  0.00    +0.188 HD
ENDROOT
BRANCH   1  18
ATOM     13  C   UNL     1      -0.812   2.245   2.128  0.00  0.00    +0.044 C 
ATOM     14  C   UNL     1       0.232   1.498   1.338  0.00  0.00    -0.048 A 
ATOM     15  C   UNL     1       0.003   0.190   0.953  0.00  0.00    +0.006 A 
ATOM     16  C   UNL     1       0.956  -0.497   0.223  0.00  0.00    -0.048 A 
ATOM     17  C   UNL     1       2.141   0.122  -0.123  0.00  0.00    +0.026 A 
ATOM     18  C   UNL     1       2.374   1.436   0.262  0.00  0.00    +0.034 A 
ATOM     19  C   UNL     1       1.415   2.123   0.994  0.00  0.00    +0.026 A 
ATOM     20  C   UNL     1       0.701  -1.923  -0.194  0.00  0.00    +0.044 C 
ENDBRANCH   1  18
BRANCH   3  21
ATOM     21  C   UNL     1       2.508   5.463  -0.494  0.00  0.00    +0.071 A 
ATOM     22  C   UNL     1       3.385   6.260   0.245  0.00  0.00    +0.028 A 
ATOM     23  C   UNL     1       3.416   7.623   0.040  0.00  0.00    +0.006 A 
ATOM     24  C   UNL     1       2.574   8.207  -0.889  0.00  0.00    +0.046 A 
ATOM     25  C   UNL     1       1.695   7.424  -1.625  0.00  0.00    +0.122 A 
ATOM     26  C   UNL     1       1.659   6.053  -1.431  0.00  0.00    +0.073 A 
BRANCH  25  27
ATOM     27  O   UNL     1       0.870   8.003  -2.536  0.00  0.00    -0.495 OA
ATOM     28  C   UNL     1       0.960   9.421  -2.684  0.00  0.00    +0.277 C 
ENDBRANCH  25  27
ENDBRANCH   3  21
TORSDOF 3
