REMARK  Name = ZINC39639099
REMARK  13 active torsions:
REMARK  status: ('A' for Active; 'I' for Inactive)
REMARK    1  A    between atoms: C_1  and  C_2
REMARK    2  A    between atoms: C_2  and  C_4
REMARK    3  A    between atoms: C_2  and  O_33
REMARK    4  A    between atoms: C_8  and  C_17
REMARK    5  A    between atoms: N_19  and  C_20
REMARK    6  A    between atoms: C_20  and  C_21
REMARK    7  A    between atoms: C_22  and  O_31
REMARK    8  A    between atoms: C_24  and  O_29
REMARK    9  A    between atoms: C_26  and  O_27
REMARK   10  A    between atoms: O_27  and  C_28
REMARK   11  A    between atoms: O_29  and  C_30
REMARK   12  A    between atoms: O_31  and  C_32
REMARK   13  A    between atoms: O_33  and  C_34
REMARK                            x       y       z     vdW  Elec       q    Type
REMARK                         _______ _______ _______ _____ _____    ______ ____
ROOT
ATOM      1  C   UNL     1       0.609  -0.642  -1.166  0.00  0.00    +0.256 C 
ATOM      2  O   UNL     1       1.711  -1.064  -0.884  0.00  0.00    -0.272 OA
ATOM      3  N   UNL     1       0.225  -0.571  -2.456  0.00  0.00    -0.297 N 
ATOM      4  C   UNL     1      -1.096  -0.163  -2.989  0.00  0.00    +0.121 C 
ATOM      5  C   UNL     1      -0.768   0.674  -4.246  0.00  0.00    +0.100 C 
ATOM      6  C   UNL     1       0.626   0.194  -4.684  0.00  0.00    -0.004 C 
ATOM      7  C   UNL     1       1.030  -0.879  -3.662  0.00  0.00    +0.115 C 
ATOM      8  C   UNL     1       1.620   1.351  -4.645  0.00  0.00    -0.010 C 
ATOM      9  C   UNL     1       2.985   0.863  -5.139  0.00  0.00    -0.082 C 
ATOM     10  N   UNL     1       2.856   0.348  -6.507  0.00  0.00    +0.379 N 
ATOM     11  C   UNL     1       1.971  -0.823  -6.520  0.00  0.00    -0.082 C 
ATOM     12  C   UNL     1       0.563  -0.406  -6.085  0.00  0.00    -0.010 C 
ATOM     13  H   UNL     1       2.470   1.066  -7.101  0.00  0.00    -0.086 HD
ATOM     14  H   UNL     1       3.767   0.083  -6.852  0.00  0.00    -0.086 HD
ENDROOT
BRANCH   5  15
ATOM     15  C   UNL     1      -0.737   2.142  -3.906  0.00  0.00    +0.218 C 
ATOM     16  O   UNL     1      -0.264   2.510  -2.853  0.00  0.00    -0.275 OA
ATOM     17  N   UNL     1      -1.237   3.045  -4.773  0.00  0.00    -0.311 N 
ATOM     18  H   UNL     1      -1.616   2.750  -5.616  0.00  0.00    +0.149 HD
BRANCH  17  19
ATOM     19  C   UNL     1      -1.207   4.472  -4.443  0.00  0.00    +0.147 C 
BRANCH  19  20
ATOM     20  C   UNL     1      -1.821   5.261  -5.570  0.00  0.00    +0.053 A 
ATOM     21  C   UNL     1      -1.026   5.717  -6.611  0.00  0.00    +0.132 A 
ATOM     22  C   UNL     1      -1.592   6.444  -7.648  0.00  0.00    +0.091 A 
ATOM     23  C   UNL     1      -2.952   6.713  -7.645  0.00  0.00    +0.127 A 
ATOM     24  C   UNL     1      -3.747   6.256  -6.604  0.00  0.00    +0.091 A 
ATOM     25  C   UNL     1      -3.183   5.526  -5.569  0.00  0.00    +0.132 A 
BRANCH  25  26
ATOM     26  O   UNL     1      -3.962   5.074  -4.553  0.00  0.00    -0.495 OA
ATOM     27  C   UNL     1      -5.356   5.385  -4.617  0.00  0.00    +0.277 C 
ENDBRANCH  25  26
BRANCH  23  28
ATOM     28  O   UNL     1      -3.506   7.426  -8.661  0.00  0.00    -0.495 OA
ATOM     29  C   UNL     1      -4.913   7.667  -8.593  0.00  0.00    +0.277 C 
ENDBRANCH  23  28
BRANCH  21  30
ATOM     30  O   UNL     1       0.306   5.453  -6.614  0.00  0.00    -0.495 OA
ATOM     31  C   UNL     1       1.065   5.953  -7.717  0.00  0.00    +0.277 C 
ENDBRANCH  21  30
ENDBRANCH  19  20
ENDBRANCH  17  19
ENDBRANCH   5  15
BRANCH   1  33
ATOM     32  C   UNL     1      -0.494   1.323  -0.131  0.00  0.00    +0.062 C 
ATOM     33  C   UNL     1      -0.330  -0.197  -0.075  0.00  0.00    +0.256 C 
BRANCH  33  34
ATOM     34  O   UNL     1       0.206  -0.571   1.196  0.00  0.00    -0.480 OA
BRANCH  34  35
ATOM     35  C   UNL     1      -0.680  -0.739   2.214  0.00  0.00    +0.122 A 
ATOM     36  C   UNL     1      -2.021  -0.443   2.023  0.00  0.00    +0.045 A 
ATOM     37  C   UNL     1      -2.919  -0.614   3.058  0.00  0.00    +0.004 A 
ATOM     38  C   UNL     1      -2.482  -1.081   4.284  0.00  0.00    +0.000 A 
ATOM     39  C   UNL     1      -1.145  -1.377   4.477  0.00  0.00    +0.004 A 
ATOM     40  C   UNL     1      -0.244  -1.212   3.443  0.00  0.00    +0.045 A 
ENDBRANCH  34  35
ENDBRANCH  33  34
ENDBRANCH   1  33
TORSDOF 9
