REMARK  Name = ZINC39350893
REMARK  12 active torsions:
REMARK  status: ('A' for Active; 'I' for Inactive)
REMARK    1  A    between atoms: C_1  and  C_2
REMARK    2  A    between atoms: C_2  and  O_3
REMARK    3  A    between atoms: O_3  and  C_4
REMARK    4  A    between atoms: C_6  and  C_14
REMARK    5  A    between atoms: C_9  and  O_10
REMARK    6  A    between atoms: O_10  and  C_11
REMARK    7  A    between atoms: C_11  and  C_12
REMARK    8  A    between atoms: C_14  and  C_16
REMARK    9  A    between atoms: C_14  and  C_23
REMARK   10  A    between atoms: C_17  and  C_22
REMARK   11  A    between atoms: C_24  and  C_30
REMARK   12  A    between atoms: C_27  and  O_29
REMARK                            x       y       z     vdW  Elec       q    Type
REMARK                         _______ _______ _______ _____ _____    ______ ____
ROOT
ATOM      1  C   UNL     1      -0.132  -5.131   0.613  0.00  0.00    +0.088 C 
ENDROOT
BRANCH   1   2
ATOM      2  C   UNL     1       0.931  -5.918   1.336  0.00  0.00    +0.052 A 
ATOM      3  C   UNL     1       2.269  -5.543   1.491  0.00  0.00    +0.068 A 
ATOM      4  N   UNL     1       2.880  -6.478   2.174  0.00  0.00    -0.176 NA
ATOM      5  N   UNL     1       1.950  -7.480   2.478  0.00  0.00    -0.243 N 
ATOM      6  C   UNL     1       0.758  -7.114   1.958  0.00  0.00    +0.271 A 
ATOM      7  O   UNL     1      -0.402  -7.815   2.039  0.00  0.00    -0.266 OA
ATOM      8  C   UNL     1       2.900  -4.281   0.962  0.00  0.00    +0.068 C 
ATOM      9  H   UNL     1       2.130  -8.293   2.976  0.00  0.00    +0.192 HD
ENDBRANCH   1   2
BRANCH   1  12
ATOM     10  C   UNL     1       0.961  -2.468  -1.834  0.00  0.00    +0.163 A 
ATOM     11  C   UNL     1       0.406  -3.087  -0.725  0.00  0.00    +0.054 A 
ATOM     12  C   UNL     1       0.472  -4.461  -0.594  0.00  0.00    -0.031 A 
ATOM     13  C   UNL     1       1.091  -5.222  -1.568  0.00  0.00    +0.022 A 
ATOM     14  C   UNL     1       1.647  -4.612  -2.678  0.00  0.00    +0.059 A 
ATOM     15  C   UNL     1       1.579  -3.235  -2.817  0.00  0.00    +0.175 A 
ATOM     16  I   UNL     1       2.584  -5.769  -4.151  0.00  0.00    -0.040 I 
BRANCH  10  17
ATOM     17  O   UNL     1       0.898  -1.116  -1.963  0.00  0.00    -0.489 OA
BRANCH  17  19
ATOM     18  C   UNL     1       0.275   1.102  -1.234  0.00  0.00    +0.048 C 
ATOM     19  C   UNL     1       0.249  -0.394  -0.915  0.00  0.00    +0.226 C 
ENDBRANCH  17  19
ENDBRANCH  10  17
BRANCH  15  20
ATOM     20  O   UNL     1       2.120  -2.633  -3.910  0.00  0.00    -0.488 OA
BRANCH  20  21
ATOM     21  C   UNL     1       3.490  -2.235  -3.821  0.00  0.00    +0.226 C 
ATOM     22  C   UNL     1       3.918  -1.581  -5.136  0.00  0.00    +0.048 C 
ENDBRANCH  20  21
ENDBRANCH  15  20
ENDBRANCH   1  12
BRANCH   1  23
ATOM     23  C   UNL     1      -1.233  -6.062   0.172  0.00  0.00    +0.017 C 
ATOM     24  C   UNL     1      -2.494  -6.109   0.608  0.00  0.00    +0.065 C 
ATOM     25  N   UNL     1      -3.185  -7.081  -0.027  0.00  0.00    -0.156 NA
ATOM     26  N   UNL     1      -2.531  -7.714  -0.859  0.00  0.00    -0.151 NA
ATOM     27  C   UNL     1      -1.167  -7.159  -0.875  0.00  0.00    +0.284 C 
ATOM     28  C   UNL     1      -3.068  -5.200   1.665  0.00  0.00    +0.067 C 
BRANCH  27  29
ATOM     29  O   UNL     1      -0.214  -8.157  -0.502  0.00  0.00    -0.366 OA
ATOM     30  H   UNL     1      -0.134  -8.881  -1.138  0.00  0.00    +0.212 HD
ENDBRANCH  27  29
ENDBRANCH   1  23
TORSDOF 8
