REMARK  Name = ZINC40939988
REMARK  10 active torsions:
REMARK  status: ('A' for Active; 'I' for Inactive)
REMARK    1  A    between atoms: C_1  and  C_2
REMARK    2  A    between atoms: C_4  and  C_9
REMARK    3  A    between atoms: C_9  and  C_10
REMARK    4  A    between atoms: C_15  and  N_17
REMARK    5  A    between atoms: N_17  and  C_18
REMARK    6  A    between atoms: C_18  and  C_19
REMARK    7  A    between atoms: C_19  and  O_20
REMARK    8  A    between atoms: O_20  and  C_21
REMARK    9  A    between atoms: C_21  and  C_22
REMARK   10  A    between atoms: C_22  and  C_23
REMARK                            x       y       z     vdW  Elec       q    Type
REMARK                         _______ _______ _______ _____ _____    ______ ____
ROOT
ATOM      1  C   UNL     1       1.466  -2.988  -2.975  0.00  0.00    -0.007 C 
ATOM      2  C   UNL     1       2.290  -3.925  -2.057  0.00  0.00    -0.077 C 
ATOM      3  N   UNL     1       3.369  -4.416  -2.952  0.00  0.00    +0.380 N 
ATOM      4  C   UNL     1       2.729  -4.645  -4.266  0.00  0.00    -0.064 C 
ATOM      5  C   UNL     1       1.498  -3.718  -4.338  0.00  0.00    +0.038 C 
ATOM      6  H   UNL     1       4.096  -3.721  -3.035  0.00  0.00    -0.086 HD
ATOM      7  H   UNL     1       3.750  -5.280  -2.596  0.00  0.00    -0.086 HD
ENDROOT
BRANCH   5   8
ATOM      8  N   UNL     1       1.647  -2.749  -5.432  0.00  0.00    -0.313 NA
ATOM      9  H   UNL     1       1.213  -1.869  -5.197  0.00  0.00    +0.122 HD
BRANCH   8  10
ATOM     10  C   UNL     1       1.104  -3.285  -6.687  0.00  0.00    +0.109 C 
BRANCH  10  11
ATOM     11  C   UNL     1       1.277  -2.250  -7.801  0.00  0.00    +0.175 C 
BRANCH  11  12
ATOM     12  O   UNL     1       2.669  -2.044  -8.048  0.00  0.00    -0.378 OA
BRANCH  12  13
ATOM     13  C   UNL     1       2.943  -1.090  -9.076  0.00  0.00    +0.164 C 
BRANCH  13  14
ATOM     14  C   UNL     1       4.456  -0.952  -9.254  0.00  0.00    +0.063 C 
BRANCH  14  15
ATOM     15  C   UNL     1       4.744   0.054 -10.338  0.00  0.00    -0.042 A 
ATOM     16  C   UNL     1       4.855  -0.359 -11.653  0.00  0.00    +0.004 A 
ATOM     17  C   UNL     1       5.119   0.563 -12.649  0.00  0.00    +0.003 A 
ATOM     18  C   UNL     1       5.273   1.899 -12.331  0.00  0.00    +0.038 A 
ATOM     19  C   UNL     1       5.162   2.314 -11.015  0.00  0.00    +0.124 A 
ATOM     20  C   UNL     1       4.892   1.391 -10.019  0.00  0.00    +0.042 A 
ATOM     21  F   UNL     1       5.314   3.620 -10.703  0.00  0.00    -0.205 F 
ENDBRANCH  14  15
ENDBRANCH  13  14
ENDBRANCH  12  13
ENDBRANCH  11  12
ENDBRANCH  10  11
ENDBRANCH   8  10
ENDBRANCH   5   8
BRANCH   1  22
ATOM     22  C   UNL     1       0.029  -2.856  -2.465  0.00  0.00    +0.056 C 
BRANCH  22  26
ATOM     23  C   UNL     1      -0.018   1.503   0.010  0.00  0.00    +0.044 C 
ATOM     24  C   UNL     1       0.002  -0.004   0.002  0.00  0.00    -0.046 A 
ATOM     25  C   UNL     1       0.006  -0.708  -1.196  0.00  0.00    +0.024 A 
ATOM     26  C   UNL     1       0.025  -2.087  -1.169  0.00  0.00    +0.018 A 
ATOM     27  N   UNL     1       0.040  -2.742  -0.023  0.00  0.00    -0.347 N 
ATOM     28  C   UNL     1       0.036  -2.108   1.139  0.00  0.00    +0.094 A 
ATOM     29  C   UNL     1       0.023  -0.717   1.187  0.00  0.00    +0.044 A 
ATOM     30  N   UNL     1       0.052  -2.838   2.322  0.00  0.00    -0.345 N 
ATOM     31  H   UNL     1       0.065  -3.807   2.294  0.00  0.00    +0.144 HD
ATOM     32  H   UNL     1       0.049  -2.377   3.176  0.00  0.00    +0.144 HD
ATOM     33  H   UNL     1       0.054  -3.712  -0.033  0.00  0.00    +0.167 HD
ENDBRANCH  22  26
ENDBRANCH   1  22
TORSDOF 9
