REMARK  Name = ZINC43250237
REMARK  8 active torsions:
REMARK  status: ('A' for Active; 'I' for Inactive)
REMARK    1  A    between atoms: C_1  and  C_2
REMARK    2  A    between atoms: C_2  and  C_3
REMARK    3  A    between atoms: C_3  and  C_5
REMARK    4  A    between atoms: C_3  and  N_21
REMARK    5  A    between atoms: C_5  and  C_7
REMARK    6  A    between atoms: C_5  and  O_13
REMARK    7  A    between atoms: C_8  and  C_12
REMARK    8  A    between atoms: O_13  and  C_14
REMARK                            x       y       z     vdW  Elec       q    Type
REMARK                         _______ _______ _______ _____ _____    ______ ____
ROOT
ATOM      1  C   UNL     1      -1.210  -1.967   0.071  0.00  0.00    +0.196 C 
ENDROOT
BRANCH   1   2
ATOM      2  C   UNL     1      -2.598  -2.492  -0.193  0.00  0.00    +0.031 A 
ATOM      3  C   UNL     1      -3.100  -3.048  -1.323  0.00  0.00    -0.037 A 
ATOM      4  C   UNL     1      -4.418  -3.464  -1.337  0.00  0.00    +0.011 A 
ATOM      5  C   UNL     1      -5.170  -3.303  -0.220  0.00  0.00    +0.046 A 
ATOM      6  S   UNL     1      -4.005  -2.550   0.904  0.00  0.00    -0.098 S 
ATOM      7  C   UNL     1      -2.234  -3.210  -2.545  0.00  0.00    +0.045 C 
ENDBRANCH   1   2
BRANCH   1   8
ATOM      8  C   UNL     1      -1.234  -0.437   0.069  0.00  0.00    -0.029 C 
BRANCH   8   9
ATOM      9  N   UNL     1      -1.700   0.043  -1.239  0.00  0.00    +0.383 N 
ATOM     10  H   UNL     1      -1.074  -0.284  -1.959  0.00  0.00    -0.089 HD
ATOM     11  H   UNL     1      -2.629  -0.308  -1.415  0.00  0.00    -0.089 HD
ATOM     12  H   UNL     1      -1.716   1.052  -1.240  0.00  0.00    -0.089 HD
ENDBRANCH   8   9
BRANCH   8  14
ATOM     13  C   UNL     1       0.129   1.620   0.459  0.00  0.00    +0.002 C 
ATOM     14  C   UNL     1       0.174   0.096   0.337  0.00  0.00    -0.016 C 
ENDBRANCH   8  14
ENDBRANCH   1   8
BRANCH   1  15
ATOM     15  O   UNL     1      -0.758  -2.435   1.343  0.00  0.00    -0.485 OA
BRANCH  15  16
ATOM     16  C   UNL     1      -0.189  -3.669   1.380  0.00  0.00    +0.122 A 
ATOM     17  C   UNL     1      -0.165  -4.457   0.239  0.00  0.00    +0.046 A 
ATOM     18  C   UNL     1       0.414  -5.711   0.279  0.00  0.00    +0.005 A 
ATOM     19  C   UNL     1       0.969  -6.180   1.455  0.00  0.00    +0.014 A 
ATOM     20  C   UNL     1       0.946  -5.397   2.594  0.00  0.00    +0.017 A 
ATOM     21  C   UNL     1       0.373  -4.139   2.558  0.00  0.00    +0.060 A 
ATOM     22  I   UNL     1       1.786  -6.112   4.375  0.00  0.00    -0.044 I 
ENDBRANCH  15  16
ENDBRANCH   1  15
TORSDOF 6
