REMARK  Name = ZINC58236172
REMARK  9 active torsions:
REMARK  status: ('A' for Active; 'I' for Inactive)
REMARK    1  A    between atoms: C_1  and  C_2
REMARK    2  A    between atoms: C_3  and  C_9
REMARK    3  A    between atoms: C_4  and  C_8
REMARK    4  A    between atoms: N_5  and  C_7
REMARK    5  A    between atoms: C_10  and  C_11
REMARK    6  A    between atoms: N_13  and  C_14
REMARK    7  A    between atoms: C_14  and  C_15
REMARK    8  A    between atoms: C_14  and  C_16
REMARK    9  A    between atoms: C_19  and  N_22
REMARK                            x       y       z     vdW  Elec       q    Type
REMARK                         _______ _______ _______ _____ _____    ______ ____
ROOT
ATOM      1  C   UNL     1      -1.873   2.317  -6.113  0.00  0.00    +0.100 C 
ATOM      2  C   UNL     1      -2.564   1.393  -7.117  0.00  0.00    +0.033 C 
ENDROOT
BRANCH   1   3
ATOM      3  C   UNL     1      -2.486   3.691  -6.190  0.00  0.00    -0.027 A 
ATOM      4  C   UNL     1      -3.682   3.950  -5.545  0.00  0.00    +0.007 A 
ATOM      5  C   UNL     1      -4.247   5.208  -5.613  0.00  0.00    +0.023 A 
ATOM      6  C   UNL     1      -3.613   6.214  -6.330  0.00  0.00    +0.035 A 
ATOM      7  C   UNL     1      -2.413   5.951  -6.977  0.00  0.00    +0.023 A 
ATOM      8  C   UNL     1      -1.850   4.692  -6.900  0.00  0.00    +0.007 A 
BRANCH   6   9
ATOM      9  N   UNL     1      -4.183   7.490  -6.402  0.00  0.00    -0.270 N 
ATOM     10  C   UNL     1      -4.882   7.976  -5.357  0.00  0.00    +0.301 C 
ATOM     11  O   UNL     1      -4.935   7.348  -4.317  0.00  0.00    -0.253 OA
ATOM     12  N   UNL     1      -5.520   9.158  -5.464  0.00  0.00    -0.313 N 
ATOM     13  H   UNL     1      -4.076   8.025  -7.204  0.00  0.00    +0.156 HD
ATOM     14  H   UNL     1      -5.478   9.659  -6.293  0.00  0.00    +0.146 HD
ATOM     15  H   UNL     1      -6.023   9.507  -4.711  0.00  0.00    +0.146 HD
ENDBRANCH   6   9
ENDBRANCH   1   3
BRANCH   1  18
ATOM     16  C   UNL     1      -1.188   0.848  -4.293  0.00  0.00    +0.237 C 
ATOM     17  O   UNL     1      -0.277   0.451  -4.996  0.00  0.00    -0.271 OA
ATOM     18  N   UNL     1      -2.042   1.781  -4.760  0.00  0.00    -0.305 N 
ATOM     19  H   UNL     1      -2.768   2.098  -4.200  0.00  0.00    +0.150 HD
BRANCH  16  21
ATOM     20  C   UNL     1      -0.497  -0.605  -2.515  0.00  0.00    +0.016 C 
ATOM     21  C   UNL     1      -1.352   0.330  -2.983  0.00  0.00    +0.068 C 
BRANCH  20  24
ATOM     22  C   UNL     1      -0.864   1.113   0.127  0.00  0.00    +0.068 C 
ATOM     23  C   UNL     1      -0.831  -0.390   0.029  0.00  0.00    +0.067 A 
ATOM     24  C   UNL     1      -0.666  -1.142  -1.158  0.00  0.00    +0.018 A 
ATOM     25  C   UNL     1      -0.696  -2.478  -0.800  0.00  0.00    +0.043 A 
ATOM     26  N   UNL     1      -0.869  -2.533   0.531  0.00  0.00    -0.271 N 
ATOM     27  N   UNL     1      -0.944  -1.226   1.024  0.00  0.00    -0.176 NA
ATOM     28  C   UNL     1      -0.957  -3.756   1.332  0.00  0.00    +0.172 C 
ATOM     29  C   UNL     1      -0.559  -3.654  -1.733  0.00  0.00    +0.066 C 
ENDBRANCH  20  24
ENDBRANCH  16  21
ENDBRANCH   1  18
TORSDOF 5
