REMARK  Name = ZINC38517546
REMARK  6 active torsions:
REMARK  status: ('A' for Active; 'I' for Inactive)
REMARK    1  A    between atoms: C_1  and  N_2
REMARK    2  A    between atoms: C_10  and  C_12
REMARK    3  A    between atoms: C_12  and  C_14
REMARK    4  A    between atoms: C_12  and  N_26
REMARK    5  A    between atoms: C_14  and  N_15
REMARK    6  A    between atoms: N_18  and  C_19
REMARK                            x       y       z     vdW  Elec       q    Type
REMARK                         _______ _______ _______ _____ _____    ______ ____
ROOT
ATOM      1  C   UNL     1       4.840  -2.751  -0.540  0.00  0.00    -0.020 C 
ENDROOT
BRANCH   1  11
ATOM      2  C   UNL     1      -0.332   1.143   0.283  0.00  0.00    +0.129 C 
ATOM      3  N   UNL     1      -0.227  -0.317   0.221  0.00  0.00    -0.333 N 
ATOM      4  C   UNL     1      -1.425  -1.158   0.347  0.00  0.00    +0.105 C 
ATOM      5  C   UNL     1      -1.090  -2.312   1.301  0.00  0.00    +0.024 C 
ATOM      6  C   UNL     1       0.016  -3.162   0.678  0.00  0.00    +0.038 C 
ATOM      7  C   UNL     1       1.172  -2.295   0.253  0.00  0.00    -0.026 A 
ATOM      8  C   UNL     1       1.015  -0.934   0.035  0.00  0.00    +0.033 A 
ATOM      9  C   UNL     1       2.100  -0.163  -0.367  0.00  0.00    +0.023 A 
ATOM     10  C   UNL     1       3.335  -0.751  -0.553  0.00  0.00    +0.004 A 
ATOM     11  C   UNL     1       3.491  -2.108  -0.339  0.00  0.00    -0.059 A 
ATOM     12  C   UNL     1       2.415  -2.877   0.071  0.00  0.00    +0.007 A 
ENDBRANCH   1  11
BRANCH   1  13
ATOM     13  N   UNL     1       5.483  -2.176  -1.730  0.00  0.00    +0.385 N 
ATOM     14  C   UNL     1       6.721  -2.929  -2.056  0.00  0.00    -0.078 C 
ATOM     15  C   UNL     1       6.947  -2.608  -3.555  0.00  0.00    -0.020 C 
ATOM     16  C   UNL     1       5.509  -2.584  -4.123  0.00  0.00    -0.020 C 
ATOM     17  C   UNL     1       4.601  -2.322  -2.908  0.00  0.00    -0.078 C 
ATOM     18  H   UNL     1       5.697  -1.203  -1.574  0.00  0.00    -0.081 HD
ENDBRANCH   1  13
BRANCH   1  19
ATOM     19  C   UNL     1       5.715  -2.494   0.688  0.00  0.00    +0.095 C 
BRANCH  19  20
ATOM     20  N   UNL     1       5.143  -3.182   1.848  0.00  0.00    -0.300 N 
ATOM     21  C   UNL     1       5.801  -3.180   3.024  0.00  0.00    +0.304 C 
ATOM     22  O   UNL     1       6.869  -2.607   3.122  0.00  0.00    -0.253 OA
ATOM     23  N   UNL     1       5.275  -3.812   4.091  0.00  0.00    -0.269 N 
ATOM     24  H   UNL     1       4.291  -3.638   1.769  0.00  0.00    +0.150 HD
ATOM     25  H   UNL     1       4.462  -4.332   3.995  0.00  0.00    +0.156 HD
BRANCH  23  26
ATOM     26  C   UNL     1       5.902  -3.719   5.340  0.00  0.00    +0.035 A 
ATOM     27  C   UNL     1       5.884  -4.801   6.210  0.00  0.00    +0.026 A 
ATOM     28  C   UNL     1       6.503  -4.707   7.441  0.00  0.00    +0.040 A 
ATOM     29  C   UNL     1       7.143  -3.535   7.808  0.00  0.00    +0.124 A 
ATOM     30  C   UNL     1       7.162  -2.454   6.942  0.00  0.00    +0.040 A 
ATOM     31  C   UNL     1       6.548  -2.546   5.708  0.00  0.00    +0.026 A 
ATOM     32  F   UNL     1       7.748  -3.445   9.012  0.00  0.00    -0.205 F 
ENDBRANCH  23  26
ENDBRANCH  19  20
ENDBRANCH   1  19
TORSDOF 5
