REMARK  Name = ZINC02659888
REMARK  4 active torsions:
REMARK  status: ('A' for Active; 'I' for Inactive)
REMARK    1  A    between atoms: C_1  and  C_2
REMARK    2  A    between atoms: C_4  and  N_14
REMARK    3  A    between atoms: N_14  and  S_15
REMARK    4  A    between atoms: S_15  and  C_18
REMARK                            x       y       z     vdW  Elec       q    Type
REMARK                         _______ _______ _______ _____ _____    ______ ____
ROOT
ATOM      1  C   UNL     1      -0.018   1.503   0.010  0.00  0.00    +0.088 C 
ATOM      2  C   UNL     1       0.002  -0.004   0.002  0.00  0.00    +0.129 A 
ATOM      3  N   UNL     1       0.005  -0.643  -1.154  0.00  0.00    -0.214 NA
ATOM      4  C   UNL     1       0.022  -1.965  -1.229  0.00  0.00    +0.174 A 
ATOM      5  C   UNL     1       0.038  -2.723  -0.026  0.00  0.00    +0.054 A 
ATOM      6  C   UNL     1       0.059  -4.186   0.134  0.00  0.00    -0.025 A 
ATOM      7  C   UNL     1       0.070  -4.659   1.390  0.00  0.00    -0.004 A 
ATOM      8  S   UNL     1       0.058  -3.216   2.429  0.00  0.00    -0.073 S 
ATOM      9  C   UNL     1       0.034  -1.974   1.165  0.00  0.00    +0.114 A 
ATOM     10  N   UNL     1       0.022  -0.654   1.149  0.00  0.00    -0.225 NA
ATOM     11  C   UNL     1       0.085  -6.164   1.431  0.00  0.00    +0.043 C 
ATOM     12  C   UNL     1      -0.353  -6.594   0.014  0.00  0.00    +0.010 C 
ATOM     13  C   UNL     1       0.074  -5.377  -0.829  0.00  0.00    +0.037 C 
ENDROOT
BRANCH   4  14
ATOM     14  N   UNL     1       0.025  -2.598  -2.458  0.00  0.00    -0.077 NA
BRANCH  14  15
ATOM     15  S   UNL     1       0.005  -1.703  -3.852  0.00  0.00    +0.093 S 
ATOM     16  O   UNL     1      -1.249  -1.037  -3.889  0.00  0.00    -0.148 OA
ATOM     17  O   UNL     1       1.241  -1.004  -3.902  0.00  0.00    -0.148 OA
BRANCH  15  18
ATOM     18  C   UNL     1       0.014  -2.838  -5.200  0.00  0.00    +0.110 A 
ATOM     19  C   UNL     1       1.214  -3.271  -5.731  0.00  0.00    +0.030 A 
ATOM     20  C   UNL     1       1.221  -4.161  -6.788  0.00  0.00    +0.017 A 
ATOM     21  C   UNL     1       0.027  -4.619  -7.315  0.00  0.00    +0.018 A 
ATOM     22  C   UNL     1      -1.174  -4.185  -6.783  0.00  0.00    +0.017 A 
ATOM     23  C   UNL     1      -1.180  -3.299  -5.722  0.00  0.00    +0.030 A 
ATOM     24 BR   UNL     1       0.035  -5.836  -8.762  0.00  0.00    -0.050 Br
ENDBRANCH  15  18
ENDBRANCH  14  15
ENDBRANCH   4  14
TORSDOF 3
