REMARK  Name = ZINC41070030
REMARK  5 active torsions:
REMARK  status: ('A' for Active; 'I' for Inactive)
REMARK    1  A    between atoms: C_6  and  S_7
REMARK    2  A    between atoms: S_7  and  N_10
REMARK    3  A    between atoms: C_13  and  C_16
REMARK    4  A    between atoms: C_16  and  O_17
REMARK    5  A    between atoms: N_18  and  N_19
REMARK                            x       y       z     vdW  Elec       q    Type
REMARK                         _______ _______ _______ _____ _____    ______ ____
ROOT
ATOM      1  C   UNL     1       1.071  -0.842   0.992  0.00  0.00    +0.048 A 
ATOM      2  C   UNL     1       2.238  -0.138   1.261  0.00  0.00    +0.038 A 
ATOM      3  C   UNL     1       2.558   0.961   0.488  0.00  0.00    +0.128 A 
ATOM      4  N   UNL     1       1.771   1.347  -0.498  0.00  0.00    -0.236 NA
ATOM      5  C   UNL     1       0.650   0.702  -0.785  0.00  0.00    +0.159 A 
ATOM      6  C   UNL     1       0.267  -0.414  -0.048  0.00  0.00    +0.147 A 
ATOM      7  N   UNL     1      -0.150   1.144  -1.833  0.00  0.00    -0.266 N 
ATOM      8 BR   UNL     1       3.377  -0.677   2.671  0.00  0.00    -0.049 Br
ATOM      9  H   UNL     1      -1.023   0.746  -1.978  0.00  0.00    +0.167 HD
ENDROOT
BRANCH   6  10
ATOM     10  S   UNL     1      -1.225  -1.269  -0.434  0.00  0.00    +0.064 S 
ATOM     11  O   UNL     1      -1.323  -2.349   0.484  0.00  0.00    -0.153 OA
ATOM     12  O   UNL     1      -2.239  -0.281  -0.559  0.00  0.00    -0.153 OA
BRANCH  10  13
ATOM     13  N   UNL     1      -1.030  -1.940  -1.935  0.00  0.00    -0.176 NA
ATOM     14  C   UNL     1      -1.515  -1.244  -3.135  0.00  0.00    +0.110 C 
ATOM     15  C   UNL     1      -2.423  -2.194  -3.922  0.00  0.00    +0.023 C 
ATOM     16  C   UNL     1      -1.667  -3.493  -4.212  0.00  0.00    +0.017 C 
ATOM     17  C   UNL     1      -1.289  -4.170  -2.892  0.00  0.00    +0.023 C 
ATOM     18  C   UNL     1      -0.363  -3.240  -2.093  0.00  0.00    +0.110 C 
BRANCH  16  19
ATOM     19  C   UNL     1      -2.559  -4.430  -5.028  0.00  0.00    +0.159 C 
BRANCH  19  20
ATOM     20  O   UNL     1      -1.816  -5.593  -5.398  0.00  0.00    -0.395 OA
ATOM     21  H   UNL     1      -2.320  -6.233  -5.919  0.00  0.00    +0.209 HD
ENDBRANCH  19  20
ENDBRANCH  16  19
ENDBRANCH  10  13
ENDBRANCH   6  10
BRANCH   7  22
ATOM     22  N   UNL     1       0.293   2.138  -2.659  0.00  0.00    -0.255 NA
ATOM     23  H   UNL     1       1.180   1.894  -3.074  0.00  0.00    +0.140 HD
ATOM     24  H   UNL     1      -0.392   2.351  -3.368  0.00  0.00    +0.140 HD
ENDBRANCH   7  22
TORSDOF 5
