REMARK  Name = ZINC37629514
REMARK  9 active torsions:
REMARK  status: ('A' for Active; 'I' for Inactive)
REMARK    1  A    between atoms: C_1  and  C_2
REMARK    2  A    between atoms: C_2  and  C_4
REMARK    3  A    between atoms: C_2  and  N_14
REMARK    4  A    between atoms: C_9  and  O_10
REMARK    5  A    between atoms: O_10  and  C_11
REMARK    6  A    between atoms: C_15  and  C_17
REMARK    7  A    between atoms: C_17  and  C_19
REMARK    8  A    between atoms: C_17  and  N_23
REMARK    9  A    between atoms: C_19  and  C_20
REMARK                            x       y       z     vdW  Elec       q    Type
REMARK                         _______ _______ _______ _____ _____    ______ ____
ROOT
ATOM      1  N   UNL     1       0.711  -0.489   1.189  0.00  0.00    -0.310 N 
ATOM      2  C   UNL     1       2.054  -0.600   1.174  0.00  0.00    +0.199 C 
ATOM      3  O   UNL     1       2.676  -0.297   0.177  0.00  0.00    -0.278 OA
ATOM      4  H   UNL     1       0.213  -0.731   1.986  0.00  0.00    +0.149 HD
ENDROOT
BRANCH   1   6
ATOM      5  C   UNL     1      -0.019   1.526   0.010  0.00  0.00    +0.033 C 
ATOM      6  C   UNL     1       0.002  -0.004   0.002  0.00  0.00    +0.104 C 
BRANCH   6   7
ATOM      7  C   UNL     1      -1.412  -0.526   0.013  0.00  0.00    +0.014 A 
ATOM      8  C   UNL     1      -2.015  -0.864   1.209  0.00  0.00    +0.009 A 
ATOM      9  C   UNL     1      -3.312  -1.343   1.219  0.00  0.00    +0.001 A 
ATOM     10  C   UNL     1      -4.008  -1.484   0.033  0.00  0.00    +0.004 A 
ATOM     11  C   UNL     1      -3.410  -1.147  -1.165  0.00  0.00    +0.046 A 
ATOM     12  C   UNL     1      -2.111  -0.661  -1.178  0.00  0.00    +0.132 A 
BRANCH  12  13
ATOM     13  O   UNL     1      -1.522  -0.324  -2.355  0.00  0.00    -0.434 OA
BRANCH  13  14
ATOM     14  C   UNL     1      -2.301  -0.489  -3.541  0.00  0.00    +0.541 C 
ATOM     15  F   UNL     1      -2.666  -1.833  -3.675  0.00  0.00    -0.166 F 
ATOM     16  F   UNL     1      -3.453   0.300  -3.457  0.00  0.00    -0.166 F 
ENDBRANCH  13  14
ENDBRANCH  12  13
ENDBRANCH   6   7
ENDBRANCH   1   6
BRANCH   2  17
ATOM     17  C   UNL     1       2.783  -1.099   2.395  0.00  0.00    +0.021 C 
BRANCH  17  18
ATOM     18  N   UNL     1       4.115  -1.580   2.007  0.00  0.00    +0.386 N 
ATOM     19  H   UNL     1       4.637  -0.824   1.589  0.00  0.00    -0.089 HD
ATOM     20  H   UNL     1       4.603  -1.914   2.824  0.00  0.00    -0.089 HD
ATOM     21  H   UNL     1       4.021  -2.332   1.341  0.00  0.00    -0.089 HD
ENDBRANCH  17  18
BRANCH  17  22
ATOM     22  C   UNL     1       2.926   0.041   3.405  0.00  0.00    +0.088 C 
BRANCH  22  23
ATOM     23  C   UNL     1       3.544  -0.487   4.674  0.00  0.00    +0.209 C 
ATOM     24  O   UNL     1       3.841  -1.659   4.761  0.00  0.00    -0.276 OA
ATOM     25  N   UNL     1       3.768   0.344   5.711  0.00  0.00    -0.329 N 
ATOM     26  H   UNL     1       3.530   1.282   5.641  0.00  0.00    +0.145 HD
ATOM     27  H   UNL     1       4.165   0.005   6.528  0.00  0.00    +0.145 HD
ENDBRANCH  22  23
ENDBRANCH  17  22
ENDBRANCH   2  17
TORSDOF 8
