REMARK  Name = ZINC52214963
REMARK  5 active torsions:
REMARK  status: ('A' for Active; 'I' for Inactive)
REMARK    1  A    between atoms: C_1  and  C_2
REMARK    2  A    between atoms: C_2  and  C_3
REMARK    3  A    between atoms: C_2  and  C_13
REMARK    4  A    between atoms: C_2  and  N_16
REMARK    5  A    between atoms: N_16  and  C_17
REMARK                            x       y       z     vdW  Elec       q    Type
REMARK                         _______ _______ _______ _____ _____    ______ ____
ROOT
ATOM      1  C   UNL     1       0.264   1.285   0.602  0.00  0.00    +0.010 C 
ATOM      2  C   UNL     1       0.037  -0.133   0.073  0.00  0.00    +0.092 C 
ENDROOT
BRANCH   2   3
ATOM      3  C   UNL     1       0.697  -1.125   0.996  0.00  0.00    +0.106 A 
ATOM      4  C   UNL     1       0.399  -1.283   2.293  0.00  0.00    +0.052 A 
ATOM      5  C   UNL     1       1.280  -2.347   2.788  0.00  0.00    +0.021 A 
ATOM      6  C   UNL     1       1.460  -2.966   4.025  0.00  0.00    +0.027 A 
ATOM      7  C   UNL     1       2.402  -3.963   4.156  0.00  0.00    +0.019 A 
ATOM      8  C   UNL     1       3.168  -4.350   3.064  0.00  0.00    +0.019 A 
ATOM      9  C   UNL     1       2.999  -3.745   1.837  0.00  0.00    +0.048 A 
ATOM     10  C   UNL     1       2.055  -2.738   1.684  0.00  0.00    +0.135 A 
ATOM     11  O   UNL     1       1.667  -1.984   0.635  0.00  0.00    -0.461 OA
ATOM     12 BR   UNL     1       2.653  -4.808   5.829  0.00  0.00    -0.050 Br
ENDBRANCH   2   3
BRANCH   2  13
ATOM     13  C   UNL     1      -1.442  -0.414   0.009  0.00  0.00    +0.352 C 
ATOM     14  O   UNL     1      -1.948  -0.779  -1.039  0.00  0.00    -0.247 OA
ATOM     15  O   UNL     1      -2.133  -0.277   1.004  0.00  0.00    -0.247 OA
ENDBRANCH   2  13
BRANCH   2  16
ATOM     16  N   UNL     1       0.617  -0.253  -1.271  0.00  0.00    +0.396 N 
ATOM     17  H   UNL     1       0.550  -1.210  -1.582  0.00  0.00    -0.083 HD
ATOM     18  H   UNL     1       0.113   0.344  -1.909  0.00  0.00    -0.083 HD
BRANCH  16  19
ATOM     19  C   UNL     1       2.029   0.152  -1.233  0.00  0.00    -0.070 C 
ATOM     20  C   UNL     1       2.244   1.657  -1.466  0.00  0.00    -0.016 C 
ATOM     21  C   UNL     1       3.467   1.270  -2.315  0.00  0.00    -0.003 C 
ATOM     22  C   UNL     1       2.772  -0.080  -2.559  0.00  0.00    -0.016 C 
ENDBRANCH  16  19
ENDBRANCH   2  16
TORSDOF 4
