REMARK  Name = ZINC52094313
REMARK  3 active torsions:
REMARK  status: ('A' for Active; 'I' for Inactive)
REMARK    1  A    between atoms: C_3  and  C_7
REMARK    2  A    between atoms: C_7  and  C_9
REMARK    3  A    between atoms: C_7  and  N_22
REMARK                            x       y       z     vdW  Elec       q    Type
REMARK                         _______ _______ _______ _____ _____    ______ ____
ROOT
ATOM      1  C   UNL     1       4.269   2.059   1.371  0.00  0.00    -0.042 A 
ATOM      2  C   UNL     1       5.244   1.145   1.721  0.00  0.00    +0.031 A 
ATOM      3  C   UNL     1       5.771   1.155   3.003  0.00  0.00    +0.067 A 
ATOM      4  C   UNL     1       5.315   2.088   3.936  0.00  0.00    +0.068 A 
ATOM      5  C   UNL     1       4.336   3.002   3.577  0.00  0.00    +0.043 A 
ATOM      6  C   UNL     1       3.821   2.989   2.294  0.00  0.00    +0.022 A 
ATOM      7 BR   UNL     1       2.491   4.240   1.801  0.00  0.00    -0.050 Br
ATOM      8  N   UNL     1       6.019   1.856   5.115  0.00  0.00    -0.306 N 
ATOM      9  H   UNL     1       5.917   2.350   5.944  0.00  0.00    +0.170 HD
ATOM     10  C   UNL     1       6.864   0.828   4.909  0.00  0.00    +0.325 A 
ATOM     11  O   UNL     1       7.626   0.370   5.741  0.00  0.00    -0.247 OA
ATOM     12  N   UNL     1       6.738   0.384   3.645  0.00  0.00    -0.306 N 
ATOM     13  H   UNL     1       7.236  -0.348   3.248  0.00  0.00    +0.170 HD
ENDROOT
BRANCH   1  14
ATOM     14  C   UNL     1       3.696   2.049  -0.023  0.00  0.00    -0.011 C 
BRANCH  14  17
ATOM     15  C   UNL     1      -0.017   1.378   0.010  0.00  0.00    +0.020 A 
ATOM     16  C   UNL     1       1.185   2.070   0.002  0.00  0.00    +0.005 A 
ATOM     17  C   UNL     1       2.365   1.343  -0.013  0.00  0.00    -0.039 A 
ATOM     18  C   UNL     1       2.305  -0.038  -0.020  0.00  0.00    +0.113 A 
ATOM     19  N   UNL     1       1.144  -0.663  -0.013  0.00  0.00    -0.263 NA
ATOM     20  C   UNL     1       0.002  -0.004   0.002  0.00  0.00    +0.111 A 
ENDBRANCH  14  17
BRANCH  14  21
ATOM     21  N   UNL     1       4.617   1.345  -0.926  0.00  0.00    +0.385 N 
ATOM     22  H   UNL     1       4.234   1.339  -1.859  0.00  0.00    -0.089 HD
ATOM     23  H   UNL     1       5.509   1.818  -0.932  0.00  0.00    -0.089 HD
ATOM     24  H   UNL     1       4.742   0.397  -0.606  0.00  0.00    -0.089 HD
ENDBRANCH  14  21
ENDBRANCH   1  14
TORSDOF 3
