REMARK  Name = ZINC67061785
REMARK  9 active torsions:
REMARK  status: ('A' for Active; 'I' for Inactive)
REMARK    1  A    between atoms: C_3  and  C_6
REMARK    2  A    between atoms: C_6  and  O_7
REMARK    3  A    between atoms: O_7  and  C_8
REMARK    4  A    between atoms: C_8  and  C_9
REMARK    5  A    between atoms: C_9  and  C_10
REMARK    6  A    between atoms: C_10  and  N_11
REMARK    7  A    between atoms: N_14  and  N_15
REMARK    8  A    between atoms: C_16  and  C_18
REMARK    9  A    between atoms: C_18  and  C_19
REMARK                            x       y       z     vdW  Elec       q    Type
REMARK                         _______ _______ _______ _____ _____    ______ ____
ROOT
ATOM      1  N   UNL     1       7.840   0.504   4.403  0.00  0.00    -0.298 N 
ATOM      2  C   UNL     1       9.145   0.473   4.740  0.00  0.00    +0.316 C 
ATOM      3  O   UNL     1       9.996   0.457   3.873  0.00  0.00    -0.251 OA
ATOM      4  N   UNL     1       9.505   0.458   6.039  0.00  0.00    -0.218 N 
ATOM      5  H   UNL     1       7.160   0.517   5.095  0.00  0.00    +0.150 HD
ATOM      6  H   UNL     1      10.444   0.435   6.282  0.00  0.00    +0.174 HD
ENDROOT
BRANCH   4   7
ATOM      7  N   UNL     1       8.523   0.476   7.038  0.00  0.00    -0.233 N 
ATOM      8  C   UNL     1       8.883   0.461   8.337  0.00  0.00    +0.229 C 
ATOM      9  O   UNL     1      10.057   0.432   8.640  0.00  0.00    -0.274 OA
ATOM     10  H   UNL     1       7.584   0.499   6.796  0.00  0.00    +0.173 HD
BRANCH   8  11
ATOM     11  C   UNL     1       7.827   0.480   9.412  0.00  0.00    +0.101 C 
BRANCH  11  12
ATOM     12  C   UNL     1       8.499   0.458  10.787  0.00  0.00    -0.002 C 
ATOM     13  C   UNL     1       9.301   1.746  10.984  0.00  0.00    +0.004 C 
ATOM     14  C   UNL     1       9.972   1.724  12.358  0.00  0.00    +0.000 C 
ATOM     15  C   UNL     1       8.902   1.617  13.447  0.00  0.00    +0.000 C 
ATOM     16  C   UNL     1       8.100   0.329  13.250  0.00  0.00    +0.000 C 
ATOM     17  C   UNL     1       7.429   0.351  11.875  0.00  0.00    +0.004 C 
ENDBRANCH  11  12
ENDBRANCH   8  11
ENDBRANCH   4   7
BRANCH   1  18
ATOM     18  C   UNL     1       7.448   0.521   2.991  0.00  0.00    +0.108 C 
BRANCH  18  19
ATOM     19  C   UNL     1       5.923   0.557   2.886  0.00  0.00    +0.047 C 
BRANCH  19  20
ATOM     20  C   UNL     1       5.513   0.573   1.412  0.00  0.00    +0.162 C 
BRANCH  20  21
ATOM     21  O   UNL     1       4.088   0.607   1.313  0.00  0.00    -0.372 OA
BRANCH  21  22
ATOM     22  C   UNL     1       3.599   0.625  -0.029  0.00  0.00    +0.234 C 
BRANCH  22  25
ATOM     23  C   UNL     1      -0.016   1.341   0.009  0.00  0.00    +0.041 A 
ATOM     24  C   UNL     1       1.331   1.769  -0.001  0.00  0.00    +0.047 A 
ATOM     25  C   UNL     1       2.092   0.660  -0.014  0.00  0.00    +0.130 A 
ATOM     26  O   UNL     1       1.282  -0.411  -0.012  0.00  0.00    -0.465 OA
ATOM     27  C   UNL     1       0.002  -0.004   0.002  0.00  0.00    +0.195 A 
ENDBRANCH  22  25
ENDBRANCH  21  22
ENDBRANCH  20  21
ENDBRANCH  19  20
ENDBRANCH  18  19
ENDBRANCH   1  18
TORSDOF 9
