REMARK  Name = ZINC63289535
REMARK  5 active torsions:
REMARK  status: ('A' for Active; 'I' for Inactive)
REMARK    1  A    between atoms: C_7  and  C_10
REMARK    2  A    between atoms: C_10  and  C_11
REMARK    3  A    between atoms: C_15  and  S_18
REMARK    4  A    between atoms: S_18  and  C_19
REMARK    5  A    between atoms: C_19  and  C_20
REMARK                            x       y       z     vdW  Elec       q    Type
REMARK                         _______ _______ _______ _____ _____    ______ ____
ROOT
ATOM      1  C   UNL     1       0.457  -3.653  -1.462  0.00  0.00    +0.207 C 
ATOM      2  N   UNL     1      -0.405  -4.865  -1.479  0.00  0.00    -0.226 NA
ATOM      3  N   UNL     1      -0.996  -4.810  -2.827  0.00  0.00    -0.218 NA
ATOM      4  C   UNL     1      -1.198  -3.362  -3.062  0.00  0.00    +0.263 C 
ATOM      5  O   UNL     1      -0.288  -2.664  -2.196  0.00  0.00    -0.332 OA
ATOM      6  H   UNL     1       0.146  -5.702  -1.359  0.00  0.00    +0.143 HD
ATOM      7  H   UNL     1      -1.874  -5.307  -2.857  0.00  0.00    +0.144 HD
ENDROOT
BRANCH   1   8
ATOM      8  C   UNL     1       0.691  -3.186  -0.024  0.00  0.00    +0.082 C 
BRANCH   8  15
ATOM      9  C   UNL     1      -0.016   1.348   0.009  0.00  0.00    +0.001 A 
ATOM     10  C   UNL     1       1.166   2.101   0.002  0.00  0.00    +0.002 A 
ATOM     11  C   UNL     1       2.391   1.535  -0.013  0.00  0.00    +0.026 A 
ATOM     12  C   UNL     1       2.529   0.120  -0.022  0.00  0.00    +0.043 A 
ATOM     13  N   UNL     1       3.587  -0.654  -0.037  0.00  0.00    -0.380 N 
ATOM     14  C   UNL     1       3.143  -2.053  -0.041  0.00  0.00    +0.144 C 
ATOM     15  C   UNL     1       1.631  -2.008  -0.025  0.00  0.00    -0.038 C 
ATOM     16  C   UNL     1       1.295  -0.698  -0.014  0.00  0.00    -0.001 A 
ATOM     17  C   UNL     1       0.002  -0.004   0.002  0.00  0.00    +0.010 A 
ATOM     18  H   UNL     1       4.509  -0.353  -0.045  0.00  0.00    +0.160 HD
ENDBRANCH   8  15
ENDBRANCH   1   8
BRANCH   4  19
ATOM     19  S   UNL     1      -0.838  -2.961  -4.794  0.00  0.00    -0.108 S 
BRANCH  19  20
ATOM     20  C   UNL     1       0.883  -3.488  -5.018  0.00  0.00    +0.108 C 
BRANCH  20  21
ATOM     21  C   UNL     1       1.314  -3.207  -6.434  0.00  0.00    -0.037 A 
ATOM     22  C   UNL     1       1.131  -4.164  -7.415  0.00  0.00    +0.005 A 
ATOM     23  C   UNL     1       1.525  -3.907  -8.714  0.00  0.00    +0.015 A 
ATOM     24  C   UNL     1       2.104  -2.692  -9.034  0.00  0.00    +0.018 A 
ATOM     25  C   UNL     1       2.287  -1.734  -8.052  0.00  0.00    +0.015 A 
ATOM     26  C   UNL     1       1.887  -1.990  -6.754  0.00  0.00    +0.005 A 
ATOM     27 BR   UNL     1       2.645  -2.339 -10.811  0.00  0.00    -0.050 Br
ENDBRANCH  20  21
ENDBRANCH  19  20
ENDBRANCH   4  19
TORSDOF 5
