REMARK  Name = ZINC39676894
REMARK  8 active torsions:
REMARK  status: ('A' for Active; 'I' for Inactive)
REMARK    1  A    between atoms: C_1  and  C_2
REMARK    2  A    between atoms: C_5  and  C_36
REMARK    3  A    between atoms: C_6  and  C_8
REMARK    4  A    between atoms: C_8  and  C_9
REMARK    5  A    between atoms: C_9  and  N_10
REMARK    6  A    between atoms: C_11  and  C_13
REMARK    7  A    between atoms: C_24  and  C_26
REMARK    8  A    between atoms: C_29  and  C_32
REMARK                            x       y       z     vdW  Elec       q    Type
REMARK                         _______ _______ _______ _____ _____    ______ ____
ROOT
ATOM      1  C   UNL     1       2.882  -4.425   5.939  0.00  0.00    +0.100 C 
ATOM      2  C   UNL     1       2.284  -3.810   7.224  0.00  0.00    +0.121 C 
ATOM      3  N   UNL     1       3.151  -4.309   8.317  0.00  0.00    -0.296 N 
ATOM      4  C   UNL     1       4.521  -4.263   7.751  0.00  0.00    +0.115 C 
ATOM      5  C   UNL     1       4.350  -4.721   6.288  0.00  0.00    -0.004 C 
ATOM      6  C   UNL     1       5.281  -3.927   5.376  0.00  0.00    -0.010 C 
ATOM      7  C   UNL     1       6.734  -4.282   5.704  0.00  0.00    -0.082 C 
ATOM      8  N   UNL     1       6.942  -5.723   5.515  0.00  0.00    +0.379 N 
ATOM      9  C   UNL     1       6.112  -6.477   6.462  0.00  0.00    -0.082 C 
ATOM     10  C   UNL     1       4.632  -6.215   6.166  0.00  0.00    -0.010 C 
ATOM     11  C   UNL     1       2.779  -4.714   9.547  0.00  0.00    +0.247 C 
ATOM     12  O   UNL     1       1.600  -4.816   9.823  0.00  0.00    -0.270 OA
ATOM     13  H   UNL     1       6.691  -5.977   4.572  0.00  0.00    -0.086 HD
ATOM     14  H   UNL     1       7.914  -5.944   5.672  0.00  0.00    -0.086 HD
ENDROOT
BRANCH  11  15
ATOM     15  C   UNL     1       3.806  -5.034  10.562  0.00  0.00    +0.037 A 
ATOM     16  C   UNL     1       5.101  -4.530  10.432  0.00  0.00    +0.013 A 
ATOM     17  C   UNL     1       6.054  -4.832  11.383  0.00  0.00    +0.013 A 
ATOM     18  C   UNL     1       5.728  -5.633  12.463  0.00  0.00    +0.055 A 
ATOM     19  C   UNL     1       4.446  -6.136  12.598  0.00  0.00    +0.013 A 
ATOM     20  C   UNL     1       3.482  -5.836  11.657  0.00  0.00    +0.013 A 
BRANCH  18  21
ATOM     21  C   UNL     1       6.774  -5.959  13.498  0.00  0.00    +0.417 C 
ATOM     22  F   UNL     1       6.751  -4.990  14.506  0.00  0.00    -0.166 F 
ATOM     23  F   UNL     1       6.506  -7.215  14.052  0.00  0.00    -0.166 F 
ATOM     24  F   UNL     1       8.037  -5.974  12.895  0.00  0.00    -0.166 F 
ENDBRANCH  18  21
ENDBRANCH  11  15
BRANCH   1  26
ATOM     25  N   UNL     1       2.677  -3.887   3.533  0.00  0.00    -0.315 N 
ATOM     26  C   UNL     1       2.801  -3.442   4.800  0.00  0.00    +0.218 C 
ATOM     27  O   UNL     1       2.848  -2.251   5.022  0.00  0.00    -0.275 OA
ATOM     28  H   UNL     1       2.639  -4.840   3.356  0.00  0.00    +0.149 HD
BRANCH  25  29
ATOM     29  C   UNL     1       2.599  -2.931   2.426  0.00  0.00    +0.109 C 
BRANCH  29  30
ATOM     30  C   UNL     1       2.462  -3.691   1.105  0.00  0.00    +0.054 C 
BRANCH  30  36
ATOM     31  C   UNL     1      -0.268  -0.975  -2.091  0.00  0.00    +0.044 C 
ATOM     32  C   UNL     1       1.075  -1.409  -1.564  0.00  0.00    -0.050 A 
ATOM     33  C   UNL     1       2.234  -0.905  -2.125  0.00  0.00    +0.003 A 
ATOM     34  C   UNL     1       3.466  -1.304  -1.642  0.00  0.00    +0.004 A 
ATOM     35  C   UNL     1       3.540  -2.205  -0.596  0.00  0.00    -0.047 A 
ATOM     36  C   UNL     1       2.382  -2.708  -0.034  0.00  0.00    -0.043 A 
ATOM     37  C   UNL     1       1.149  -2.307  -0.515  0.00  0.00    +0.007 A 
ATOM     38  C   UNL     1       4.883  -2.640  -0.070  0.00  0.00    +0.044 C 
ENDBRANCH  30  36
ENDBRANCH  29  30
ENDBRANCH  25  29
ENDBRANCH   1  26
TORSDOF 6
