REMARK  Name = ZINC14922642
REMARK  12 active torsions:
REMARK  status: ('A' for Active; 'I' for Inactive)
REMARK    1  A    between atoms: C_1  and  C_2
REMARK    2  A    between atoms: C_2  and  N_57
REMARK    3  A    between atoms: C_3  and  C_4
REMARK    4  A    between atoms: C_3  and  N_57
REMARK    5  A    between atoms: N_6  and  C_7
REMARK    6  A    between atoms: C_10  and  N_13
REMARK    7  A    between atoms: C_14  and  C_16
REMARK    8  A    between atoms: C_17  and  C_19
REMARK    9  A    between atoms: C_17  and  C_20
REMARK   10  A    between atoms: C_17  and  N_57
REMARK   11  A    between atoms: N_22  and  C_23
REMARK   12  A    between atoms: C_26  and  C_30
REMARK                            x       y       z     vdW  Elec       q    Type
REMARK                         _______ _______ _______ _____ _____    ______ ____
ROOT
ATOM      1  N   UNL     1      -0.583   2.865   0.052  0.00  0.00    +0.393 N 
ATOM      2  H   UNL     1       0.129   3.260   0.677  0.00  0.00    -0.080 HD
ENDROOT
BRANCH   1   4
ATOM      3  C   UNL     1      -2.068   3.354  -1.863  0.00  0.00    -0.017 C 
ATOM      4  C   UNL     1      -0.966   3.887  -0.945  0.00  0.00    -0.081 C 
ENDBRANCH   1   4
BRANCH   1   5
ATOM      5  C   UNL     1      -0.020   1.681  -0.630  0.00  0.00    +0.017 C 
ATOM      6  C   UNL     1       0.321   0.618   0.417  0.00  0.00    -0.004 C 
BRANCH   5   7
ATOM      7  C   UNL     1       1.234   2.088  -1.359  0.00  0.00    +0.203 C 
ATOM      8  O   UNL     1       1.807   3.113  -1.055  0.00  0.00    -0.277 OA
ATOM      9  N   UNL     1       1.720   1.313  -2.350  0.00  0.00    -0.286 N 
ATOM     10  H   UNL     1       1.224   0.532  -2.642  0.00  0.00    +0.155 HD
BRANCH   9  11
ATOM     11  C   UNL     1       2.939   1.636  -2.957  0.00  0.00    +0.047 A 
ATOM     12  C   UNL     1       3.835   2.480  -2.314  0.00  0.00    +0.024 A 
ATOM     13  C   UNL     1       5.037   2.796  -2.916  0.00  0.00    +0.005 A 
ATOM     14  C   UNL     1       5.349   2.274  -4.157  0.00  0.00    -0.049 A 
ATOM     15  C   UNL     1       4.460   1.433  -4.801  0.00  0.00    +0.020 A 
ATOM     16  C   UNL     1       3.258   1.108  -4.202  0.00  0.00    +0.039 A 
ATOM     17 BR   UNL     1       2.045  -0.049  -5.079  0.00  0.00    -0.048 Br
ATOM     18  C   UNL     1       6.662   2.621  -4.811  0.00  0.00    +0.044 C 
ENDBRANCH   9  11
ENDBRANCH   5   7
ENDBRANCH   1   5
BRANCH   1  19
ATOM     19  C   UNL     1      -1.762   2.474   0.853  0.00  0.00    +0.020 C 
BRANCH  19  20
ATOM     20  C   UNL     1      -2.182   3.644   1.704  0.00  0.00    +0.201 C 
ATOM     21  O   UNL     1      -1.532   4.669   1.689  0.00  0.00    -0.278 OA
ATOM     22  N   UNL     1      -3.279   3.553   2.481  0.00  0.00    -0.287 N 
ATOM     23  H   UNL     1      -3.755   2.711   2.551  0.00  0.00    +0.155 HD
BRANCH  22  24
ATOM     24  C   UNL     1      -3.733   4.675   3.187  0.00  0.00    +0.033 A 
ATOM     25  C   UNL     1      -2.821   5.528   3.795  0.00  0.00    +0.025 A 
ATOM     26  C   UNL     1      -3.267   6.636   4.487  0.00  0.00    +0.025 A 
ATOM     27  C   UNL     1      -4.629   6.892   4.583  0.00  0.00    +0.033 A 
ATOM     28  C   UNL     1      -5.541   6.037   3.979  0.00  0.00    +0.025 A 
ATOM     29  C   UNL     1      -5.094   4.932   3.283  0.00  0.00    +0.025 A 
BRANCH  27  30
ATOM     30  N   UNL     1      -5.082   8.014   5.289  0.00  0.00    -0.286 N 
ATOM     31  C   UNL     1      -4.376   9.161   5.257  0.00  0.00    +0.214 C 
ATOM     32  O   UNL     1      -3.313   9.203   4.673  0.00  0.00    -0.276 OA
ATOM     33  C   UNL     1      -4.906  10.392   5.945  0.00  0.00    +0.109 C 
ATOM     34  H   UNL     1      -5.905   7.965   5.801  0.00  0.00    +0.155 HD
ENDBRANCH  27  30
ENDBRANCH  22  24
ENDBRANCH  19  20
ENDBRANCH   1  19
TORSDOF 8
