REMARK  Name = ZINC50639235
REMARK  6 active torsions:
REMARK  status: ('A' for Active; 'I' for Inactive)
REMARK    1  A    between atoms: C_1  and  N_2
REMARK    2  A    between atoms: N_2  and  C_3
REMARK    3  A    between atoms: C_4  and  S_11
REMARK    4  A    between atoms: S_11  and  N_14
REMARK    5  A    between atoms: N_14  and  C_15
REMARK    6  A    between atoms: C_18  and  O_21
REMARK                            x       y       z     vdW  Elec       q    Type
REMARK                         _______ _______ _______ _____ _____    ______ ____
ROOT
ATOM      1  S   UNL     1       0.057  -3.228  -0.061  0.00  0.00    +0.078 S 
ATOM      2  O   UNL     1      -0.989  -2.591   0.660  0.00  0.00    -0.151 OA
ATOM      3  O   UNL     1      -0.147  -4.421  -0.805  0.00  0.00    -0.151 OA
ENDROOT
BRANCH   1   5
ATOM      4  C   UNL     1       0.609  -0.692  -1.060  0.00  0.00    +0.166 A 
ATOM      5  C   UNL     1       0.690  -2.032  -1.190  0.00  0.00    +0.221 A 
ATOM      6  N   UNL     1       1.368  -2.300  -2.383  0.00  0.00    -0.276 N 
ATOM      7  C   UNL     1       1.784  -3.398  -3.104  0.00  0.00    +0.102 A 
ATOM      8  C   UNL     1       2.437  -3.250  -4.256  0.00  0.00    +0.067 A 
ATOM      9  S   UNL     1       2.514  -1.472  -4.410  0.00  0.00    -0.058 S 
ATOM     10  C   UNL     1       1.658  -1.068  -2.905  0.00  0.00    +0.181 A 
ATOM     11  N   UNL     1       1.204  -0.128  -2.125  0.00  0.00    -0.204 NA
BRANCH   4  13
ATOM     12  C   UNL     1      -0.018   1.461   0.010  0.00  0.00    +0.127 C 
ATOM     13  N   UNL     1       0.002  -0.004   0.002  0.00  0.00    -0.329 N 
ATOM     14  H   UNL     1      -0.404  -0.499   0.731  0.00  0.00    +0.147 HD
ENDBRANCH   4  13
ENDBRANCH   1   5
BRANCH   1  15
ATOM     15  N   UNL     1       1.257  -3.551   1.033  0.00  0.00    -0.185 NA
ATOM     16  H   UNL     1       1.653  -4.436   1.071  0.00  0.00    +0.148 HD
BRANCH  15  17
ATOM     17  C   UNL     1       1.722  -2.502   1.944  0.00  0.00    +0.077 C 
ATOM     18  C   UNL     1       2.953  -1.817   1.347  0.00  0.00    +0.023 C 
ATOM     19  C   UNL     1       3.437  -0.720   2.297  0.00  0.00    +0.033 C 
ATOM     20  C   UNL     1       3.803  -1.341   3.647  0.00  0.00    +0.115 C 
ATOM     21  C   UNL     1       2.572  -2.026   4.244  0.00  0.00    +0.033 C 
ATOM     22  C   UNL     1       2.087  -3.122   3.293  0.00  0.00    +0.023 C 
BRANCH  20  23
ATOM     23  O   UNL     1       4.256  -0.317   4.535  0.00  0.00    -0.392 OA
ATOM     24  H   UNL     1       4.506  -0.639   5.412  0.00  0.00    +0.210 HD
ENDBRANCH  20  23
ENDBRANCH  15  17
ENDBRANCH   1  15
TORSDOF 5
