REMARK  Name = ZINC40866289
REMARK  6 active torsions:
REMARK  status: ('A' for Active; 'I' for Inactive)
REMARK    1  A    between atoms: C_1  and  N_2
REMARK    2  A    between atoms: C_4  and  C_26
REMARK    3  A    between atoms: C_10  and  N_14
REMARK    4  A    between atoms: C_11  and  N_13
REMARK    5  A    between atoms: N_28  and  C_29
REMARK    6  A    between atoms: C_29  and  C_30
REMARK                            x       y       z     vdW  Elec       q    Type
REMARK                         _______ _______ _______ _____ _____    ______ ____
ROOT
ATOM      1  C   UNL     1       0.082   1.428   0.041  0.00  0.00    +0.149 C 
ATOM      2  N   UNL     1       0.056  -0.037   0.027  0.00  0.00    -0.349 N 
ATOM      3  C   UNL     1       0.056  -0.667  -1.155  0.00  0.00    +0.102 A 
ATOM      4  C   UNL     1       0.033  -2.043  -1.254  0.00  0.00    +0.100 A 
ATOM      5  C   UNL     1       0.008  -2.845  -0.020  0.00  0.00    +0.202 A 
ATOM      6  O   UNL     1      -0.013  -4.064  -0.055  0.00  0.00    -0.286 OA
ATOM      7  C   UNL     1       0.009  -2.115   1.259  0.00  0.00    +0.048 A 
ATOM      8  C   UNL     1       0.039  -0.709   1.232  0.00  0.00    +0.054 A 
ATOM      9  C   UNL     1       0.046  -0.004   2.431  0.00  0.00    +0.051 A 
ATOM     10  C   UNL     1       0.029  -0.685   3.635  0.00  0.00    +0.053 A 
ATOM     11  C   UNL     1       0.004  -2.086   3.659  0.00  0.00    +0.047 A 
ATOM     12  C   UNL     1      -0.014  -2.798   2.478  0.00  0.00    +0.038 A 
ENDROOT
BRANCH  10  13
ATOM     13  N   UNL     1       0.036   0.027   4.833  0.00  0.00    -0.325 N 
ATOM     14  C   UNL     1       1.305   0.392   5.478  0.00  0.00    +0.124 C 
ATOM     15  C   UNL     1       1.325   1.911   5.695  0.00  0.00    +0.125 C 
ATOM     16  N   UNL     1       0.064   2.310   6.335  0.00  0.00    -0.314 N 
ATOM     17  C   UNL     1      -1.205   1.945   5.690  0.00  0.00    +0.125 C 
ATOM     18  C   UNL     1      -1.225   0.432   5.470  0.00  0.00    +0.124 C 
ATOM     19  C   UNL     1       0.072   3.021   7.530  0.00  0.00    +0.099 A 
ATOM     20  C   UNL     1       1.278   3.476   8.054  0.00  0.00    +0.042 A 
ATOM     21  C   UNL     1       1.270   4.181   9.243  0.00  0.00    +0.005 A 
ATOM     22  C   UNL     1       0.053   4.410   9.871  0.00  0.00    +0.018 A 
ATOM     23  C   UNL     1      -1.105   3.929   9.295  0.00  0.00    +0.084 A 
ATOM     24  N   UNL     1      -1.069   3.264   8.156  0.00  0.00    -0.350 N 
ATOM     25  H   UNL     1      -1.899   2.940   7.770  0.00  0.00    +0.166 HD
ENDBRANCH  10  13
BRANCH   4  26
ATOM     26  C   UNL     1       0.032  -2.698  -2.571  0.00  0.00    +0.249 C 
ATOM     27  O   UNL     1      -0.052  -2.028  -3.583  0.00  0.00    -0.270 OA
ATOM     28  N   UNL     1       0.126  -4.039  -2.656  0.00  0.00    -0.307 N 
ATOM     29  H   UNL     1       0.118  -4.579  -1.850  0.00  0.00    +0.149 HD
BRANCH  28  30
ATOM     30  C   UNL     1       0.238  -4.684  -3.967  0.00  0.00    +0.139 C 
BRANCH  30  31
ATOM     31  C   UNL     1       0.327  -6.177  -3.787  0.00  0.00    -0.030 A 
ATOM     32  C   UNL     1       1.561  -6.782  -3.635  0.00  0.00    +0.006 A 
ATOM     33  C   UNL     1       1.644  -8.152  -3.470  0.00  0.00    +0.020 A 
ATOM     34  C   UNL     1       0.491  -8.918  -3.456  0.00  0.00    +0.041 A 
ATOM     35  C   UNL     1      -0.743  -8.312  -3.608  0.00  0.00    +0.020 A 
ATOM     36  C   UNL     1      -0.825  -6.941  -3.768  0.00  0.00    +0.006 A 
ATOM     37 CL   UNL     1       0.594 -10.638  -3.249  0.00  0.00    -0.084 Cl
ENDBRANCH  30  31
ENDBRANCH  28  30
ENDBRANCH   4  26
BRANCH  11  38
ATOM     38  N   UNL     1      -0.013  -2.765   4.885  0.00  0.00    -0.357 N 
ATOM     39  H   UNL     1      -0.007  -2.264   5.716  0.00  0.00    +0.142 HD
ATOM     40  H   UNL     1      -0.029  -3.734   4.902  0.00  0.00    +0.142 HD
ENDBRANCH  11  38
TORSDOF 5
