REMARK  Name = ZINC59887557
REMARK  11 active torsions:
REMARK  status: ('A' for Active; 'I' for Inactive)
REMARK    1  A    between atoms: C_1  and  C_2
REMARK    2  A    between atoms: C_3  and  C_11
REMARK    3  A    between atoms: C_4  and  C_10
REMARK    4  A    between atoms: N_5  and  C_7
REMARK    5  A    between atoms: C_7  and  C_8
REMARK    6  A    between atoms: C_8  and  O_9
REMARK    7  A    between atoms: N_12  and  N_13
REMARK    8  A    between atoms: C_16  and  S_19
REMARK    9  A    between atoms: S_19  and  C_20
REMARK   10  A    between atoms: C_20  and  C_21
REMARK   11  A    between atoms: N_23  and  C_24
REMARK                            x       y       z     vdW  Elec       q    Type
REMARK                         _______ _______ _______ _____ _____    ______ ____
ROOT
ATOM      1  N   UNL     1      -0.009   1.333  -4.152  0.00  0.00    -0.205 N 
ATOM      2  C   UNL     1      -0.031   2.685  -4.438  0.00  0.00    +0.232 A 
ATOM      3  N   UNL     1      -0.043   3.663  -3.557  0.00  0.00    -0.186 NA
ATOM      4  C   UNL     1      -0.063   4.840  -4.192  0.00  0.00    +0.211 A 
ATOM      5  N   UNL     1      -0.064   4.627  -5.486  0.00  0.00    -0.144 NA
ATOM      6  N   UNL     1      -0.038   3.235  -5.671  0.00  0.00    -0.245 N 
ATOM      7  H   UNL     1       0.003   0.684  -4.873  0.00  0.00    +0.177 HD
ATOM      8  H   UNL     1      -0.029   2.762  -6.518  0.00  0.00    +0.192 HD
ENDROOT
BRANCH   1  10
ATOM      9  C   UNL     1       0.017  -0.370  -2.550  0.00  0.00    +0.141 C 
ATOM     10  N   UNL     1      -0.004   0.899  -2.820  0.00  0.00    -0.187 NA
BRANCH   9  13
ATOM     11  C   UNL     1      -0.021   1.502   0.009  0.00  0.00    +0.068 C 
ATOM     12  C   UNL     1       0.005  -0.005   0.001  0.00  0.00    +0.069 A 
ATOM     13  C   UNL     1       0.022  -0.826  -1.147  0.00  0.00    +0.038 A 
ATOM     14  C   UNL     1       0.043  -2.134  -0.713  0.00  0.00    +0.045 A 
ATOM     15  N   UNL     1       0.041  -2.112   0.635  0.00  0.00    -0.266 N 
ATOM     16  N   UNL     1       0.022  -0.777   1.054  0.00  0.00    -0.176 NA
ATOM     17  C   UNL     1       0.066  -3.363  -1.585  0.00  0.00    +0.066 C 
BRANCH  15  18
ATOM     18  C   UNL     1       0.059  -3.285   1.512  0.00  0.00    +0.171 C 
BRANCH  18  19
ATOM     19  C   UNL     1       1.508  -3.669   1.820  0.00  0.00    +0.179 C 
BRANCH  19  20
ATOM     20  O   UNL     1       1.526  -4.814   2.675  0.00  0.00    -0.393 OA
ATOM     21  H   UNL     1       2.414  -5.114   2.912  0.00  0.00    +0.209 HD
ENDBRANCH  19  20
ENDBRANCH  18  19
ENDBRANCH  15  18
ENDBRANCH   9  13
ENDBRANCH   1  10
BRANCH   4  22
ATOM     22  S   UNL     1      -0.086   6.422  -3.415  0.00  0.00    -0.075 S 
BRANCH  22  23
ATOM     23  C   UNL     1      -0.108   7.591  -4.802  0.00  0.00    +0.173 C 
BRANCH  23  24
ATOM     24  C   UNL     1      -0.128   9.001  -4.270  0.00  0.00    +0.227 C 
ATOM     25  O   UNL     1      -0.128   9.197  -3.073  0.00  0.00    -0.275 OA
ATOM     26  N   UNL     1      -0.147  10.043  -5.124  0.00  0.00    -0.285 N 
ATOM     27  H   UNL     1      -0.079   9.889  -6.079  0.00  0.00    +0.155 HD
BRANCH  26  28
ATOM     28  C   UNL     1      -0.263  11.349  -4.632  0.00  0.00    +0.033 A 
ATOM     29  C   UNL     1      -0.982  12.299  -5.346  0.00  0.00    +0.024 A 
ATOM     30  C   UNL     1      -1.096  13.586  -4.858  0.00  0.00    +0.017 A 
ATOM     31  C   UNL     1      -0.495  13.929  -3.660  0.00  0.00    +0.018 A 
ATOM     32  C   UNL     1       0.222  12.985  -2.947  0.00  0.00    +0.017 A 
ATOM     33  C   UNL     1       0.335  11.694  -3.428  0.00  0.00    +0.024 A 
ATOM     34 BR   UNL     1      -0.653  15.693  -2.996  0.00  0.00    -0.050 Br
ENDBRANCH  26  28
ENDBRANCH  23  24
ENDBRANCH  22  23
ENDBRANCH   4  22
TORSDOF 9
