REMARK  Name = ZINC64011990
REMARK  7 active torsions:
REMARK  status: ('A' for Active; 'I' for Inactive)
REMARK    1  A    between atoms: C_4  and  O_23
REMARK    2  A    between atoms: C_5  and  C_7
REMARK    3  A    between atoms: C_7  and  N_8
REMARK    4  A    between atoms: N_11  and  C_12
REMARK    5  A    between atoms: C_12  and  C_13
REMARK    6  A    between atoms: C_13  and  C_14
REMARK    7  A    between atoms: O_23  and  C_24
REMARK                            x       y       z     vdW  Elec       q    Type
REMARK                         _______ _______ _______ _____ _____    ______ ____
ROOT
ATOM      1  N   UNL     1       1.487  -2.679   1.333  0.00  0.00    -0.295 N 
ATOM      2  C   UNL     1       1.549  -4.005   1.568  0.00  0.00    +0.300 C 
ATOM      3  O   UNL     1       1.390  -4.792   0.654  0.00  0.00    -0.253 OA
ATOM      4  N   UNL     1       1.788  -4.458   2.814  0.00  0.00    -0.299 N 
ATOM      5  H   UNL     1       1.614  -2.051   2.062  0.00  0.00    +0.151 HD
ATOM      6  H   UNL     1       1.916  -3.831   3.542  0.00  0.00    +0.150 HD
ENDROOT
BRANCH   1   7
ATOM      7  C   UNL     1       1.227  -2.187  -0.022  0.00  0.00    +0.144 C 
BRANCH   7  12
ATOM      8  C   UNL     1      -0.017   1.378   0.010  0.00  0.00    +0.001 A 
ATOM      9  C   UNL     1       1.170   2.088   0.002  0.00  0.00    +0.004 A 
ATOM     10  C   UNL     1       2.377   1.417  -0.013  0.00  0.00    +0.046 A 
ATOM     11  C   UNL     1       2.399   0.030  -0.021  0.00  0.00    +0.132 A 
ATOM     12  C   UNL     1       1.207  -0.680  -0.013  0.00  0.00    +0.012 A 
ATOM     13  C   UNL     1       0.002  -0.004   0.002  0.00  0.00    +0.009 A 
BRANCH  11  14
ATOM     14  O   UNL     1       3.586  -0.632  -0.037  0.00  0.00    -0.434 OA
BRANCH  14  15
ATOM     15  C   UNL     1       4.772   0.164  -0.045  0.00  0.00    +0.541 C 
ATOM     16  F   UNL     1       4.781   0.977  -1.183  0.00  0.00    -0.166 F 
ATOM     17  F   UNL     1       4.804   0.965   1.101  0.00  0.00    -0.166 F 
ENDBRANCH  14  15
ENDBRANCH  11  14
ENDBRANCH   7  12
ENDBRANCH   1   7
BRANCH   4  18
ATOM     18  C   UNL     1       1.857  -5.900   3.069  0.00  0.00    +0.110 C 
BRANCH  18  19
ATOM     19  C   UNL     1       2.137  -6.142   4.553  0.00  0.00    +0.052 C 
BRANCH  19  20
ATOM     20  C   UNL     1       2.207  -7.625   4.815  0.00  0.00    -0.040 C 
ATOM     21  C   UNL     1       3.320  -8.392   4.856  0.00  0.00    -0.001 A 
ATOM     22  C   UNL     1       4.745  -8.087   4.673  0.00  0.00    +0.010 A 
ATOM     23  C   UNL     1       5.648  -9.089   4.774  0.00  0.00    +0.001 A 
ATOM     24  C   UNL     1       5.258 -10.408   5.048  0.00  0.00    +0.002 A 
ATOM     25  C   UNL     1       3.969 -10.765   5.227  0.00  0.00    +0.026 A 
ATOM     26  C   UNL     1       2.935  -9.792   5.144  0.00  0.00    +0.043 A 
ATOM     27  N   UNL     1       1.634  -9.887   5.276  0.00  0.00    -0.380 N 
ATOM     28  C   UNL     1       1.047  -8.555   5.093  0.00  0.00    +0.144 C 
ATOM     29  H   UNL     1       1.143 -10.701   5.467  0.00  0.00    +0.160 HD
ENDBRANCH  19  20
ENDBRANCH  18  19
ENDBRANCH   4  18
TORSDOF 7
