REMARK  Name = ZINC24584282
REMARK  5 active torsions:
REMARK  status: ('A' for Active; 'I' for Inactive)
REMARK    1  A    between atoms: N_13  and  C_17
REMARK    2  A    between atoms: C_17  and  C_18
REMARK    3  A    between atoms: N_20  and  N_21
REMARK    4  A    between atoms: C_22  and  C_24
REMARK    5  A    between atoms: C_24  and  N_25
REMARK                            x       y       z     vdW  Elec       q    Type
REMARK                         _______ _______ _______ _____ _____    ______ ____
ROOT
ATOM      1  C   UNL     1       0.138  -4.475   0.268  0.00  0.00    +0.247 C 
ATOM      2  O   UNL     1      -0.418  -4.874   1.269  0.00  0.00    -0.273 OA
ATOM      3  N   UNL     1      -0.106  -3.230  -0.188  0.00  0.00    -0.233 N 
ATOM      4  H   UNL     1       0.398  -2.868  -1.096  0.00  0.00    +0.173 HD
ENDROOT
BRANCH   3   5
ATOM      5  N   UNL     1      -1.004  -2.398   0.494  0.00  0.00    -0.233 N 
ATOM      6  C   UNL     1      -1.249  -1.154   0.038  0.00  0.00    +0.246 C 
ATOM      7  O   UNL     1      -0.692  -0.755  -0.963  0.00  0.00    -0.273 OA
ATOM      8  H   UNL     1      -1.509  -2.760   1.402  0.00  0.00    +0.173 HD
BRANCH   6   9
ATOM      9  C   UNL     1      -2.214  -0.259   0.771  0.00  0.00    +0.202 C 
BRANCH   9  10
ATOM     10  N   UNL     1      -2.419   0.976   0.002  0.00  0.00    -0.321 N 
ATOM     11  C   UNL     1      -3.087   0.697  -1.271  0.00  0.00    +0.106 C 
ATOM     12  C   UNL     1      -3.296   2.021  -2.016  0.00  0.00    +0.024 C 
ATOM     13  C   UNL     1      -4.327   2.842  -1.239  0.00  0.00    +0.038 C 
ATOM     14  C   UNL     1      -3.974   2.843   0.227  0.00  0.00    -0.026 A 
ATOM     15  C   UNL     1      -3.072   1.941   0.765  0.00  0.00    +0.033 A 
ATOM     16  C   UNL     1      -2.799   1.980   2.133  0.00  0.00    +0.023 A 
ATOM     17  C   UNL     1      -3.406   2.918   2.940  0.00  0.00    +0.002 A 
ATOM     18  C   UNL     1      -4.298   3.824   2.396  0.00  0.00    +0.000 A 
ATOM     19  C   UNL     1      -4.580   3.784   1.044  0.00  0.00    +0.005 A 
ENDBRANCH   9  10
ENDBRANCH   6   9
ENDBRANCH   3   5
BRANCH   1  20
ATOM     20  C   UNL     1       1.104  -5.370  -0.465  0.00  0.00    +0.215 C 
BRANCH  20  33
ATOM     21  C   UNL     1       0.525  -8.439   5.687  0.00  0.00    +0.000 A 
ATOM     22  C   UNL     1       0.089  -7.448   4.827  0.00  0.00    +0.000 A 
ATOM     23  C   UNL     1       0.517  -7.441   3.516  0.00  0.00    +0.006 A 
ATOM     24  C   UNL     1       1.383  -8.422   3.051  0.00  0.00    -0.012 A 
ATOM     25  C   UNL     1       1.819  -9.408   3.909  0.00  0.00    -0.042 A 
ATOM     26  C   UNL     1       1.386  -9.414   5.228  0.00  0.00    +0.004 A 
ATOM     27  C   UNL     1       2.768 -10.494   3.475  0.00  0.00    +0.035 C 
ATOM     28  C   UNL     1       2.786 -10.618   1.953  0.00  0.00    +0.008 C 
ATOM     29  C   UNL     1       3.036  -9.228   1.355  0.00  0.00    +0.040 C 
ATOM     30  C   UNL     1       1.808  -8.364   1.611  0.00  0.00    +0.138 C 
ATOM     31  C   UNL     1       2.085  -6.934   1.202  0.00  0.00    +0.251 C 
ATOM     32  O   UNL     1       2.927  -6.191   1.658  0.00  0.00    -0.272 OA
ATOM     33  N   UNL     1       1.196  -6.659   0.225  0.00  0.00    -0.215 N 
ATOM     34  C   UNL     1       0.412  -7.711  -0.039  0.00  0.00    +0.310 C 
ATOM     35  O   UNL     1      -0.463  -7.707  -0.882  0.00  0.00    -0.252 OA
ATOM     36  N   UNL     1       0.701  -8.774   0.735  0.00  0.00    -0.281 N 
ATOM     37  H   UNL     1       0.289  -9.791   0.810  0.00  0.00    +0.152 HD
ENDBRANCH  20  33
ENDBRANCH   1  20
TORSDOF 5
