REMARK  Name = ZINC39464304
REMARK  6 active torsions:
REMARK  status: ('A' for Active; 'I' for Inactive)
REMARK    1  A    between atoms: C_1  and  O_2
REMARK    2  A    between atoms: O_2  and  C_3
REMARK    3  A    between atoms: C_8  and  C_9
REMARK    4  A    between atoms: C_9  and  C_10
REMARK    5  A    between atoms: P_20  and  C_26
REMARK    6  A    between atoms: C_31  and  O_32
REMARK                            x       y       z     vdW  Elec       q    Type
REMARK                         _______ _______ _______ _____ _____    ______ ____
ROOT
ATOM      1  C   UNL     1      -1.200  -0.637   0.010  0.00  0.00    +0.124 A 
ATOM      2  C   UNL     1      -2.375   0.098   0.019  0.00  0.00    +0.050 A 
ATOM      3  C   UNL     1      -3.602  -0.545   0.028  0.00  0.00    -0.038 A 
ATOM      4  C   UNL     1      -3.658  -1.923   0.027  0.00  0.00    -0.023 A 
ATOM      5  C   UNL     1      -2.482  -2.659   0.017  0.00  0.00    +0.013 A 
ATOM      6  C   UNL     1      -1.258  -2.023   0.003  0.00  0.00    -0.001 A 
ATOM      7  C   UNL     1      -4.966  -2.670   0.034  0.00  0.00    +0.129 C 
ATOM      8  C   UNL     1      -4.864  -3.847   1.009  0.00  0.00    +0.194 C 
ATOM      9  O   UNL     1      -6.074  -4.624   0.923  0.00  0.00    -0.311 OA
ATOM     10  P   UNL     1      -7.499  -3.846   1.031  0.00  0.00    +0.318 P 
ATOM     11  O   UNL     1      -7.833  -3.585   2.449  0.00  0.00    -0.266 OA
ATOM     12  N   UNL     1      -7.289  -2.420   0.222  0.00  0.00    -0.175 NA
ATOM     13  N   UNL     1      -6.074  -1.792   0.411  0.00  0.00    -0.225 NA
ATOM     14  C   UNL     1      -6.048  -0.547  -0.372  0.00  0.00    +0.108 C 
ATOM     15  C   UNL     1      -4.854   0.294   0.042  0.00  0.00    +0.052 C 
ATOM     16  H   UNL     1      -7.984  -2.047  -0.343  0.00  0.00    +0.151 HD
ENDROOT
BRANCH  10  17
ATOM     17  C   UNL     1      -8.809  -4.827   0.250  0.00  0.00    +0.094 A 
ATOM     18  C   UNL     1      -9.088  -4.663  -1.093  0.00  0.00    +0.018 A 
ATOM     19  C   UNL     1     -10.087  -5.410  -1.689  0.00  0.00    +0.001 A 
ATOM     20  C   UNL     1     -10.810  -6.323  -0.943  0.00  0.00    +0.004 A 
ATOM     21  C   UNL     1     -10.534  -6.491   0.400  0.00  0.00    +0.046 A 
ATOM     22  C   UNL     1      -9.529  -5.746   0.999  0.00  0.00    +0.131 A 
BRANCH  22  23
ATOM     23  O   UNL     1      -9.252  -5.914   2.319  0.00  0.00    -0.506 OA
ATOM     24  H   UNL     1      -9.761  -5.336   2.904  0.00  0.00    +0.292 HD
ENDBRANCH  22  23
ENDBRANCH  10  17
BRANCH   1  26
ATOM     25  C   UNL     1      -0.017   1.425   0.010  0.00  0.00    +0.277 C 
ATOM     26  O   UNL     1       0.002  -0.004   0.002  0.00  0.00    -0.495 OA
ENDBRANCH   1  26
BRANCH   6  27
ATOM     27  C   UNL     1       0.013  -2.832  -0.013  0.00  0.00    +0.074 C 
BRANCH  27  28
ATOM     28  C   UNL     1       0.556  -2.886  -1.418  0.00  0.00    -0.043 A 
ATOM     29  C   UNL     1       0.166  -3.901  -2.271  0.00  0.00    +0.004 A 
ATOM     30  C   UNL     1       0.664  -3.951  -3.560  0.00  0.00    +0.000 A 
ATOM     31  C   UNL     1       1.552  -2.985  -3.995  0.00  0.00    +0.000 A 
ATOM     32  C   UNL     1       1.942  -1.969  -3.142  0.00  0.00    +0.000 A 
ATOM     33  C   UNL     1       1.440  -1.917  -1.855  0.00  0.00    +0.004 A 
ENDBRANCH  27  28
ENDBRANCH   6  27
TORSDOF 5
