REMARK  Name = ZINC31829409
REMARK  10 active torsions:
REMARK  status: ('A' for Active; 'I' for Inactive)
REMARK    1  A    between atoms: C_1  and  C_2
REMARK    2  A    between atoms: C_2  and  C_3
REMARK    3  A    between atoms: C_2  and  C_4
REMARK    4  A    between atoms: C_4  and  C_5
REMARK    5  A    between atoms: C_5  and  C_7
REMARK    6  A    between atoms: C_5  and  N_10
REMARK    7  A    between atoms: C_7  and  C_9
REMARK    8  A    between atoms: C_11  and  O_13
REMARK    9  A    between atoms: O_13  and  C_14
REMARK   10  A    between atoms: C_14  and  C_15
REMARK                            x       y       z     vdW  Elec       q    Type
REMARK                         _______ _______ _______ _____ _____    ______ ____
ROOT
ATOM      1  C   UNL     1      -0.651   5.938  -0.812  0.00  0.00    +0.246 C 
ENDROOT
BRANCH   1   2
ATOM      2  C   UNL     1      -0.206   5.281   0.495  0.00  0.00    +0.088 C 
ATOM      3  C   UNL     1      -0.525   3.806   0.470  0.00  0.00    -0.029 A 
ATOM      4  C   UNL     1      -1.715   3.119   0.356  0.00  0.00    +0.005 A 
ATOM      5  C   UNL     1      -1.718   1.735   0.357  0.00  0.00    +0.000 A 
ATOM      6  C   UNL     1      -0.530   1.039   0.483  0.00  0.00    +0.001 A 
ATOM      7  C   UNL     1       0.665   1.718   0.598  0.00  0.00    +0.009 A 
ATOM      8  C   UNL     1       0.676   3.114   0.592  0.00  0.00    -0.014 A 
ATOM      9  C   UNL     1       1.796   4.083   0.698  0.00  0.00    -0.014 A 
ATOM     10  C   UNL     1       1.293   5.380   0.643  0.00  0.00    -0.029 A 
ATOM     11  C   UNL     1       2.146   6.460   0.722  0.00  0.00    +0.005 A 
ATOM     12  C   UNL     1       3.508   6.259   0.856  0.00  0.00    +0.000 A 
ATOM     13  C   UNL     1       4.017   4.974   0.913  0.00  0.00    +0.001 A 
ATOM     14  C   UNL     1       3.171   3.887   0.835  0.00  0.00    +0.009 A 
ENDBRANCH   1   2
BRANCH   1  15
ATOM     15  O   UNL     1      -2.101   5.940  -0.884  0.00  0.00    -0.449 OA
BRANCH  15  17
ATOM     16  N   UNL     1      -4.000   6.521  -2.110  0.00  0.00    -0.271 N 
ATOM     17  C   UNL     1      -2.658   6.487  -1.981  0.00  0.00    +0.401 C 
ATOM     18  O   UNL     1      -1.952   6.951  -2.854  0.00  0.00    -0.226 OA
ATOM     19  H   UNL     1      -4.639   6.102  -1.319  0.00  0.00    +0.153 HD
BRANCH  16  20
ATOM     20  C   UNL     1      -4.606   7.117  -3.303  0.00  0.00    +0.142 C 
BRANCH  20  21
ATOM     21  C   UNL     1      -4.731   8.606  -3.113  0.00  0.00    +0.150 C 
ATOM     22  O   UNL     1      -4.614   9.086  -2.011  0.00  0.00    -0.296 OA
ATOM     23  C   UNL     1      -5.003   9.497  -4.298  0.00  0.00    +0.088 C 
ENDBRANCH  20  21
BRANCH  20  24
ATOM     24  C   UNL     1      -5.994   6.512  -3.525  0.00  0.00    +0.033 C 
BRANCH  24  26
ATOM     25  C   UNL     1      -7.251   4.382  -3.879  0.00  0.00    +0.007 C 
ATOM     26  C   UNL     1      -5.859   5.013  -3.801  0.00  0.00    -0.015 C 
ATOM     27  C   UNL     1      -5.129   4.803  -5.129  0.00  0.00    +0.007 C 
ENDBRANCH  24  26
ENDBRANCH  20  24
ENDBRANCH  16  20
ENDBRANCH  15  17
ENDBRANCH   1  15
TORSDOF 7
