REMARK  Name = ZINC13856464
REMARK  6 active torsions:
REMARK  status: ('A' for Active; 'I' for Inactive)
REMARK    1  A    between atoms: C_1  and  C_2
REMARK    2  A    between atoms: N_12  and  C_13
REMARK    3  A    between atoms: C_13  and  C_15
REMARK    4  A    between atoms: N_21  and  C_22
REMARK    5  A    between atoms: C_25  and  O_28
REMARK    6  A    between atoms: O_28  and  C_29
REMARK                            x       y       z     vdW  Elec       q    Type
REMARK                         _______ _______ _______ _____ _____    ______ ____
ROOT
ATOM      1  C   UNL     1      -3.025  -6.447  -0.603  0.00  0.00    +0.066 C 
ATOM      2  C   UNL     1      -1.638  -5.862  -0.519  0.00  0.00    +0.047 A 
ATOM      3  C   UNL     1      -0.549  -6.681  -0.585  0.00  0.00    +0.093 A 
ATOM      4  C   UNL     1       0.735  -6.111  -0.504  0.00  0.00    +0.253 A 
ATOM      5  O   UNL     1       1.732  -6.812  -0.561  0.00  0.00    -0.268 OA
ATOM      6  N   UNL     1       0.842  -4.772  -0.363  0.00  0.00    -0.293 N 
ATOM      7  H   UNL     1       1.717  -4.357  -0.305  0.00  0.00    +0.172 HD
ATOM      8  C   UNL     1      -0.280  -4.007  -0.303  0.00  0.00    +0.211 A 
ATOM      9  N   UNL     1      -1.478  -4.548  -0.374  0.00  0.00    -0.219 NA
ATOM     10  N   UNL     1      -0.162  -2.645  -0.159  0.00  0.00    -0.298 N 
ATOM     11  C   UNL     1      -1.281  -1.876   0.028  0.00  0.00    +0.201 C 
ATOM     12  N   UNL     1      -2.479  -2.437   0.010  0.00  0.00    -0.142 NA
ATOM     13  N   UNL     1      -1.159  -0.533   0.232  0.00  0.00    -0.328 N 
ATOM     14  H   UNL     1       0.713  -2.228  -0.189  0.00  0.00    +0.171 HD
ATOM     15  H   UNL     1      -1.878   0.064  -0.029  0.00  0.00    +0.169 HD
ENDROOT
BRANCH  13  16
ATOM     16  C   UNL     1       0.003  -0.016   0.817  0.00  0.00    +0.042 A 
ATOM     17  C   UNL     1       0.421   1.273   0.511  0.00  0.00    +0.029 A 
ATOM     18  C   UNL     1       1.567   1.782   1.089  0.00  0.00    +0.048 A 
ATOM     19  C   UNL     1       2.301   1.007   1.975  0.00  0.00    +0.129 A 
ATOM     20  C   UNL     1       1.884  -0.281   2.280  0.00  0.00    +0.048 A 
ATOM     21  C   UNL     1       0.739  -0.791   1.703  0.00  0.00    +0.029 A 
BRANCH  19  22
ATOM     22  O   UNL     1       3.428   1.509   2.545  0.00  0.00    -0.456 OA
BRANCH  22  23
ATOM     23  C   UNL     1       3.288   2.411   3.551  0.00  0.00    +0.128 A 
ATOM     24  C   UNL     1       2.026   2.708   4.046  0.00  0.00    +0.046 A 
ATOM     25  C   UNL     1       1.886   3.622   5.073  0.00  0.00    +0.004 A 
ATOM     26  C   UNL     1       3.001   4.247   5.601  0.00  0.00    +0.000 A 
ATOM     27  C   UNL     1       4.259   3.956   5.106  0.00  0.00    +0.004 A 
ATOM     28  C   UNL     1       4.405   3.039   4.082  0.00  0.00    +0.046 A 
ENDBRANCH  22  23
ENDBRANCH  19  22
ENDBRANCH  13  16
BRANCH  12  29
ATOM     29  C   UNL     1      -3.575  -1.681   0.166  0.00  0.00    +0.270 C 
ATOM     30  O   UNL     1      -3.477  -0.468   0.206  0.00  0.00    -0.268 OA
BRANCH  29  31
ATOM     31  C   UNL     1      -4.905  -2.321   0.288  0.00  0.00    +0.039 A 
ATOM     32  C   UNL     1      -5.010  -3.711   0.356  0.00  0.00    +0.013 A 
ATOM     33  C   UNL     1      -6.251  -4.301   0.476  0.00  0.00    +0.001 A 
ATOM     34  C   UNL     1      -7.391  -3.518   0.517  0.00  0.00    +0.000 A 
ATOM     35  C   UNL     1      -7.294  -2.140   0.444  0.00  0.00    +0.001 A 
ATOM     36  C   UNL     1      -6.058  -1.538   0.330  0.00  0.00    +0.013 A 
ENDBRANCH  29  31
ENDBRANCH  12  29
TORSDOF 5
