REMARK  Name = ZINC05318349
REMARK  12 active torsions:
REMARK  status: ('A' for Active; 'I' for Inactive)
REMARK    1  A    between atoms: C_1  and  C_2
REMARK    2  A    between atoms: C_2  and  C_3
REMARK    3  A    between atoms: C_5  and  C_24
REMARK    4  A    between atoms: C_6  and  O_23
REMARK    5  A    between atoms: C_7  and  C_10
REMARK    6  A    between atoms: C_8  and  O_9
REMARK    7  A    between atoms: C_10  and  N_11
REMARK    8  A    between atoms: C_13  and  C_22
REMARK    9  A    between atoms: C_18  and  C_20
REMARK   10  A    between atoms: C_18  and  C_21
REMARK   11  A    between atoms: C_25  and  C_31
REMARK   12  A    between atoms: C_26  and  C_30
REMARK                            x       y       z     vdW  Elec       q    Type
REMARK                         _______ _______ _______ _____ _____    ______ ____
ROOT
ATOM      1  C   UNL     1      -1.381  -0.474   0.460  0.00  0.00    -0.005 A 
ATOM      2  C   UNL     1      -2.241  -0.614   1.529  0.00  0.00    +0.021 A 
ATOM      3  C   UNL     1      -3.552  -1.036   1.319  0.00  0.00    +0.045 A 
ATOM      4  C   UNL     1      -3.992  -1.316   0.021  0.00  0.00    +0.131 A 
ATOM      5  C   UNL     1      -3.123  -1.173  -1.047  0.00  0.00    +0.020 A 
ATOM      6  C   UNL     1      -1.821  -0.748  -0.829  0.00  0.00    +0.125 A 
ENDROOT
BRANCH   3   7
ATOM      7  C   UNL     1      -4.477  -1.187   2.466  0.00  0.00    +0.106 A 
ATOM      8  C   UNL     1      -4.202  -1.892   3.720  0.00  0.00    +0.055 A 
ATOM      9  C   UNL     1      -5.329  -1.780   4.487  0.00  0.00    +0.043 A 
ATOM     10  N   UNL     1      -6.237  -1.072   3.793  0.00  0.00    -0.281 N 
ATOM     11  H   UNL     1      -7.127  -0.845   4.105  0.00  0.00    +0.189 HD
ATOM     12  N   UNL     1      -5.699  -0.709   2.555  0.00  0.00    -0.173 NA
ATOM     13  C   UNL     1      -5.519  -2.351   5.869  0.00  0.00    +0.066 C 
BRANCH   8  14
ATOM     14  C   UNL     1      -2.952  -2.588   4.085  0.00  0.00    +0.113 A 
ATOM     15  N   UNL     1      -1.830  -2.682   3.404  0.00  0.00    -0.239 NA
ATOM     16  C   UNL     1      -0.758  -3.356   3.865  0.00  0.00    +0.079 A 
ATOM     17  C   UNL     1       0.499  -3.533   3.238  0.00  0.00    +0.029 A 
ATOM     18  C   UNL     1       1.484  -4.249   3.842  0.00  0.00    +0.002 A 
ATOM     19  C   UNL     1       1.302  -4.832   5.089  0.00  0.00    +0.001 A 
ATOM     20  C   UNL     1       0.089  -4.682   5.736  0.00  0.00    +0.017 A 
ATOM     21  C   UNL     1      -0.912  -3.961   5.134  0.00  0.00    +0.040 A 
ATOM     22  S   UNL     1      -2.575  -3.512   5.568  0.00  0.00    -0.067 S 
ENDBRANCH   8  14
ENDBRANCH   3   7
BRANCH   1  24
ATOM     23  C   UNL     1       0.144   1.480   0.399  0.00  0.00    +0.009 C 
ATOM     24  C   UNL     1       0.037  -0.018   0.689  0.00  0.00    +0.035 C 
ENDBRANCH   1  24
BRANCH   6  25
ATOM     25  O   UNL     1      -0.971  -0.603  -1.879  0.00  0.00    -0.506 OA
ATOM     26  H   UNL     1      -0.469  -1.401  -2.092  0.00  0.00    +0.292 HD
ENDBRANCH   6  25
BRANCH   4  27
ATOM     27  O   UNL     1      -5.269  -1.728  -0.191  0.00  0.00    -0.506 OA
ATOM     28  H   UNL     1      -5.879  -1.014  -0.423  0.00  0.00    +0.292 HD
ENDBRANCH   4  27
BRANCH   5  29
ATOM     29  C   UNL     1      -3.593  -1.475  -2.447  0.00  0.00    -0.035 C 
BRANCH  29  30
ATOM     30  N   UNL     1      -3.541  -2.913  -2.677  0.00  0.00    +0.385 N 
ATOM     31  C   UNL     1      -2.157  -3.420  -2.628  0.00  0.00    -0.071 C 
ATOM     32  C   UNL     1      -2.026  -4.441  -3.783  0.00  0.00    -0.048 C 
ATOM     33  C   UNL     1      -3.495  -4.736  -4.184  0.00  0.00    -0.011 C 
ATOM     34  C   UNL     1      -4.104  -3.321  -3.981  0.00  0.00    -0.067 C 
ATOM     35  C   UNL     1      -3.624  -2.443  -5.119  0.00  0.00    -0.009 C 
ATOM     36  C   UNL     1      -2.176  -2.578  -5.533  0.00  0.00    -0.036 C 
ATOM     37  C   UNL     1      -1.375  -3.734  -4.971  0.00  0.00    +0.011 C 
ATOM     38  C   UNL     1      -2.152  -2.715  -7.078  0.00  0.00    +0.011 C 
ATOM     39  C   UNL     1      -1.438  -1.262  -5.214  0.00  0.00    +0.011 C 
ATOM     40  C   UNL     1      -1.267  -5.707  -3.358  0.00  0.00    +0.009 C 
ATOM     41  H   UNL     1      -4.073  -3.381  -1.940  0.00  0.00    -0.081 HD
ENDBRANCH  29  30
ENDBRANCH   5  29
TORSDOF 7
