REMARK  Name = ZINC03467647
REMARK  6 active torsions:
REMARK  status: ('A' for Active; 'I' for Inactive)
REMARK    1  A    between atoms: C_6  and  C_7
REMARK    2  A    between atoms: C_7  and  S_8
REMARK    3  A    between atoms: S_8  and  C_9
REMARK    4  A    between atoms: C_9  and  C_10
REMARK    5  A    between atoms: C_10  and  N_11
REMARK    6  A    between atoms: C_12  and  C_14
REMARK                            x       y       z     vdW  Elec       q    Type
REMARK                         _______ _______ _______ _____ _____    ______ ____
ROOT
ATOM      1  C   UNL     1       8.531   2.032  -2.991  0.00  0.00    +0.115 C 
ENDROOT
BRANCH   1   2
ATOM      2  N   UNL     1       9.988   2.123  -2.865  0.00  0.00    -0.311 N 
ATOM      3  C   UNL     1      10.758   2.178  -3.969  0.00  0.00    +0.246 C 
ATOM      4  O   UNL     1      10.244   2.152  -5.071  0.00  0.00    -0.270 OA
ATOM      5  H   UNL     1      10.398   2.143  -1.986  0.00  0.00    +0.149 HD
BRANCH   3   6
ATOM      6  C   UNL     1      12.227   2.270  -3.841  0.00  0.00    +0.055 A 
ATOM      7  C   UNL     1      12.821   2.300  -2.578  0.00  0.00    +0.016 A 
ATOM      8  C   UNL     1      14.192   2.385  -2.465  0.00  0.00    +0.021 A 
ATOM      9  C   UNL     1      14.982   2.441  -3.602  0.00  0.00    +0.042 A 
ATOM     10  C   UNL     1      14.401   2.412  -4.858  0.00  0.00    +0.040 A 
ATOM     11  C   UNL     1      13.029   2.322  -4.985  0.00  0.00    +0.054 A 
ATOM     12 CL   UNL     1      12.302   2.278  -6.560  0.00  0.00    -0.083 Cl
ATOM     13 CL   UNL     1      16.708   2.549  -3.450  0.00  0.00    -0.083 Cl
ENDBRANCH   3   6
ENDBRANCH   1   2
BRANCH   1  14
ATOM     14  C   UNL     1       7.900   1.983  -1.598  0.00  0.00    +0.088 C 
BRANCH  14  15
ATOM     15  S   UNL     1       6.097   1.871  -1.755  0.00  0.00    -0.155 S 
BRANCH  15  16
ATOM     16  C   UNL     1       5.509   1.823  -0.040  0.00  0.00    +0.104 C 
BRANCH  16  22
ATOM     17  C   UNL     1       3.250   2.908  -0.013  0.00  0.00    +0.007 A 
ATOM     18  C   UNL     1       1.894   2.891  -0.001  0.00  0.00    +0.034 A 
ATOM     19  C   UNL     1       1.218   1.656  -0.001  0.00  0.00    +0.134 A 
ATOM     20  C   UNL     1       2.018   0.406  -0.015  0.00  0.00    +0.134 A 
ATOM     21  C   UNL     1       3.423   0.503  -0.028  0.00  0.00    +0.037 A 
ATOM     22  C   UNL     1       4.005   1.728  -0.026  0.00  0.00    -0.035 A 
ATOM     23  N   UNL     1       1.098  -0.527  -0.011  0.00  0.00    -0.049 NA
ATOM     24  O   UNL     1       0.002  -0.004   0.002  0.00  0.00    -0.242 OA
ATOM     25  N   UNL     1      -0.014   1.210   0.009  0.00  0.00    -0.049 NA
ENDBRANCH  16  22
ENDBRANCH  15  16
ENDBRANCH  14  15
ENDBRANCH   1  14
TORSDOF 6
