REMARK  Name = ZINC37295503
REMARK  9 active torsions:
REMARK  status: ('A' for Active; 'I' for Inactive)
REMARK    1  A    between atoms: C_1  and  C_2
REMARK    2  A    between atoms: C_5  and  N_9
REMARK    3  A    between atoms: C_6  and  C_8
REMARK    4  A    between atoms: C_12  and  N_20
REMARK    5  A    between atoms: C_13  and  C_16
REMARK    6  A    between atoms: N_14  and  C_15
REMARK    7  A    between atoms: C_16  and  C_17
REMARK    8  A    between atoms: C_16  and  C_18
REMARK    9  A    between atoms: C_16  and  C_19
REMARK                            x       y       z     vdW  Elec       q    Type
REMARK                         _______ _______ _______ _____ _____    ______ ____
ROOT
ATOM      1  N   UNL     1       0.475  -4.389  -0.085  0.00  0.00    -0.215 N 
ATOM      2  C   UNL     1      -0.608  -5.112  -0.437  0.00  0.00    +0.293 A 
ATOM      3  O   UNL     1      -1.598  -4.692  -1.008  0.00  0.00    -0.264 OA
ATOM      4  C   UNL     1      -0.386  -6.451  -0.022  0.00  0.00    +0.113 A 
ATOM      5  C   UNL     1       0.825  -6.509   0.571  0.00  0.00    +0.067 A 
ATOM      6  N   UNL     1       1.381  -5.253   0.542  0.00  0.00    -0.281 N 
ATOM      7  C   UNL     1       2.694  -4.882   1.076  0.00  0.00    +0.171 C 
ENDROOT
BRANCH   1  12
ATOM      8  C   UNL     1       1.229   1.157  -1.005  0.00  0.00    +0.044 C 
ATOM      9  C   UNL     1       1.029  -0.316  -0.760  0.00  0.00    -0.050 A 
ATOM     10  C   UNL     1       1.343  -1.229  -1.751  0.00  0.00    +0.005 A 
ATOM     11  C   UNL     1       1.160  -2.580  -1.530  0.00  0.00    +0.028 A 
ATOM     12  C   UNL     1       0.661  -3.022  -0.312  0.00  0.00    +0.070 A 
ATOM     13  C   UNL     1       0.347  -2.103   0.681  0.00  0.00    -0.025 A 
ATOM     14  C   UNL     1       0.537  -0.753   0.456  0.00  0.00    +0.008 A 
ATOM     15  C   UNL     1      -0.195  -2.578   2.004  0.00  0.00    +0.046 C 
ENDBRANCH   1  12
BRANCH   5  16
ATOM     16  C   UNL     1       1.460  -7.742   1.160  0.00  0.00    +0.006 C 
ATOM     17  C   UNL     1       0.559  -8.952   0.905  0.00  0.00    +0.017 C 
ATOM     18  C   UNL     1       2.824  -7.975   0.506  0.00  0.00    +0.017 C 
ATOM     19  C   UNL     1       1.643  -7.552   2.667  0.00  0.00    +0.017 C 
ENDBRANCH   5  16
BRANCH   4  20
ATOM     20  N   UNL     1      -1.276  -7.531  -0.199  0.00  0.00    -0.352 N 
ATOM     21  H   UNL     1      -2.233  -7.376  -0.199  0.00  0.00    +0.143 HD
ATOM     22  H   UNL     1      -0.930  -8.430  -0.319  0.00  0.00    +0.143 HD
ENDBRANCH   4  20
TORSDOF 3
