REMARK  Name = ZINC66468083
REMARK  4 active torsions:
REMARK  status: ('A' for Active; 'I' for Inactive)
REMARK    1  A    between atoms: C_1  and  C_2
REMARK    2  A    between atoms: C_2  and  C_7
REMARK    3  A    between atoms: C_7  and  N_8
REMARK    4  A    between atoms: N_15  and  C_19
REMARK                            x       y       z     vdW  Elec       q    Type
REMARK                         _______ _______ _______ _____ _____    ______ ____
ROOT
ATOM      1  N   UNL     1      -2.117  -0.054  -1.217  0.00  0.00    -0.328 N 
ATOM      2  C   UNL     1      -3.429  -0.415  -1.456  0.00  0.00    +0.134 A 
ATOM      3  C   UNL     1      -4.106   0.044  -2.602  0.00  0.00    +0.092 A 
ATOM      4  C   UNL     1      -5.443  -0.356  -2.792  0.00  0.00    +0.164 A 
ATOM      5  N   UNL     1      -6.011  -1.150  -1.886  0.00  0.00    -0.216 NA
ATOM      6  C   UNL     1      -5.338  -1.553  -0.831  0.00  0.00    +0.225 A 
ATOM      7  N   UNL     1      -4.081  -1.207  -0.612  0.00  0.00    -0.220 NA
ATOM      8  N   UNL     1      -5.858   0.216  -3.958  0.00  0.00    -0.248 N 
ATOM      9  N   UNL     1      -4.795   0.962  -4.484  0.00  0.00    -0.162 NA
ATOM     10  C   UNL     1      -3.762   0.868  -3.696  0.00  0.00    +0.141 A 
ATOM     11 BR   UNL     1      -2.084   1.696  -3.971  0.00  0.00    -0.026 Br
ATOM     12  C   UNL     1      -7.188   0.076  -4.557  0.00  0.00    +0.174 C 
ATOM     13  H   UNL     1      -1.653   0.525  -1.841  0.00  0.00    +0.147 HD
ENDROOT
BRANCH   1  14
ATOM     14  C   UNL     1      -1.428  -0.547  -0.022  0.00  0.00    +0.109 C 
BRANCH  14  16
ATOM     15  C   UNL     1      -0.019   1.526   0.010  0.00  0.00    +0.013 C 
ATOM     16  C   UNL     1       0.002  -0.004   0.002  0.00  0.00    -0.017 C 
ATOM     17  C   UNL     1       0.783  -0.515  -1.226  0.00  0.00    +0.008 C 
ATOM     18  C   UNL     1       2.213  -0.768  -0.688  0.00  0.00    +0.001 C 
ATOM     19  C   UNL     1       1.950  -1.339   0.728  0.00  0.00    +0.001 C 
ATOM     20  C   UNL     1       0.744  -0.528   1.244  0.00  0.00    +0.008 C 
ENDBRANCH  14  16
ENDBRANCH   1  14
TORSDOF 2
