REMARK  Name = ZINC31863005
REMARK  2 active torsions:
REMARK  status: ('A' for Active; 'I' for Inactive)
REMARK    1  A    between atoms: C_6  and  N_7
REMARK    2  A    between atoms: C_10  and  C_11
REMARK                            x       y       z     vdW  Elec       q    Type
REMARK                         _______ _______ _______ _____ _____    ______ ____
ROOT
ATOM      1  C   UNL     1       3.142   3.181  -0.011  0.00  0.00    +0.048 A 
ATOM      2  C   UNL     1       3.960   2.039  -0.025  0.00  0.00    +0.059 A 
ATOM      3  C   UNL     1       3.411   0.805  -0.027  0.00  0.00    +0.114 A 
ATOM      4  N   UNL     1       2.054   0.647  -0.014  0.00  0.00    -0.283 N 
ATOM      5  C   UNL     1       1.226   1.740  -0.000  0.00  0.00    +0.182 A 
ATOM      6  C   UNL     1       1.783   3.040   0.001  0.00  0.00    +0.071 A 
ATOM      7  N   UNL     1      -0.015   1.283   0.009  0.00  0.00    -0.127 NA
ATOM      8  N   UNL     1       0.002  -0.004   0.002  0.00  0.00    -0.133 NA
ATOM      9  C   UNL     1       1.236  -0.440  -0.012  0.00  0.00    +0.141 A 
ATOM     10 CL   UNL     1       5.687   2.215  -0.040  0.00  0.00    -0.082 Cl
ENDROOT
BRANCH   9  11
ATOM     11  C   UNL     1       1.671  -1.883  -0.024  0.00  0.00    +0.057 C 
ATOM     12  C   UNL     1       1.117  -2.573  -1.271  0.00  0.00    +0.011 C 
ATOM     13  C   UNL     1       1.559  -4.038  -1.283  0.00  0.00    +0.001 C 
ATOM     14  C   UNL     1       1.027  -4.741  -0.032  0.00  0.00    +0.000 C 
ATOM     15  C   UNL     1       1.582  -4.050   1.215  0.00  0.00    +0.001 C 
ATOM     16  C   UNL     1       1.140  -2.586   1.227  0.00  0.00    +0.011 C 
ENDBRANCH   9  11
BRANCH   6  17
ATOM     17  N   UNL     1       0.955   4.164   0.015  0.00  0.00    -0.355 N 
ATOM     18  H   UNL     1      -0.138   4.042   0.025  0.00  0.00    +0.142 HD
ATOM     19  H   UNL     1       1.396   5.172   0.016  0.00  0.00    +0.142 HD
ENDBRANCH   6  17
TORSDOF 2
