REMARK  Name = ZINC49975552
REMARK  5 active torsions:
REMARK  status: ('A' for Active; 'I' for Inactive)
REMARK    1  A    between atoms: C_1  and  C_2
REMARK    2  A    between atoms: C_5  and  N_9
REMARK    3  A    between atoms: C_6  and  C_8
REMARK    4  A    between atoms: N_9  and  C_10
REMARK    5  A    between atoms: C_16  and  C_19
REMARK                            x       y       z     vdW  Elec       q    Type
REMARK                         _______ _______ _______ _____ _____    ______ ____
ROOT
ATOM      1  N   UNL     1       0.056  -4.177   0.255  0.00  0.00    -0.258 N 
ATOM      2  C   UNL     1       1.295  -4.667  -0.354  0.00  0.00    +0.140 C 
ATOM      3  C   UNL     1      -1.094  -4.859   0.084  0.00  0.00    +0.309 C 
ATOM      4  O   UNL     1      -1.069  -6.063  -0.079  0.00  0.00    -0.252 OA
ATOM      5  N   UNL     1      -2.273  -4.205   0.095  0.00  0.00    -0.285 N 
ATOM      6  C   UNL     1      -3.541  -4.947   0.105  0.00  0.00    +0.110 C 
ATOM      7  C   UNL     1      -4.411  -4.452  -1.055  0.00  0.00    +0.034 C 
ATOM      8  C   UNL     1      -4.571  -2.933  -0.955  0.00  0.00    +0.105 C 
ATOM      9  C   UNL     1      -3.198  -2.266  -1.062  0.00  0.00    +0.034 C 
ATOM     10  C   UNL     1      -2.314  -2.736   0.103  0.00  0.00    +0.110 C 
ENDROOT
BRANCH   1  15
ATOM     11  C   UNL     1       0.099   0.587   3.336  0.00  0.00    +0.044 C 
ATOM     12  C   UNL     1       0.088  -0.679   2.518  0.00  0.00    -0.050 A 
ATOM     13  C   UNL     1       0.177  -0.610   1.139  0.00  0.00    +0.005 A 
ATOM     14  C   UNL     1       0.167  -1.768   0.386  0.00  0.00    +0.024 A 
ATOM     15  C   UNL     1       0.067  -3.002   1.015  0.00  0.00    +0.040 A 
ATOM     16  C   UNL     1      -0.022  -3.068   2.399  0.00  0.00    -0.029 A 
ATOM     17  C   UNL     1      -0.005  -1.906   3.147  0.00  0.00    +0.008 A 
ATOM     18  C   UNL     1      -0.130  -4.405   3.086  0.00  0.00    +0.045 C 
ENDBRANCH   1  15
BRANCH   8  19
ATOM     19  C   UNL     1      -5.454  -2.447  -2.075  0.00  0.00    +0.359 C 
ATOM     20  O   UNL     1      -6.280  -1.574  -1.865  0.00  0.00    -0.246 OA
ATOM     21  O   UNL     1      -5.344  -2.926  -3.191  0.00  0.00    -0.246 OA
ENDBRANCH   8  19
TORSDOF 2
