REMARK  Name = ZINC64954600
REMARK  10 active torsions:
REMARK  status: ('A' for Active; 'I' for Inactive)
REMARK    1  A    between atoms: C_1  and  C_2
REMARK    2  A    between atoms: C_4  and  N_9
REMARK    3  A    between atoms: C_10  and  C_12
REMARK    4  A    between atoms: C_18  and  C_25
REMARK    5  A    between atoms: C_18  and  C_26
REMARK    6  A    between atoms: N_19  and  C_22
REMARK    7  A    between atoms: N_28  and  C_29
REMARK    8  A    between atoms: C_29  and  C_30
REMARK    9  A    between atoms: C_30  and  O_31
REMARK   10  A    between atoms: O_31  and  C_32
REMARK                            x       y       z     vdW  Elec       q    Type
REMARK                         _______ _______ _______ _____ _____    ______ ____
ROOT
ATOM      1  C   UNL     1       0.803  -4.695  -3.905  0.00  0.00    +0.156 A 
ATOM      2  C   UNL     1       0.615  -6.035  -4.120  0.00  0.00    +0.137 A 
ATOM      3  N   UNL     1       0.877  -6.263  -5.458  0.00  0.00    -0.323 N 
ATOM      4  C   UNL     1       1.232  -5.096  -5.997  0.00  0.00    +0.200 A 
ATOM      5  N   UNL     1       1.184  -4.159  -5.083  0.00  0.00    -0.230 NA
ATOM      6  C   UNL     1       0.739  -7.594  -6.051  0.00  0.00    +0.158 C 
ATOM      7  C   UNL     1       1.017  -8.652  -4.983  0.00  0.00    +0.129 C 
ATOM      8  N   UNL     1       0.315  -8.386  -3.732  0.00  0.00    -0.277 N 
ATOM      9  C   UNL     1       0.203  -7.132  -3.230  0.00  0.00    +0.267 C 
ATOM     10  O   UNL     1      -0.214  -6.926  -2.107  0.00  0.00    -0.268 OA
ATOM     11  C   UNL     1       2.522  -8.691  -4.707  0.00  0.00    +0.043 C 
ENDROOT
BRANCH   1  13
ATOM     12  N   UNL     1       0.834  -2.645  -2.567  0.00  0.00    -0.280 N 
ATOM     13  C   UNL     1       0.617  -3.974  -2.629  0.00  0.00    +0.269 C 
ATOM     14  O   UNL     1       0.268  -4.579  -1.634  0.00  0.00    -0.268 OA
ATOM     15  H   UNL     1       1.006  -2.144  -3.380  0.00  0.00    +0.155 HD
BRANCH  12  19
ATOM     16  C   UNL     1       2.015  -2.563   2.204  0.00  0.00    +0.045 C 
ATOM     17  C   UNL     1       1.376  -1.926   0.997  0.00  0.00    -0.035 A 
ATOM     18  C   UNL     1       1.400  -2.577  -0.221  0.00  0.00    +0.027 A 
ATOM     19  C   UNL     1       0.810  -1.989  -1.333  0.00  0.00    +0.034 A 
ATOM     20  C   UNL     1       0.198  -0.747  -1.216  0.00  0.00    +0.024 A 
ATOM     21  C   UNL     1       0.177  -0.101   0.004  0.00  0.00    +0.017 A 
ATOM     22  C   UNL     1       0.761  -0.692   1.112  0.00  0.00    +0.021 A 
ATOM     23 BR   UNL     1       0.723   0.192   2.783  0.00  0.00    -0.050 Br
ENDBRANCH  12  19
ENDBRANCH   1  13
BRANCH   7  24
ATOM     24  C   UNL     1       0.586  -9.998  -5.507  0.00  0.00    +0.238 C 
ATOM     25  O   UNL     1       1.415 -10.782  -5.918  0.00  0.00    -0.273 OA
ATOM     26  N   UNL     1      -0.720 -10.330  -5.518  0.00  0.00    -0.311 N 
ATOM     27  H   UNL     1      -1.389  -9.677  -5.258  0.00  0.00    +0.149 HD
BRANCH  26  28
ATOM     28  C   UNL     1      -1.130 -11.677  -5.922  0.00  0.00    +0.132 C 
BRANCH  28  29
ATOM     29  C   UNL     1      -2.654 -11.790  -5.846  0.00  0.00    +0.178 C 
BRANCH  29  30
ATOM     30  O   UNL     1      -3.245 -10.911  -6.806  0.00  0.00    -0.381 OA
ATOM     31  C   UNL     1      -4.674 -10.940  -6.818  0.00  0.00    +0.194 C 
ENDBRANCH  29  30
ENDBRANCH  28  29
ENDBRANCH  26  28
ENDBRANCH   7  24
BRANCH   8  32
ATOM     32  C   UNL     1      -0.284  -9.504  -2.999  0.00  0.00    +0.078 C 
ATOM     33  C   UNL     1      -1.326  -9.170  -1.930  0.00  0.00    +0.024 C 
ATOM     34  C   UNL     1       0.068  -9.647  -1.517  0.00  0.00    +0.024 C 
ENDBRANCH   8  32
TORSDOF 7
