REMARK  Name = ZINC55022891
REMARK  7 active torsions:
REMARK  status: ('A' for Active; 'I' for Inactive)
REMARK    1  A    between atoms: C_1  and  N_2
REMARK    2  A    between atoms: C_6  and  S_7
REMARK    3  A    between atoms: S_7  and  C_8
REMARK    4  A    between atoms: C_8  and  C_10
REMARK    5  A    between atoms: C_8  and  C_15
REMARK    6  A    between atoms: C_10  and  C_11
REMARK    7  A    between atoms: N_12  and  O_13
REMARK                            x       y       z     vdW  Elec       q    Type
REMARK                         _______ _______ _______ _____ _____    ______ ____
ROOT
ATOM      1  C   UNL     1       0.063  -1.917   3.688  0.00  0.00    +0.091 C 
ENDROOT
BRANCH   1   2
ATOM      2  C   UNL     1      -1.217  -2.670   3.431  0.00  0.00    -0.034 A 
ATOM      3  C   UNL     1      -2.432  -2.105   3.772  0.00  0.00    +0.005 A 
ATOM      4  C   UNL     1      -3.606  -2.796   3.537  0.00  0.00    +0.000 A 
ATOM      5  C   UNL     1      -3.565  -4.051   2.961  0.00  0.00    +0.000 A 
ATOM      6  C   UNL     1      -2.350  -4.616   2.620  0.00  0.00    +0.000 A 
ATOM      7  C   UNL     1      -1.177  -3.924   2.851  0.00  0.00    +0.005 A 
ENDBRANCH   1   2
BRANCH   1   8
ATOM      8  S   UNL     1       0.033  -0.347   2.779  0.00  0.00    -0.077 S 
BRANCH   8  14
ATOM      9  C   UNL     1      -0.018   1.461   0.010  0.00  0.00    +0.152 C 
ATOM     10  N   UNL     1       0.002  -0.004   0.002  0.00  0.00    -0.312 N 
ATOM     11  C   UNL     1       0.009  -0.824  -1.093  0.00  0.00    +0.225 A 
ATOM     12  N   UNL     1       0.028  -2.052  -0.657  0.00  0.00    -0.137 NA
ATOM     13  N   UNL     1       0.034  -2.064   0.628  0.00  0.00    -0.123 NA
ATOM     14  C   UNL     1       0.024  -0.834   1.086  0.00  0.00    +0.192 A 
ENDBRANCH   8  14
ENDBRANCH   1   8
BRANCH   1  15
ATOM     15  C   UNL     1       0.199  -1.636   5.186  0.00  0.00    +0.094 C 
BRANCH  15  16
ATOM     16  C   UNL     1       1.534  -0.993   5.457  0.00  0.00    +0.133 C 
ATOM     17  N   UNL     1       2.352  -0.765   4.483  0.00  0.00    -0.077 NA
ATOM     18  N   UNL     1       1.883  -0.647   6.744  0.00  0.00    -0.344 N 
ATOM     19  H   UNL     1       1.269  -0.818   7.475  0.00  0.00    +0.144 HD
ATOM     20  H   UNL     1       2.742  -0.233   6.919  0.00  0.00    +0.144 HD
BRANCH  17  21
ATOM     21  O   UNL     1       3.606  -0.161   4.738  0.00  0.00    -0.408 OA
ATOM     22  H   UNL     1       4.148  -0.031   3.948  0.00  0.00    +0.328 HD
ENDBRANCH  17  21
ENDBRANCH  15  16
ENDBRANCH   1  15
TORSDOF 6
