REMARK  Name = ZINC20849446
REMARK  6 active torsions:
REMARK  status: ('A' for Active; 'I' for Inactive)
REMARK    1  A    between atoms: C_1  and  C_2
REMARK    2  A    between atoms: C_6  and  C_18
REMARK    3  A    between atoms: N_8  and  C_9
REMARK    4  A    between atoms: C_18  and  N_20
REMARK    5  A    between atoms: C_21  and  C_24
REMARK    6  A    between atoms: C_24  and  O_25
REMARK                            x       y       z     vdW  Elec       q    Type
REMARK                         _______ _______ _______ _____ _____    ______ ____
ROOT
ATOM      1  C   UNL     1       0.547   7.264   0.071  0.00  0.00    +0.069 C 
ATOM      2  C   UNL     1       0.763   5.773   0.074  0.00  0.00    +0.081 A 
ATOM      3  C   UNL     1       2.053   5.263   0.073  0.00  0.00    +0.159 A 
ATOM      4  C   UNL     1       2.229   3.866   0.084  0.00  0.00    +0.027 A 
ATOM      5  C   UNL     1       3.582   3.306   0.096  0.00  0.00    +0.027 A 
ATOM      6  C   UNL     1       4.620   4.170   0.368  0.00  0.00    +0.064 A 
ATOM      7  C   UNL     1       4.275   5.583   0.625  0.00  0.00    +0.209 A 
ATOM      8  N   UNL     1       5.049   6.343   1.367  0.00  0.00    -0.323 N 
ATOM      9  O   UNL     1       3.135   6.076   0.064  0.00  0.00    -0.437 OA
ATOM     10  C   UNL     1       1.093   3.047   0.081  0.00  0.00    +0.007 A 
ATOM     11  C   UNL     1      -0.150   3.646   0.081  0.00  0.00    +0.117 A 
ATOM     12  N   UNL     1      -0.275   4.961   0.078  0.00  0.00    -0.256 NA
ATOM     13  H   UNL     1       6.013   5.958   1.730  0.00  0.00    +0.169 HD
ENDROOT
BRANCH   8  14
ATOM     14  C   UNL     1       4.657   7.614   1.687  0.00  0.00    +0.078 A 
ATOM     15  C   UNL     1       4.926   8.672   0.816  0.00  0.00    +0.031 A 
ATOM     16  C   UNL     1       4.527   9.951   1.144  0.00  0.00    +0.040 A 
ATOM     17  C   UNL     1       3.860  10.189   2.335  0.00  0.00    +0.126 A 
ATOM     18  C   UNL     1       3.590   9.146   3.204  0.00  0.00    +0.078 A 
ATOM     19  C   UNL     1       3.978   7.859   2.885  0.00  0.00    +0.149 A 
ATOM     20  F   UNL     1       3.709   6.840   3.731  0.00  0.00    -0.203 F 
ATOM     21  F   UNL     1       3.473  11.445   2.649  0.00  0.00    -0.205 F 
ENDBRANCH   8  14
BRANCH   6  22
ATOM     22  C   UNL     1       6.016   3.704   0.401  0.00  0.00    +0.082 C 
ATOM     23  S   UNL     1       6.376   2.058   0.098  0.00  0.00    -0.035 S 
BRANCH  22  24
ATOM     24  N   UNL     1       7.011   4.573   0.670  0.00  0.00    -0.352 N 
ATOM     25  H   UNL     1       8.054   4.224   0.695  0.00  0.00    +0.143 HD
ATOM     26  H   UNL     1       6.779   5.630   0.865  0.00  0.00    +0.143 HD
ENDBRANCH  22  24
ENDBRANCH   6  22
BRANCH  10  27
ATOM     27  C   UNL     1       1.225   1.546   0.084  0.00  0.00    +0.193 C 
BRANCH  27  28
ATOM     28  O   UNL     1      -0.075   0.953   0.086  0.00  0.00    -0.390 OA
ATOM     29  H   UNL     1      -0.181  -0.141   0.088  0.00  0.00    +0.210 HD
ENDBRANCH  27  28
ENDBRANCH  10  27
TORSDOF 5
