REMARK  Name = ZINC34906329
REMARK  8 active torsions:
REMARK  status: ('A' for Active; 'I' for Inactive)
REMARK    1  A    between atoms: C_5  and  O_7
REMARK    2  A    between atoms: O_7  and  C_8
REMARK    3  A    between atoms: C_8  and  C_9
REMARK    4  A    between atoms: C_11  and  C_14
REMARK    5  A    between atoms: N_16  and  C_17
REMARK    6  A    between atoms: C_17  and  C_18
REMARK    7  A    between atoms: C_18  and  N_19
REMARK    8  A    between atoms: N_22  and  C_23
REMARK                            x       y       z     vdW  Elec       q    Type
REMARK                         _______ _______ _______ _____ _____    ______ ____
ROOT
ATOM      1  C   UNL     1       0.653  -7.280   1.855  0.00  0.00    +0.263 C 
ATOM      2  O   UNL     1       0.826  -8.456   1.601  0.00  0.00    -0.269 OA
ATOM      3  N   UNL     1       0.598  -6.869   3.138  0.00  0.00    -0.309 N 
ATOM      4  H   UNL     1       0.460  -5.931   3.341  0.00  0.00    +0.149 HD
ENDROOT
BRANCH   1   7
ATOM      5  C   UNL     1       0.190  -4.199  -0.023  0.00  0.00    +0.116 A 
ATOM      6  N   UNL     1       0.313  -5.002   0.998  0.00  0.00    -0.236 NA
ATOM      7  C   UNL     1       0.504  -6.304   0.763  0.00  0.00    +0.133 A 
ATOM      8  C   UNL     1       0.553  -6.676  -0.554  0.00  0.00    +0.080 A 
ATOM      9  S   UNL     1       0.327  -5.215  -1.352  0.00  0.00    -0.076 S 
BRANCH   5  10
ATOM     10  C   UNL     1      -0.030  -2.708  -0.013  0.00  0.00    +0.291 C 
BRANCH  10  11
ATOM     11  O   UNL     1       1.233  -2.040  -0.022  0.00  0.00    -0.482 OA
BRANCH  11  16
ATOM     12  C   UNL     1      -0.017   1.378   0.010  0.00  0.00    +0.004 A 
ATOM     13  C   UNL     1       1.170   2.087   0.002  0.00  0.00    +0.003 A 
ATOM     14  C   UNL     1       2.379   1.417  -0.013  0.00  0.00    +0.042 A 
ATOM     15  C   UNL     1       2.404   0.034  -0.022  0.00  0.00    +0.165 A 
ATOM     16  C   UNL     1       1.212  -0.680  -0.014  0.00  0.00    +0.156 A 
ATOM     17  C   UNL     1       0.002  -0.004   0.002  0.00  0.00    +0.048 A 
ATOM     18  F   UNL     1       3.585  -0.622  -0.038  0.00  0.00    -0.202 F 
ENDBRANCH  11  16
ENDBRANCH  10  11
ENDBRANCH   5  10
ENDBRANCH   1   7
BRANCH   3  19
ATOM     19  C   UNL     1       0.746  -7.840   4.225  0.00  0.00    +0.123 C 
BRANCH  19  20
ATOM     20  C   UNL     1       0.645  -7.119   5.571  0.00  0.00    +0.124 C 
BRANCH  20  21
ATOM     21  N   UNL     1       0.793  -8.089   6.657  0.00  0.00    -0.298 N 
ATOM     22  C   UNL     1       0.738  -7.679   7.940  0.00  0.00    +0.300 C 
ATOM     23  O   UNL     1       0.566  -6.503   8.195  0.00  0.00    -0.253 OA
ATOM     24  N   UNL     1       0.875  -8.572   8.940  0.00  0.00    -0.294 N 
ATOM     25  H   UNL     1       0.931  -9.028   6.454  0.00  0.00    +0.150 HD
ATOM     26  H   UNL     1       1.012  -9.511   8.737  0.00  0.00    +0.151 HD
BRANCH  24  27
ATOM     27  C   UNL     1       0.815  -8.126  10.334  0.00  0.00    +0.037 C 
ATOM     28  C   UNL     1       1.929  -7.109  10.592  0.00  0.00    +0.029 C 
ATOM     29  C   UNL     1       1.866  -6.643  12.048  0.00  0.00    -0.008 C 
ATOM     30  C   UNL     1       2.048  -7.845  12.977  0.00  0.00    +0.007 C 
ATOM     31  C   UNL     1       0.934  -8.862  12.719  0.00  0.00    -0.008 C 
ATOM     32  C   UNL     1       0.997  -9.328  11.263  0.00  0.00    +0.029 C 
ATOM     33  C   UNL     1      -0.424  -8.210  12.988  0.00  0.00    +0.007 C 
ATOM     34  C   UNL     1      -0.606  -7.008  12.059  0.00  0.00    -0.008 C 
ATOM     35  C   UNL     1       0.508  -5.991  12.317  0.00  0.00    +0.007 C 
ATOM     36  C   UNL     1      -0.543  -7.474  10.603  0.00  0.00    +0.029 C 
ENDBRANCH  24  27
ENDBRANCH  20  21
ENDBRANCH  19  20
ENDBRANCH   3  19
TORSDOF 8
