REMARK  Name = ZINC54105629
REMARK  7 active torsions:
REMARK  status: ('A' for Active; 'I' for Inactive)
REMARK    1  A    between atoms: C_1  and  C_2
REMARK    2  A    between atoms: C_2  and  C_3
REMARK    3  A    between atoms: C_3  and  C_5
REMARK    4  A    between atoms: C_3  and  N_10
REMARK    5  A    between atoms: N_10  and  C_11
REMARK    6  A    between atoms: C_15  and  C_17
REMARK    7  A    between atoms: N_21  and  C_22
REMARK                            x       y       z     vdW  Elec       q    Type
REMARK                         _______ _______ _______ _____ _____    ______ ____
ROOT
ATOM      1  C   UNL     1       0.888   1.137  -3.528  0.00  0.00    +0.028 A 
ATOM      2  C   UNL     1       1.817   2.070  -3.083  0.00  0.00    +0.023 A 
ATOM      3  C   UNL     1       1.807   3.357  -3.587  0.00  0.00    +0.002 A 
ATOM      4  C   UNL     1       0.874   3.724  -4.536  0.00  0.00    +0.012 A 
ATOM      5  C   UNL     1      -0.062   2.795  -4.989  0.00  0.00    +0.021 A 
ATOM      6  C   UNL     1      -0.049   1.495  -4.485  0.00  0.00    +0.034 A 
ENDROOT
BRANCH   5   7
ATOM      7  C   UNL     1      -1.063   3.186  -6.006  0.00  0.00    +0.164 A 
ATOM      8  N   UNL     1      -1.735   2.377  -6.795  0.00  0.00    -0.129 NA
ATOM      9  N   UNL     1      -2.518   3.059  -7.552  0.00  0.00    -0.138 NA
ATOM     10  C   UNL     1      -2.392   4.333  -7.294  0.00  0.00    +0.225 A 
ATOM     11  N   UNL     1      -1.470   4.459  -6.301  0.00  0.00    -0.317 N 
ATOM     12  C   UNL     1      -1.007   5.701  -5.677  0.00  0.00    +0.152 C 
ENDBRANCH   5   7
BRANCH   1  13
ATOM     13  N   UNL     1       0.903  -0.163  -3.016  0.00  0.00    -0.334 N 
ATOM     14  H   UNL     1       0.257  -0.815  -3.330  0.00  0.00    +0.147 HD
BRANCH  13  15
ATOM     15  C   UNL     1       1.893  -0.540  -2.005  0.00  0.00    +0.136 C 
BRANCH  15  16
ATOM     16  C   UNL     1       2.125  -2.029  -2.061  0.00  0.00    +0.125 A 
ATOM     17  C   UNL     1       3.314  -2.645  -1.929  0.00  0.00    +0.046 A 
ATOM     18  C   UNL     1       3.070  -4.033  -2.046  0.00  0.00    +0.041 A 
ATOM     19  C   UNL     1       1.748  -4.181  -2.243  0.00  0.00    +0.195 A 
ATOM     20  O   UNL     1       1.180  -2.965  -2.245  0.00  0.00    -0.466 OA
ENDBRANCH  15  16
BRANCH  15  22
ATOM     21  C   UNL     1       1.260   1.366  -0.520  0.00  0.00    +0.006 C 
ATOM     22  C   UNL     1       1.377  -0.157  -0.617  0.00  0.00    +0.027 C 
ENDBRANCH  15  22
ENDBRANCH  13  15
ENDBRANCH   1  13
TORSDOF 5
