REMARK  Name = ZINC13473720
REMARK  7 active torsions:
REMARK  status: ('A' for Active; 'I' for Inactive)
REMARK    1  A    between atoms: C_4  and  C_7
REMARK    2  A    between atoms: C_12  and  C_13
REMARK    3  A    between atoms: C_12  and  N_63
REMARK    4  A    between atoms: C_13  and  C_14
REMARK    5  A    between atoms: C_14  and  C_15
REMARK    6  A    between atoms: C_15  and  C_16
REMARK    7  A    between atoms: C_25  and  C_26
REMARK                            x       y       z     vdW  Elec       q    Type
REMARK                         _______ _______ _______ _____ _____    ______ ____
ROOT
ATOM      1  C   UNL     1      -0.324   0.797   7.409  0.00  0.00    +0.074 C 
ATOM      2  C   UNL     1      -0.788  -0.652   7.438  0.00  0.00    +0.021 C 
ATOM      3  C   UNL     1      -2.174  -0.868   7.980  0.00  0.00    +0.006 C 
ATOM      4  C   UNL     1      -2.978   0.377   8.342  0.00  0.00    +0.036 C 
ATOM      5  C   UNL     1      -2.125   1.307   9.151  0.00  0.00    -0.029 A 
ATOM      6  C   UNL     1      -0.843   1.435   8.669  0.00  0.00    -0.007 A 
ATOM      7  C   UNL     1       0.202   2.073   9.317  0.00  0.00    +0.038 A 
ATOM      8  C   UNL     1      -0.093   2.776  10.490  0.00  0.00    +0.024 A 
ATOM      9  C   UNL     1      -1.400   2.732  10.950  0.00  0.00    +0.015 A 
ATOM     10  C   UNL     1      -2.417   2.000  10.312  0.00  0.00    +0.040 A 
ATOM     11  N   UNL     1       1.371   1.782   8.651  0.00  0.00    -0.284 N 
ATOM     12  C   UNL     1       1.171   0.968   7.581  0.00  0.00    +0.228 C 
ATOM     13  O   UNL     1       2.033   0.469   6.890  0.00  0.00    -0.274 OA
ATOM     14  H   UNL     1       2.240   2.120   8.915  0.00  0.00    +0.155 HD
ENDROOT
BRANCH  10  15
ATOM     15  C   UNL     1      -3.781   1.971  10.875  0.00  0.00    +0.242 C 
ATOM     16  O   UNL     1      -4.655   1.335  10.318  0.00  0.00    -0.270 OA
ATOM     17  N   UNL     1      -4.058   2.649  12.006  0.00  0.00    -0.325 N 
ATOM     18  H   UNL     1      -3.360   3.156  12.450  0.00  0.00    +0.145 HD
ATOM     19  H   UNL     1      -4.954   2.630  12.376  0.00  0.00    +0.145 HD
ENDBRANCH  10  15
BRANCH   1  20
ATOM     20  C   UNL     1      -0.830   1.521   6.159  0.00  0.00    +0.021 C 
BRANCH  20  21
ATOM     21  C   UNL     1      -0.273   0.834   4.911  0.00  0.00    -0.000 C 
BRANCH  21  22
ATOM     22  C   UNL     1      -0.780   1.557   3.661  0.00  0.00    -0.019 C 
BRANCH  22  23
ATOM     23  C   UNL     1      -0.223   0.870   2.413  0.00  0.00    -0.078 C 
BRANCH  23  29
ATOM     24  C   UNL     1      -1.020   3.071  -1.087  0.00  0.00    -0.048 C 
ATOM     25  C   UNL     1      -0.931   3.702   0.063  0.00  0.00    -0.041 C 
ATOM     26  C   UNL     1      -0.557   3.018   1.346  0.00  0.00    -0.051 C 
ATOM     27  C   UNL     1      -0.013   1.086   0.008  0.00  0.00    -0.074 C 
ATOM     28  C   UNL     1      -0.761   1.597  -1.226  0.00  0.00    +0.017 C 
ATOM     29  N   UNL     1      -0.734   1.561   1.207  0.00  0.00    +0.382 N 
ATOM     30  H   UNL     1      -1.733   1.353   1.101  0.00  0.00    -0.081 HD
BRANCH  24  34
ATOM     31  C   UNL     1      -2.080   5.287  -4.552  0.00  0.00    +0.000 A 
ATOM     32  C   UNL     1      -0.888   5.553  -3.903  0.00  0.00    +0.001 A 
ATOM     33  C   UNL     1      -0.538   4.836  -2.777  0.00  0.00    +0.008 A 
ATOM     34  C   UNL     1      -1.389   3.842  -2.293  0.00  0.00    -0.022 A 
ATOM     35  C   UNL     1      -2.588   3.576  -2.955  0.00  0.00    +0.008 A 
ATOM     36  C   UNL     1      -2.929   4.303  -4.077  0.00  0.00    +0.001 A 
ENDBRANCH  24  34
ENDBRANCH  23  29
ENDBRANCH  22  23
ENDBRANCH  21  22
ENDBRANCH  20  21
ENDBRANCH   1  20
TORSDOF 7
