REMARK  Name = ZINC15946667
REMARK  11 active torsions:
REMARK  status: ('A' for Active; 'I' for Inactive)
REMARK    1  A    between atoms: C_1  and  C_2
REMARK    2  A    between atoms: C_2  and  C_3
REMARK    3  A    between atoms: C_2  and  C_4
REMARK    4  A    between atoms: C_4  and  N_54
REMARK    5  A    between atoms: C_5  and  C_6
REMARK    6  A    between atoms: C_5  and  N_54
REMARK    7  A    between atoms: N_8  and  C_9
REMARK    8  A    between atoms: C_10  and  C_17
REMARK    9  A    between atoms: N_19  and  C_20
REMARK   10  A    between atoms: C_25  and  O_26
REMARK   11  A    between atoms: O_26  and  C_27
REMARK                            x       y       z     vdW  Elec       q    Type
REMARK                         _______ _______ _______ _____ _____    ______ ____
ROOT
ATOM      1  C   UNL     1       1.178   2.186   0.004  0.00  0.00    +0.084 A 
ATOM      2  C   UNL     1      -0.002   1.462   0.009  0.00  0.00    +0.069 A 
ATOM      3  C   UNL     1      -1.257   2.213   0.017  0.00  0.00    -0.023 A 
ATOM      4  C   UNL     1      -1.122   3.551   0.031  0.00  0.00    -0.004 A 
ATOM      5  S   UNL     1       0.632   3.829   0.017  0.00  0.00    -0.077 S 
ATOM      6  C   UNL     1      -2.453   4.253   0.050  0.00  0.00    +0.043 C 
ATOM      7  C   UNL     1      -3.460   3.166   0.487  0.00  0.00    +0.010 C 
ATOM      8  C   UNL     1      -2.749   1.877   0.029  0.00  0.00    +0.037 C 
ENDROOT
BRANCH   1  11
ATOM      9  C   UNL     1       3.513   2.576  -0.014  0.00  0.00    +0.201 C 
ATOM     10  O   UNL     1       3.304   3.771  -0.005  0.00  0.00    -0.278 OA
ATOM     11  N   UNL     1       2.480   1.711  -0.010  0.00  0.00    -0.281 N 
ATOM     12  H   UNL     1       2.648   0.755  -0.017  0.00  0.00    +0.155 HD
BRANCH   9  13
ATOM     13  C   UNL     1       4.929   2.060  -0.029  0.00  0.00    +0.015 C 
BRANCH  13  14
ATOM     14  N   UNL     1       5.861   3.203  -0.030  0.00  0.00    +0.385 N 
ATOM     15  H   UNL     1       5.691   3.778  -0.864  0.00  0.00    -0.085 HD
ATOM     16  H   UNL     1       5.705   3.768   0.813  0.00  0.00    -0.085 HD
BRANCH  14  17
ATOM     17  C   UNL     1       7.257   2.726  -0.044  0.00  0.00    -0.079 C 
BRANCH  17  19
ATOM     18  C   UNL     1       9.646   3.449   0.066  0.00  0.00    +0.005 C 
ATOM     19  C   UNL     1       8.198   3.932  -0.045  0.00  0.00    -0.034 C 
ATOM     20  C   UNL     1       8.021   4.717  -1.347  0.00  0.00    +0.005 C 
ENDBRANCH  17  19
ENDBRANCH  14  17
ENDBRANCH  13  14
ENDBRANCH   9  13
ENDBRANCH   1  11
BRANCH   2  21
ATOM     21  C   UNL     1       0.006  -0.004   0.002  0.00  0.00    +0.251 C 
ATOM     22  O   UNL     1       0.017  -0.618   1.053  0.00  0.00    -0.270 OA
ATOM     23  N   UNL     1       0.001  -0.672  -1.169  0.00  0.00    -0.278 N 
ATOM     24  H   UNL     1      -0.089  -0.186  -2.004  0.00  0.00    +0.155 HD
BRANCH  23  25
ATOM     25  C   UNL     1       0.125  -2.067  -1.180  0.00  0.00    +0.077 A 
ATOM     26  C   UNL     1       0.749  -2.717  -0.125  0.00  0.00    +0.047 A 
ATOM     27  C   UNL     1       0.866  -4.096  -0.136  0.00  0.00    +0.043 A 
ATOM     28  C   UNL     1       0.371  -4.827  -1.202  0.00  0.00    +0.024 A 
ATOM     29  C   UNL     1      -0.246  -4.183  -2.258  0.00  0.00    +0.049 A 
ATOM     30  C   UNL     1      -0.372  -2.804  -2.252  0.00  0.00    +0.141 A 
ATOM     31 CL   UNL     1       1.640  -4.909   1.188  0.00  0.00    -0.083 Cl
BRANCH  30  32
ATOM     32  O   UNL     1      -0.979  -2.170  -3.291  0.00  0.00    -0.493 OA
ATOM     33  C   UNL     1      -1.464  -2.990  -4.357  0.00  0.00    +0.277 C 
ENDBRANCH  30  32
ENDBRANCH  23  25
ENDBRANCH   2  21
TORSDOF 8
