REMARK  Name = ZINC61712753
REMARK  6 active torsions:
REMARK  status: ('A' for Active; 'I' for Inactive)
REMARK    1  A    between atoms: C_2  and  N_20
REMARK    2  A    between atoms: C_5  and  S_9
REMARK    3  A    between atoms: C_6  and  N_7
REMARK    4  A    between atoms: N_7  and  N_8
REMARK    5  A    between atoms: S_9  and  N_12
REMARK    6  A    between atoms: C_15  and  O_18
REMARK                            x       y       z     vdW  Elec       q    Type
REMARK                         _______ _______ _______ _____ _____    ______ ____
ROOT
ATOM      1  C   UNL     1       0.062   1.438   0.327  0.00  0.00    +0.059 A 
ATOM      2  C   UNL     1       1.243   2.090   0.030  0.00  0.00    +0.131 A 
ATOM      3  C   UNL     1       2.372   1.364  -0.301  0.00  0.00    +0.073 A 
ATOM      4  C   UNL     1       2.322  -0.020  -0.338  0.00  0.00    +0.154 A 
ATOM      5  C   UNL     1       1.142  -0.678  -0.043  0.00  0.00    +0.162 A 
ATOM      6  C   UNL     1       0.008   0.050   0.291  0.00  0.00    +0.072 A 
ATOM      7  F   UNL     1       3.427  -0.727  -0.663  0.00  0.00    -0.203 F 
ENDROOT
BRANCH   5   8
ATOM      8  S   UNL     1       1.078  -2.438  -0.090  0.00  0.00    +0.065 S 
ATOM      9  O   UNL     1      -0.230  -2.786  -0.523  0.00  0.00    -0.153 OA
ATOM     10  O   UNL     1       2.247  -2.869  -0.775  0.00  0.00    -0.153 OA
BRANCH   8  11
ATOM     11  N   UNL     1       1.219  -2.976   1.470  0.00  0.00    -0.174 NA
ATOM     12  C   UNL     1       2.483  -3.289   2.160  0.00  0.00    +0.112 C 
ATOM     13  C   UNL     1       2.162  -3.131   3.667  0.00  0.00    +0.050 C 
ATOM     14  C   UNL     1       0.713  -3.682   3.736  0.00  0.00    +0.131 C 
ATOM     15  C   UNL     1       0.104  -3.214   2.397  0.00  0.00    +0.140 C 
BRANCH  14  16
ATOM     16  O   UNL     1       0.718  -5.109   3.827  0.00  0.00    -0.390 OA
ATOM     17  H   UNL     1       1.160  -5.450   4.617  0.00  0.00    +0.210 HD
ENDBRANCH  14  16
ENDBRANCH   8  11
ENDBRANCH   5   8
BRANCH   2  18
ATOM     18  N   UNL     1       1.300   3.568   0.068  0.00  0.00    +0.057 N 
ATOM     19  O   UNL     1       0.313   4.204   0.357  0.00  0.00    -0.126 OA
ATOM     20  O   UNL     1       2.333   4.141  -0.191  0.00  0.00    -0.126 OA
ENDBRANCH   2  18
BRANCH   6  21
ATOM     21  N   UNL     1      -1.185  -0.612   0.591  0.00  0.00    -0.281 N 
ATOM     22  H   UNL     1      -1.202  -1.580   0.645  0.00  0.00    +0.166 HD
BRANCH  21  23
ATOM     23  N   UNL     1      -2.328   0.105   0.808  0.00  0.00    -0.256 NA
ATOM     24  H   UNL     1      -3.104  -0.506   1.012  0.00  0.00    +0.140 HD
ATOM     25  H   UNL     1      -2.196   0.781   1.545  0.00  0.00    +0.140 HD
ENDBRANCH  21  23
ENDBRANCH   6  21
TORSDOF 6
