REMARK  Name = ZINC66886030
REMARK  12 active torsions:
REMARK  status: ('A' for Active; 'I' for Inactive)
REMARK    1  A    between atoms: C_1  and  C_2
REMARK    2  A    between atoms: C_2  and  C_3
REMARK    3  A    between atoms: C_2  and  C_4
REMARK    4  A    between atoms: C_4  and  C_6
REMARK    5  A    between atoms: C_4  and  N_13
REMARK    6  A    between atoms: N_8  and  C_9
REMARK    7  A    between atoms: C_9  and  C_10
REMARK    8  A    between atoms: C_9  and  C_11
REMARK    9  A    between atoms: C_9  and  C_12
REMARK   10  A    between atoms: C_16  and  N_19
REMARK   11  A    between atoms: C_20  and  C_22
REMARK   12  A    between atoms: C_22  and  C_23
REMARK                            x       y       z     vdW  Elec       q    Type
REMARK                         _______ _______ _______ _____ _____    ______ ____
ROOT
ATOM      1  N   UNL     1      -1.697  -1.949   0.282  0.00  0.00    +0.388 N 
ATOM      2  C   UNL     1      -1.054  -2.426   1.513  0.00  0.00    -0.076 C 
ATOM      3  C   UNL     1      -1.336  -3.919   1.695  0.00  0.00    +0.004 C 
ATOM      4  C   UNL     1      -2.848  -4.139   1.789  0.00  0.00    +0.069 C 
ATOM      5  C   UNL     1      -3.516  -3.571   0.533  0.00  0.00    +0.004 C 
ATOM      6  C   UNL     1      -3.153  -2.091   0.394  0.00  0.00    -0.076 C 
ATOM      7  H   UNL     1      -1.366  -2.493  -0.500  0.00  0.00    -0.081 HD
ENDROOT
BRANCH   4   8
ATOM      8  N   UNL     1      -3.129  -5.574   1.886  0.00  0.00    -0.313 N 
ATOM      9  C   UNL     1      -4.268  -6.000   2.467  0.00  0.00    +0.213 C 
ATOM     10  O   UNL     1      -5.061  -5.195   2.908  0.00  0.00    -0.276 OA
ATOM     11  H   UNL     1      -2.494  -6.217   1.533  0.00  0.00    +0.149 HD
BRANCH   9  12
ATOM     12  C   UNL     1      -4.557  -7.475   2.567  0.00  0.00    +0.099 C 
BRANCH  12  13
ATOM     13  C   UNL     1      -5.903  -7.686   3.263  0.00  0.00    -0.002 C 
ATOM     14  C   UNL     1      -5.813  -7.191   4.708  0.00  0.00    +0.004 C 
ATOM     15  C   UNL     1      -7.159  -7.401   5.404  0.00  0.00    +0.000 C 
ATOM     16  C   UNL     1      -7.511  -8.890   5.396  0.00  0.00    +0.000 C 
ATOM     17  C   UNL     1      -7.601  -9.384   3.950  0.00  0.00    +0.000 C 
ATOM     18  C   UNL     1      -6.255  -9.175   3.255  0.00  0.00    +0.004 C 
ENDBRANCH  12  13
ENDBRANCH   9  12
ENDBRANCH   4   8
BRANCH   1  19
ATOM     19  C   UNL     1      -1.359  -0.535   0.072  0.00  0.00    +0.022 C 
BRANCH  19  20
ATOM     20  C   UNL     1      -2.017  -0.044  -1.192  0.00  0.00    +0.200 C 
ATOM     21  O   UNL     1      -2.361  -0.837  -2.044  0.00  0.00    -0.278 OA
ATOM     22  N   UNL     1      -2.224   1.275  -1.376  0.00  0.00    -0.312 N 
ATOM     23  H   UNL     1      -1.882   1.914  -0.732  0.00  0.00    +0.149 HD
BRANCH  22  24
ATOM     24  C   UNL     1      -2.964   1.743  -2.550  0.00  0.00    +0.026 C 
ATOM     25  C   UNL     1      -4.373   1.147  -2.536  0.00  0.00    +0.031 C 
ATOM     26  C   UNL     1      -3.056   3.270  -2.519  0.00  0.00    +0.031 C 
ATOM     27  C   UNL     1      -2.237   1.302  -3.822  0.00  0.00    +0.031 C 
ENDBRANCH  22  24
ENDBRANCH  19  20
BRANCH  19  29
ATOM     28  C   UNL     1       0.639  -1.099  -1.319  0.00  0.00    +0.006 C 
ATOM     29  C   UNL     1       0.159  -0.386  -0.053  0.00  0.00    -0.022 C 
ATOM     30  C   UNL     1       0.520   1.098  -0.135  0.00  0.00    +0.006 C 
ENDBRANCH  19  29
ENDBRANCH   1  19
TORSDOF 7
