REMARK  Name = ZINC03355403
REMARK  8 active torsions:
REMARK  status: ('A' for Active; 'I' for Inactive)
REMARK    1  A    between atoms: C_4  and  C_7
REMARK    2  A    between atoms: C_8  and  S_9
REMARK    3  A    between atoms: S_9  and  N_12
REMARK    4  A    between atoms: N_12  and  C_13
REMARK    5  A    between atoms: C_13  and  C_14
REMARK    6  A    between atoms: C_14  and  O_16
REMARK    7  A    between atoms: O_16  and  C_17
REMARK    8  A    between atoms: C_17  and  C_18
REMARK                            x       y       z     vdW  Elec       q    Type
REMARK                         _______ _______ _______ _____ _____    ______ ____
ROOT
ATOM      1  C   UNL     1       4.963  -5.602   2.807  0.00  0.00    +0.323 C 
ATOM      2  O   UNL     1       6.014  -5.309   3.326  0.00  0.00    -0.249 OA
ENDROOT
BRANCH   1   3
ATOM      3  C   UNL     1       4.436  -4.782   1.658  0.00  0.00    +0.226 C 
BRANCH   3   4
ATOM      4  N   UNL     1       5.374  -3.696   1.362  0.00  0.00    -0.180 NA
ATOM      5  H   UNL     1       6.064  -3.464   2.003  0.00  0.00    +0.149 HD
BRANCH   4   6
ATOM      6  S   UNL     1       5.256  -2.867  -0.066  0.00  0.00    +0.052 S 
ATOM      7  O   UNL     1       5.165  -3.841  -1.096  0.00  0.00    -0.154 OA
ATOM      8  O   UNL     1       6.273  -1.874  -0.044  0.00  0.00    -0.154 OA
BRANCH   6  10
ATOM      9  C   UNL     1       3.695  -0.685  -0.038  0.00  0.00    +0.028 C 
ATOM     10  C   UNL     1       3.716  -2.010  -0.046  0.00  0.00    +0.153 C 
BRANCH   9  14
ATOM     11  C   UNL     1      -0.017   1.379   0.010  0.00  0.00    +0.000 A 
ATOM     12  C   UNL     1       1.168   2.093   0.002  0.00  0.00    +0.001 A 
ATOM     13  C   UNL     1       2.377   1.429  -0.013  0.00  0.00    +0.008 A 
ATOM     14  C   UNL     1       2.403   0.034  -0.021  0.00  0.00    -0.024 A 
ATOM     15  C   UNL     1       1.204  -0.681  -0.013  0.00  0.00    +0.008 A 
ATOM     16  C   UNL     1       0.002  -0.004   0.002  0.00  0.00    +0.001 A 
ENDBRANCH   9  14
ENDBRANCH   6  10
ENDBRANCH   4   6
ENDBRANCH   3   4
ENDBRANCH   1   3
BRANCH   1  17
ATOM     17  O   UNL     1       4.264  -6.657   3.255  0.00  0.00    -0.454 OA
BRANCH  17  18
ATOM     18  C   UNL     1       4.823  -7.389   4.347  0.00  0.00    +0.328 C 
BRANCH  18  19
ATOM     19  C   UNL     1       3.906  -8.529   4.709  0.00  0.00    +0.258 C 
ATOM     20  O   UNL     1       2.876  -8.698   4.092  0.00  0.00    -0.271 OA
ATOM     21  N   UNL     1       4.232  -9.361   5.719  0.00  0.00    -0.258 N 
ATOM     22  C   UNL     1       5.472  -9.174   6.486  0.00  0.00    +0.209 C 
ATOM     23  C   UNL     1       6.111 -10.519   6.723  0.00  0.00    +0.235 C 
ATOM     24  O   UNL     1       7.315 -10.598   6.841  0.00  0.00    -0.274 OA
ATOM     25  N   UNL     1       5.360 -11.634   6.806  0.00  0.00    -0.283 N 
ATOM     26  C   UNL     1       3.974 -11.578   6.625  0.00  0.00    +0.055 A 
ATOM     27  C   UNL     1       3.394 -10.430   6.075  0.00  0.00    +0.058 A 
ATOM     28  C   UNL     1       2.026 -10.359   5.887  0.00  0.00    +0.025 A 
ATOM     29  C   UNL     1       1.227 -11.428   6.252  0.00  0.00    +0.002 A 
ATOM     30  C   UNL     1       1.793 -12.563   6.803  0.00  0.00    +0.002 A 
ATOM     31  C   UNL     1       3.168 -12.646   6.986  0.00  0.00    +0.025 A 
ATOM     32  H   UNL     1       5.785 -12.485   6.994  0.00  0.00    +0.155 HD
ENDBRANCH  18  19
ENDBRANCH  17  18
ENDBRANCH   1  17
TORSDOF 8
