REMARK  Name = ZINC12082996
REMARK  8 active torsions:
REMARK  status: ('A' for Active; 'I' for Inactive)
REMARK    1  A    between atoms: C_1  and  C_2
REMARK    2  A    between atoms: C_2  and  C_3
REMARK    3  A    between atoms: C_3  and  N_4
REMARK    4  A    between atoms: C_7  and  N_17
REMARK    5  A    between atoms: C_12  and  C_16
REMARK    6  A    between atoms: C_18  and  C_20
REMARK    7  A    between atoms: C_21  and  C_22
REMARK    8  A    between atoms: C_25  and  C_28
REMARK                            x       y       z     vdW  Elec       q    Type
REMARK                         _______ _______ _______ _____ _____    ______ ____
ROOT
ATOM      1  N   UNL     1      -2.460   3.804  -0.325  0.00  0.00    -0.265 N 
ATOM      2  C   UNL     1      -1.234   3.142  -0.160  0.00  0.00    +0.080 A 
ATOM      3  C   UNL     1      -0.044   3.849  -0.163  0.00  0.00    +0.050 A 
ATOM      4  C   UNL     1       1.159   3.175   0.002  0.00  0.00    +0.036 A 
ATOM      5  C   UNL     1       1.166   1.796   0.171  0.00  0.00    +0.027 A 
ATOM      6  C   UNL     1      -0.023   1.090   0.174  0.00  0.00    +0.049 A 
ATOM      7  C   UNL     1      -1.224   1.758   0.003  0.00  0.00    +0.143 A 
ATOM      8  O   UNL     1      -2.402   1.076   0.013  0.00  0.00    -0.478 OA
ATOM      9  C   UNL     1      -3.538   1.758   0.551  0.00  0.00    +0.256 C 
ATOM     10  C   UNL     1      -3.602   3.156  -0.008  0.00  0.00    +0.260 C 
ATOM     11  O   UNL     1      -4.675   3.698  -0.171  0.00  0.00    -0.271 OA
ATOM     12  C   UNL     1      -3.417   1.823   2.075  0.00  0.00    +0.062 C 
ENDROOT
BRANCH   4  13
ATOM     13  N   UNL     1       2.365   3.885  -0.001  0.00  0.00    -0.282 N 
ATOM     14  C   UNL     1       2.412   5.136   0.499  0.00  0.00    +0.241 C 
ATOM     15  O   UNL     1       1.430   5.613   1.038  0.00  0.00    -0.270 OA
ATOM     16  H   UNL     1       3.168   3.477  -0.362  0.00  0.00    +0.155 HD
BRANCH  14  17
ATOM     17  C   UNL     1       3.642   5.921   0.392  0.00  0.00    +0.068 C 
ATOM     18  C   UNL     1       3.689   7.173   0.891  0.00  0.00    +0.013 C 
BRANCH  18  19
ATOM     19  C   UNL     1       4.926   7.963   0.783  0.00  0.00    -0.025 A 
ATOM     20  C   UNL     1       6.058   7.416   0.169  0.00  0.00    +0.008 A 
ATOM     21  C   UNL     1       7.211   8.165   0.067  0.00  0.00    +0.004 A 
ATOM     22  C   UNL     1       7.255   9.449   0.580  0.00  0.00    -0.050 A 
ATOM     23  C   UNL     1       6.141   9.995   1.195  0.00  0.00    +0.004 A 
ATOM     24  C   UNL     1       4.979   9.261   1.300  0.00  0.00    +0.008 A 
ATOM     25  C   UNL     1       8.522  10.258   0.470  0.00  0.00    +0.044 C 
ENDBRANCH  18  19
ENDBRANCH  14  17
ENDBRANCH   4  13
BRANCH   1  26
ATOM     26  C   UNL     1      -2.500   5.176  -0.835  0.00  0.00    +0.113 C 
BRANCH  26  28
ATOM     27  C   UNL     1      -2.646   6.584  -2.894  0.00  0.00    +0.005 C 
ATOM     28  C   UNL     1      -2.604   5.151  -2.362  0.00  0.00    +0.016 C 
ENDBRANCH  26  28
ENDBRANCH   1  26
TORSDOF 5
