REMARK  Name = ZINC04126730
REMARK  6 active torsions:
REMARK  status: ('A' for Active; 'I' for Inactive)
REMARK    1  A    between atoms: C_1  and  C_2
REMARK    2  A    between atoms: C_3  and  S_12
REMARK    3  A    between atoms: S_12  and  N_15
REMARK    4  A    between atoms: N_15  and  C_16
REMARK    5  A    between atoms: C_16  and  C_17
REMARK    6  A    between atoms: C_17  and  C_18
REMARK                            x       y       z     vdW  Elec       q    Type
REMARK                         _______ _______ _______ _____ _____    ______ ____
ROOT
ATOM      1  S   UNL     1       1.889   1.974  -0.075  0.00  0.00    +0.065 S 
ATOM      2  O   UNL     1       2.889   0.975   0.074  0.00  0.00    -0.153 OA
ATOM      3  O   UNL     1       1.991   3.016  -1.036  0.00  0.00    -0.153 OA
ENDROOT
BRANCH   1   6
ATOM      4  C   UNL     1       2.470   0.646   2.560  0.00  0.00    +0.065 C 
ATOM      5  C   UNL     1       2.001   2.076   2.629  0.00  0.00    +0.049 A 
ATOM      6  C   UNL     1       1.716   2.752   1.496  0.00  0.00    +0.188 A 
ATOM      7  C   UNL     1       1.271   4.093   1.587  0.00  0.00    +0.281 A 
ATOM      8  O   UNL     1       1.004   4.721   0.579  0.00  0.00    -0.266 OA
ATOM      9  N   UNL     1       1.146   4.668   2.800  0.00  0.00    -0.273 N 
ATOM     10  H   UNL     1       0.833   5.614   2.873  0.00  0.00    +0.173 HD
ATOM     11  C   UNL     1       1.442   3.972   3.914  0.00  0.00    +0.327 A 
ATOM     12  O   UNL     1       1.324   4.503   5.001  0.00  0.00    -0.247 OA
ATOM     13  N   UNL     1       1.865   2.697   3.841  0.00  0.00    -0.310 N 
ATOM     14  H   UNL     1       2.083   2.199   4.680  0.00  0.00    +0.170 HD
ENDBRANCH   1   6
BRANCH   1  15
ATOM     15  N   UNL     1       0.470   1.179  -0.387  0.00  0.00    -0.190 NA
ATOM     16  H   UNL     1       0.460   0.211  -0.450  0.00  0.00    +0.148 HD
BRANCH  15  17
ATOM     17  C   UNL     1      -0.768   1.939  -0.575  0.00  0.00    +0.106 C 
BRANCH  17  18
ATOM     18  C   UNL     1      -1.828   1.038  -1.213  0.00  0.00    +0.024 C 
BRANCH  18  19
ATOM     19  C   UNL     1      -3.121   1.831  -1.408  0.00  0.00    -0.027 C 
ATOM     20  C   UNL     1      -3.625   2.328  -0.052  0.00  0.00    +0.010 C 
ATOM     21  C   UNL     1      -4.918   3.121  -0.247  0.00  0.00    -0.010 C 
ATOM     22  C   UNL     1      -5.978   2.220  -0.885  0.00  0.00    +0.007 C 
ATOM     23  C   UNL     1      -5.474   1.723  -2.242  0.00  0.00    -0.010 C 
ATOM     24  C   UNL     1      -4.180   0.930  -2.046  0.00  0.00    +0.010 C 
ATOM     25  C   UNL     1      -5.205   2.920  -3.156  0.00  0.00    +0.007 C 
ATOM     26  C   UNL     1      -4.146   3.821  -2.518  0.00  0.00    -0.010 C 
ATOM     27  C   UNL     1      -4.649   4.318  -1.161  0.00  0.00    +0.007 C 
ATOM     28  C   UNL     1      -2.852   3.028  -2.322  0.00  0.00    +0.010 C 
ENDBRANCH  18  19
ENDBRANCH  17  18
ENDBRANCH  15  17
ENDBRANCH   1  15
TORSDOF 5
