REMARK  Name = ZINC09901208
REMARK  3 active torsions:
REMARK  status: ('A' for Active; 'I' for Inactive)
REMARK    1  A    between atoms: C_1  and  C_2
REMARK    2  A    between atoms: N_11  and  C_15
REMARK    3  A    between atoms: C_15  and  C_16
REMARK                            x       y       z     vdW  Elec       q    Type
REMARK                         _______ _______ _______ _____ _____    ______ ____
ROOT
ATOM      1  C   UNL     1      -2.950   1.351   1.441  0.00  0.00    +0.234 C 
ATOM      2  O   UNL     1      -2.203   1.606   2.362  0.00  0.00    -0.274 OA
ATOM      3  N   UNL     1      -4.200   0.911   1.689  0.00  0.00    -0.295 N 
ATOM      4  C   UNL     1      -5.123   0.595   0.589  0.00  0.00    +0.114 C 
ATOM      5  C   UNL     1      -5.447  -0.902   0.621  0.00  0.00    +0.072 C 
ATOM      6  C   UNL     1      -5.758  -1.309   2.042  0.00  0.00    +0.023 A 
ATOM      7  C   UNL     1      -5.414  -0.585   3.129  0.00  0.00    -0.002 A 
ATOM      8  C   UNL     1      -5.882  -1.307   4.292  0.00  0.00    +0.005 A 
ATOM      9  C   UNL     1      -5.810  -1.047   5.664  0.00  0.00    +0.010 A 
ATOM     10  C   UNL     1      -6.375  -1.976   6.502  0.00  0.00    +0.001 A 
ATOM     11  C   UNL     1      -6.991  -3.121   6.024  0.00  0.00    +0.002 A 
ATOM     12  C   UNL     1      -7.077  -3.404   4.672  0.00  0.00    +0.026 A 
ATOM     13  C   UNL     1      -6.511  -2.478   3.796  0.00  0.00    +0.047 A 
ATOM     14  N   UNL     1      -6.419  -2.444   2.435  0.00  0.00    -0.358 N 
ATOM     15  H   UNL     1      -6.769  -3.121   1.835  0.00  0.00    +0.166 HD
ATOM     16  C   UNL     1      -4.678   0.727   3.071  0.00  0.00    +0.145 C 
ENDROOT
BRANCH   1  17
ATOM     17  C   UNL     1      -2.482   1.526   0.020  0.00  0.00    +0.213 C 
BRANCH  17  27
ATOM     18  C   UNL     1       1.115   2.130  -2.491  0.00  0.00    +0.010 C 
ATOM     19  C   UNL     1       2.005   1.934  -1.261  0.00  0.00    +0.018 C 
ATOM     20  C   UNL     1       2.582   0.517  -1.270  0.00  0.00    +0.006 C 
ATOM     21  C   UNL     1       3.455   0.315  -0.029  0.00  0.00    +0.000 C 
ATOM     22  C   UNL     1       2.606   0.503   1.230  0.00  0.00    +0.003 C 
ATOM     23  C   UNL     1       2.028   1.921   1.248  0.00  0.00    +0.035 C 
ATOM     24  C   UNL     1       1.176   2.139   0.002  0.00  0.00    +0.115 C 
ATOM     25  C   UNL     1      -0.014   1.208   0.009  0.00  0.00    +0.247 C 
ATOM     26  O   UNL     1       0.002  -0.004   0.002  0.00  0.00    -0.273 OA
ATOM     27  N   UNL     1      -1.099   2.010   0.017  0.00  0.00    -0.215 N 
ATOM     28  C   UNL     1      -0.755   3.304   0.027  0.00  0.00    +0.310 C 
ATOM     29  O   UNL     1      -1.558   4.216   0.039  0.00  0.00    -0.252 OA
ATOM     30  N   UNL     1       0.580   3.481   0.015  0.00  0.00    -0.285 N 
ATOM     31  H   UNL     1       1.053   4.327   0.016  0.00  0.00    +0.151 HD
ENDBRANCH  17  27
ENDBRANCH   1  17
TORSDOF 2
