REMARK  Name = ZINC40608383
REMARK  5 active torsions:
REMARK  status: ('A' for Active; 'I' for Inactive)
REMARK    1  A    between atoms: C_1  and  N_2
REMARK    2  A    between atoms: N_2  and  C_3
REMARK    3  A    between atoms: C_5  and  N_21
REMARK    4  A    between atoms: C_6  and  N_10
REMARK    5  A    between atoms: N_10  and  C_11
REMARK                            x       y       z     vdW  Elec       q    Type
REMARK                         _______ _______ _______ _____ _____    ______ ____
ROOT
ATOM      1  C   UNL     1      -1.203   0.365   0.657  0.00  0.00    +0.130 C 
ATOM      2  N   UNL     1       0.054  -0.002   0.000  0.00  0.00    -0.319 N 
ATOM      3  C   UNL     1       1.331   0.452   0.557  0.00  0.00    +0.130 C 
ATOM      4  C   UNL     1       0.035  -0.778  -1.148  0.00  0.00    +0.156 A 
ATOM      5  C   UNL     1       0.069  -0.181  -2.405  0.00  0.00    +0.206 A 
ATOM      6  C   UNL     1       0.048  -1.004  -3.526  0.00  0.00    +0.159 A 
ATOM      7  N   UNL     1      -0.003  -2.325  -3.358  0.00  0.00    -0.218 NA
ATOM      8  C   UNL     1      -0.034  -2.852  -2.151  0.00  0.00    +0.225 A 
ATOM      9  N   UNL     1      -0.010  -2.107  -1.065  0.00  0.00    -0.218 NA
ENDROOT
BRANCH   5  10
ATOM     10  N   UNL     1       0.125   1.292  -2.545  0.00  0.00    +0.063 N 
ATOM     11  O   UNL     1       1.191   1.845  -2.683  0.00  0.00    -0.126 OA
ATOM     12  O   UNL     1      -0.895   1.940  -2.521  0.00  0.00    -0.126 OA
ENDBRANCH   5  10
BRANCH   6  13
ATOM     13  N   UNL     1       0.080  -0.458  -4.801  0.00  0.00    -0.296 N 
ATOM     14  H   UNL     1       0.029   0.504  -4.918  0.00  0.00    +0.154 HD
BRANCH  13  15
ATOM     15  C   UNL     1       0.184  -1.292  -5.915  0.00  0.00    +0.059 A 
ATOM     16  C   UNL     1       0.751  -2.542  -5.796  0.00  0.00    +0.025 A 
ATOM     17  C   UNL     1       0.861  -3.383  -6.899  0.00  0.00    +0.003 A 
ATOM     18  C   UNL     1       0.413  -2.994  -8.125  0.00  0.00    +0.010 A 
ATOM     19  C   UNL     1      -0.171  -1.727  -8.287  0.00  0.00    +0.002 A 
ATOM     20  C   UNL     1      -0.295  -0.863  -7.172  0.00  0.00    +0.092 A 
ATOM     21  N   UNL     1      -0.855   0.341  -7.322  0.00  0.00    -0.253 NA
ATOM     22  C   UNL     1      -1.301   0.745  -8.487  0.00  0.00    +0.111 A 
ATOM     23  C   UNL     1      -1.216  -0.058  -9.623  0.00  0.00    +0.020 A 
ATOM     24  C   UNL     1      -0.644  -1.295  -9.541  0.00  0.00    +0.011 A 
ENDBRANCH  13  15
ENDBRANCH   6  13
TORSDOF 3
