REMARK  Name = ZINC39855111
REMARK  9 active torsions:
REMARK  status: ('A' for Active; 'I' for Inactive)
REMARK    1  A    between atoms: C_1  and  C_2
REMARK    2  A    between atoms: C_2  and  C_3
REMARK    3  A    between atoms: C_3  and  C_5
REMARK    4  A    between atoms: C_3  and  N_6
REMARK    5  A    between atoms: C_7  and  C_9
REMARK    6  A    between atoms: C_14  and  C_15
REMARK    7  A    between atoms: C_14  and  C_16
REMARK    8  A    between atoms: C_20  and  C_25
REMARK    9  A    between atoms: C_21  and  C_23
REMARK                            x       y       z     vdW  Elec       q    Type
REMARK                         _______ _______ _______ _____ _____    ______ ____
ROOT
ATOM      1  C   UNL     1      -4.140   0.357  -2.544  0.00  0.00    +0.096 C 
ATOM      2  C   UNL     1      -3.962  -0.614  -3.754  0.00  0.00    +0.024 C 
ATOM      3  C   UNL     1      -5.105  -0.224  -4.720  0.00  0.00    +0.012 C 
ATOM      4  C   UNL     1      -5.843   0.939  -3.985  0.00  0.00    +0.047 C 
ATOM      5  C   UNL     1      -5.708   0.459  -2.493  0.00  0.00    -0.007 C 
ATOM      6  C   UNL     1      -6.373  -0.901  -2.276  0.00  0.00    +0.013 C 
ATOM      7  C   UNL     1      -6.191   1.501  -1.482  0.00  0.00    +0.013 C 
ATOM      8  C   UNL     1      -4.841   2.096  -4.006  0.00  0.00    +0.069 A 
ATOM      9  C   UNL     1      -3.800   1.744  -3.095  0.00  0.00    +0.080 A 
ATOM     10  N   UNL     1      -2.786   2.550  -2.888  0.00  0.00    -0.236 NA
ATOM     11  C   UNL     1      -2.740   3.727  -3.511  0.00  0.00    +0.176 A 
ATOM     12  C   UNL     1      -3.778   4.095  -4.385  0.00  0.00    +0.176 A 
ATOM     13  N   UNL     1      -4.827   3.237  -4.653  0.00  0.00    -0.236 NA
ENDROOT
BRANCH   1  15
ATOM     14  N   UNL     1      -2.105  -0.148  -1.230  0.00  0.00    -0.312 N 
ATOM     15  C   UNL     1      -3.448  -0.040  -1.265  0.00  0.00    +0.226 C 
ATOM     16  O   UNL     1      -4.100  -0.261  -0.267  0.00  0.00    -0.275 OA
ATOM     17  H   UNL     1      -1.584   0.029  -2.029  0.00  0.00    +0.149 HD
BRANCH  14  18
ATOM     18  C   UNL     1      -1.433  -0.534   0.013  0.00  0.00    +0.070 C 
ATOM     19  C   UNL     1      -1.413  -2.059   0.130  0.00  0.00    +0.028 C 
BRANCH  18  21
ATOM     20  C   UNL     1      -0.019   1.526   0.010  0.00  0.00    +0.005 C 
ATOM     21  C   UNL     1       0.002  -0.004   0.002  0.00  0.00    +0.018 C 
ENDBRANCH  18  21
ENDBRANCH  14  18
ENDBRANCH   1  15
BRANCH  12  22
ATOM     22  C   UNL     1      -3.737   5.358  -5.059  0.00  0.00    +0.122 C 
ATOM     23  N   UNL     1      -3.704   6.360  -5.593  0.00  0.00    -0.189 NA
ENDBRANCH  12  22
BRANCH  11  24
ATOM     24  C   UNL     1      -1.637   4.614  -3.291  0.00  0.00    +0.122 C 
ATOM     25  N   UNL     1      -0.762   5.317  -3.116  0.00  0.00    -0.189 NA
ENDBRANCH  11  24
TORSDOF 5
