REMARK  Name = ZINC02502634
REMARK  7 active torsions:
REMARK  status: ('A' for Active; 'I' for Inactive)
REMARK    1  A    between atoms: C_1  and  O_2
REMARK    2  A    between atoms: O_2  and  C_3
REMARK    3  A    between atoms: C_3  and  C_5
REMARK    4  A    between atoms: C_6  and  N_25
REMARK    5  A    between atoms: C_10  and  C_12
REMARK    6  A    between atoms: C_15  and  S_18
REMARK    7  A    between atoms: S_18  and  C_19
REMARK                            x       y       z     vdW  Elec       q    Type
REMARK                         _______ _______ _______ _____ _____    ______ ____
ROOT
ATOM      1  C   UNL     1       3.980  -0.070   5.829  0.00  0.00    +0.105 C 
ATOM      2  C   UNL     1       4.886  -1.064   5.641  0.00  0.00    +0.195 C 
ATOM      3  O   UNL     1       4.500  -2.309   5.326  0.00  0.00    -0.446 OA
ATOM      4  C   UNL     1       3.248  -2.715   5.610  0.00  0.00    +0.115 C 
ATOM      5  C   UNL     1       2.250  -1.832   5.789  0.00  0.00    +0.045 C 
ATOM      6  C   UNL     1       2.509  -0.348   5.691  0.00  0.00    +0.097 C 
ATOM      7  C   UNL     1       0.937  -2.257   6.072  0.00  0.00    +0.163 C 
ATOM      8  O   UNL     1       0.065  -1.429   6.241  0.00  0.00    -0.292 OA
ATOM      9  C   UNL     1       0.596  -3.719   6.170  0.00  0.00    +0.080 C 
ATOM     10  C   UNL     1       1.564  -4.514   5.287  0.00  0.00    +0.016 C 
ATOM     11  C   UNL     1       2.994  -4.199   5.729  0.00  0.00    +0.075 C 
ENDROOT
BRANCH   6  12
ATOM     12  C   UNL     1       2.029   0.156   4.354  0.00  0.00    -0.035 A 
ATOM     13  C   UNL     1       1.041   1.121   4.294  0.00  0.00    +0.005 A 
ATOM     14  C   UNL     1       0.598   1.585   3.071  0.00  0.00    +0.015 A 
ATOM     15  C   UNL     1       1.147   1.079   1.899  0.00  0.00    +0.008 A 
ATOM     16  C   UNL     1       2.136   0.105   1.962  0.00  0.00    +0.015 A 
ATOM     17  C   UNL     1       2.578  -0.349   3.189  0.00  0.00    +0.005 A 
BRANCH  15  18
ATOM     18  S   UNL     1       0.586   1.668   0.336  0.00  0.00    -0.129 S 
ATOM     19  C   UNL     1       1.575   0.735  -0.865  0.00  0.00    +0.090 C 
ENDBRANCH  15  18
ENDBRANCH   6  12
BRANCH   2  20
ATOM     20  N   UNL     1       6.221  -0.790   5.776  0.00  0.00    -0.329 N 
ATOM     21  H   UNL     1       6.527  -0.212   6.493  0.00  0.00    +0.145 HD
ATOM     22  H   UNL     1       6.860  -1.173   5.156  0.00  0.00    +0.145 HD
ENDBRANCH   2  20
BRANCH   1  23
ATOM     23  C   UNL     1       4.419   1.223   6.154  0.00  0.00    +0.341 C 
ATOM     24  O   UNL     1       5.609   1.481   6.148  0.00  0.00    -0.245 OA
BRANCH  23  26
ATOM     25  C   UNL     1       4.039   3.474   6.792  0.00  0.00    +0.280 C 
ATOM     26  O   UNL     1       3.522   2.180   6.472  0.00  0.00    -0.465 OA
ENDBRANCH  23  26
ENDBRANCH   1  23
TORSDOF 5
