REMARK  Name = ZINC36597853
REMARK  16 active torsions:
REMARK  status: ('A' for Active; 'I' for Inactive)
REMARK    1  A    between atoms: C_1  and  C_2
REMARK    2  A    between atoms: C_5  and  C_7
REMARK    3  A    between atoms: C_7  and  N_8
REMARK    4  A    between atoms: N_8  and  C_9
REMARK    5  A    between atoms: C_9  and  C_11
REMARK    6  A    between atoms: C_9  and  C_20
REMARK    7  A    between atoms: C_14  and  O_19
REMARK    8  A    between atoms: C_15  and  O_17
REMARK    9  A    between atoms: O_17  and  C_18
REMARK   10  A    between atoms: N_22  and  C_23
REMARK   11  A    between atoms: C_23  and  C_24
REMARK   12  A    between atoms: C_23  and  C_25
REMARK   13  A    between atoms: C_23  and  C_26
REMARK   14  A    between atoms: C_27  and  C_29
REMARK   15  A    between atoms: C_33  and  O_36
REMARK   16  A    between atoms: C_34  and  O_35
REMARK                            x       y       z     vdW  Elec       q    Type
REMARK                         _______ _______ _______ _____ _____    ______ ____
ROOT
ATOM      1  N   UNL     1       3.026  -4.853  -0.968  0.00  0.00    -0.275 N 
ATOM      2  C   UNL     1       1.857  -4.862  -0.297  0.00  0.00    +0.252 C 
ATOM      3  O   UNL     1       1.047  -5.745  -0.500  0.00  0.00    -0.270 OA
ENDROOT
BRANCH   2   4
ATOM      4  C   UNL     1       1.561  -3.799   0.683  0.00  0.00    +0.082 A 
ATOM      5  C   UNL     1       1.650  -2.455   0.310  0.00  0.00    +0.017 A 
ATOM      6  C   UNL     1       1.372  -1.466   1.227  0.00  0.00    +0.005 A 
ATOM      7  C   UNL     1       1.004  -1.795   2.522  0.00  0.00    +0.049 A 
ATOM      8  C   UNL     1       0.913  -3.122   2.906  0.00  0.00    +0.159 A 
ATOM      9  C   UNL     1       1.185  -4.133   1.989  0.00  0.00    +0.171 A 
BRANCH   9  10
ATOM     10  O   UNL     1       1.090  -5.435   2.361  0.00  0.00    -0.503 OA
ATOM     11  H   UNL     1       1.911  -5.803   2.715  0.00  0.00    +0.292 HD
ENDBRANCH   9  10
BRANCH   8  12
ATOM     12  O   UNL     1       0.551  -3.438   4.179  0.00  0.00    -0.503 OA
ATOM     13  H   UNL     1      -0.402  -3.541   4.303  0.00  0.00    +0.292 HD
ENDBRANCH   8  12
ENDBRANCH   2   4
BRANCH   1  14
ATOM     14  C   UNL     1       3.369  -5.965  -1.857  0.00  0.00    +0.183 C 
BRANCH  14  19
ATOM     15  C   UNL     1       4.805  -9.780   1.114  0.00  0.00    +0.086 C 
ATOM     16  C   UNL     1       3.964  -8.915   0.211  0.00  0.00    +0.102 A 
ATOM     17  C   UNL     1       2.707  -9.183  -0.186  0.00  0.00    +0.045 A 
ATOM     18  C   UNL     1       2.304  -8.114  -1.019  0.00  0.00    +0.046 A 
ATOM     19  C   UNL     1       3.339  -7.257  -1.081  0.00  0.00    +0.122 A 
ATOM     20  O   UNL     1       4.339  -7.745  -0.330  0.00  0.00    -0.463 OA
ENDBRANCH  14  19
ENDBRANCH   1  14
BRANCH   1  21
ATOM     21  C   UNL     1       3.954  -3.731  -0.808  0.00  0.00    +0.193 C 
BRANCH  21  22
ATOM     22  C   UNL     1       4.190  -3.079  -2.146  0.00  0.00    -0.015 A 
ATOM     23  C   UNL     1       3.308  -3.303  -3.187  0.00  0.00    +0.010 A 
ATOM     24  C   UNL     1       3.520  -2.707  -4.416  0.00  0.00    +0.049 A 
ATOM     25  C   UNL     1       4.618  -1.883  -4.607  0.00  0.00    +0.158 A 
ATOM     26  C   UNL     1       5.505  -1.657  -3.559  0.00  0.00    +0.162 A 
ATOM     27  C   UNL     1       5.284  -2.254  -2.328  0.00  0.00    +0.055 A 
BRANCH  26  28
ATOM     28  O   UNL     1       6.584  -0.850  -3.741  0.00  0.00    -0.491 OA
ATOM     29  C   UNL     1       7.511  -0.752  -2.658  0.00  0.00    +0.277 C 
ENDBRANCH  26  28
BRANCH  25  30
ATOM     30  O   UNL     1       4.828  -1.296  -5.816  0.00  0.00    -0.503 OA
ATOM     31  H   UNL     1       4.410  -0.429  -5.910  0.00  0.00    +0.292 HD
ENDBRANCH  25  30
ENDBRANCH  21  22
BRANCH  21  32
ATOM     32  C   UNL     1       5.263  -4.236  -0.258  0.00  0.00    +0.239 C 
ATOM     33  O   UNL     1       5.584  -5.394  -0.424  0.00  0.00    -0.273 OA
ATOM     34  N   UNL     1       6.077  -3.402   0.419  0.00  0.00    -0.309 N 
ATOM     35  H   UNL     1       5.820  -2.476   0.551  0.00  0.00    +0.149 HD
BRANCH  34  36
ATOM     36  C   UNL     1       7.349  -3.893   0.953  0.00  0.00    +0.026 C 
ATOM     37  C   UNL     1       8.220  -4.409  -0.195  0.00  0.00    +0.031 C 
ATOM     38  C   UNL     1       8.075  -2.753   1.671  0.00  0.00    +0.031 C 
ATOM     39  C   UNL     1       7.082  -5.030   1.941  0.00  0.00    +0.031 C 
ENDBRANCH  34  36
ENDBRANCH  21  32
ENDBRANCH   1  21
TORSDOF 11
