REMARK  Name = ZINC50039009
REMARK  6 active torsions:
REMARK  status: ('A' for Active; 'I' for Inactive)
REMARK    1  A    between atoms: C_6  and  C_7
REMARK    2  A    between atoms: C_7  and  C_9
REMARK    3  A    between atoms: C_7  and  O_26
REMARK    4  A    between atoms: C_9  and  N_10
REMARK    5  A    between atoms: N_13  and  C_14
REMARK    6  A    between atoms: C_16  and  C_22
REMARK                            x       y       z     vdW  Elec       q    Type
REMARK                         _______ _______ _______ _____ _____    ______ ____
ROOT
ATOM      1  N   UNL     1      -2.856  -2.038  -1.407  0.00  0.00    -0.296 N 
ATOM      2  C   UNL     1      -3.365  -2.538  -2.550  0.00  0.00    +0.304 C 
ATOM      3  O   UNL     1      -2.674  -2.594  -3.550  0.00  0.00    -0.253 OA
ATOM      4  N   UNL     1      -4.639  -2.974  -2.587  0.00  0.00    -0.265 N 
ATOM      5  H   UNL     1      -3.407  -1.993  -0.610  0.00  0.00    +0.150 HD
ATOM      6  H   UNL     1      -5.167  -2.998  -1.774  0.00  0.00    +0.157 HD
ENDROOT
BRANCH   4   7
ATOM      7  C   UNL     1      -5.202  -3.394  -3.801  0.00  0.00    +0.100 A 
ATOM      8  C   UNL     1      -5.696  -4.663  -3.933  0.00  0.00    +0.042 A 
ATOM      9  C   UNL     1      -6.253  -5.057  -5.158  0.00  0.00    +0.073 A 
ATOM     10  C   UNL     1      -6.299  -4.186  -6.192  0.00  0.00    +0.098 A 
ATOM     11  N   UNL     1      -5.808  -2.925  -6.063  0.00  0.00    -0.327 N 
ATOM     12  H   UNL     1      -5.850  -2.315  -6.816  0.00  0.00    +0.168 HD
ATOM     13  C   UNL     1      -5.271  -2.510  -4.900  0.00  0.00    +0.270 A 
ATOM     14  O   UNL     1      -4.840  -1.373  -4.797  0.00  0.00    -0.266 OA
BRANCH   9  15
ATOM     15  C   UNL     1      -6.802  -6.451  -5.322  0.00  0.00    +0.419 C 
ATOM     16  F   UNL     1      -7.300  -6.606  -6.620  0.00  0.00    -0.166 F 
ATOM     17  F   UNL     1      -5.782  -7.383  -5.099  0.00  0.00    -0.166 F 
ATOM     18  F   UNL     1      -7.832  -6.658  -4.399  0.00  0.00    -0.166 F 
ENDBRANCH   9  15
ENDBRANCH   4   7
BRANCH   1  19
ATOM     19  C   UNL     1      -1.471  -1.564  -1.367  0.00  0.00    +0.141 C 
BRANCH  19  20
ATOM     20  C   UNL     1      -1.147  -1.051   0.038  0.00  0.00    +0.162 C 
BRANCH  20  26
ATOM     21  C   UNL     1       0.393   0.920  -0.024  0.00  0.00    +0.009 A 
ATOM     22  C   UNL     1       1.660   1.473  -0.015  0.00  0.00    +0.041 A 
ATOM     23  C   UNL     1       2.772   0.654   0.066  0.00  0.00    +0.158 A 
ATOM     24  C   UNL     1       2.613  -0.722   0.139  0.00  0.00    +0.159 A 
ATOM     25  C   UNL     1       1.344  -1.273   0.130  0.00  0.00    +0.047 A 
ATOM     26  C   UNL     1       0.235  -0.451   0.048  0.00  0.00    -0.015 A 
ATOM     27  F   UNL     1       3.698  -1.524   0.218  0.00  0.00    -0.202 F 
ATOM     28  F   UNL     1       4.010   1.193   0.075  0.00  0.00    -0.202 F 
ENDBRANCH  20  26
BRANCH  20  29
ATOM     29  O   UNL     1      -1.202  -2.137   0.966  0.00  0.00    -0.386 OA
ATOM     30  H   UNL     1      -0.579  -2.851   0.772  0.00  0.00    +0.210 HD
ENDBRANCH  20  29
ENDBRANCH  19  20
ENDBRANCH   1  19
TORSDOF 6
