REMARK  Name = ZINC02537082
REMARK  3 active torsions:
REMARK  status: ('A' for Active; 'I' for Inactive)
REMARK    1  A    between atoms: C_2  and  C_15
REMARK    2  A    between atoms: C_9  and  C_11
REMARK    3  A    between atoms: N_17  and  N_18
REMARK                            x       y       z     vdW  Elec       q    Type
REMARK                         _______ _______ _______ _____ _____    ______ ____
ROOT
ATOM      1  C   UNL     1       2.086   0.694  -0.015  0.00  0.00    +0.078 A 
ATOM      2  C   UNL     1       1.233   1.820   0.000  0.00  0.00    +0.150 A 
ATOM      3  N   UNL     1      -0.017   1.390   0.010  0.00  0.00    -0.164 NA
ATOM      4  N   UNL     1       0.002  -0.004   0.002  0.00  0.00    -0.238 N 
ATOM      5  C   UNL     1       1.308  -0.406  -0.014  0.00  0.00    +0.118 A 
ATOM      6  N   UNL     1       1.676  -1.755  -0.029  0.00  0.00    -0.329 N 
ATOM      7  C   UNL     1       0.596  -2.719  -0.314  0.00  0.00    +0.105 C 
ATOM      8  C   UNL     1      -0.649  -2.306   0.480  0.00  0.00    +0.054 C 
ATOM      9  C   UNL     1      -1.134  -0.930   0.011  0.00  0.00    +0.214 C 
ATOM     10  H   UNL     1       2.588  -2.040   0.138  0.00  0.00    +0.147 HD
ENDROOT
BRANCH   9  11
ATOM     11  C   UNL     1      -2.210  -0.412   0.968  0.00  0.00    +0.412 C 
ATOM     12  F   UNL     1      -2.641   0.850   0.545  0.00  0.00    -0.168 F 
ATOM     13  F   UNL     1      -3.293  -1.297   0.975  0.00  0.00    -0.168 F 
ATOM     14  F   UNL     1      -1.678  -0.315   2.258  0.00  0.00    -0.168 F 
ENDBRANCH   9  11
BRANCH   2  15
ATOM     15  C   UNL     1       1.663   3.233   0.003  0.00  0.00    +0.278 C 
ATOM     16  O   UNL     1       2.847   3.508  -0.007  0.00  0.00    -0.267 OA
ATOM     17  N   UNL     1       0.743   4.218   0.018  0.00  0.00    -0.248 N 
ATOM     18  H   UNL     1      -0.202   3.999   0.026  0.00  0.00    +0.169 HD
BRANCH  17  19
ATOM     19  N   UNL     1       1.141   5.525   0.021  0.00  0.00    -0.254 NA
ATOM     20  H   UNL     1       1.741   5.722  -0.765  0.00  0.00    +0.140 HD
ATOM     21  H   UNL     1       0.345   6.145   0.032  0.00  0.00    +0.140 HD
ENDBRANCH  17  19
ENDBRANCH   2  15
TORSDOF 3
