REMARK  Name = ZINC02274536
REMARK  14 active torsions:
REMARK  status: ('A' for Active; 'I' for Inactive)
REMARK    1  A    between atoms: C_1  and  C_2
REMARK    2  A    between atoms: C_2  and  N_60
REMARK    3  A    between atoms: C_3  and  C_4
REMARK    4  A    between atoms: C_3  and  N_60
REMARK    5  A    between atoms: C_5  and  C_7
REMARK    6  A    between atoms: C_5  and  C_8
REMARK    7  A    between atoms: C_5  and  N_60
REMARK    8  A    between atoms: N_10  and  N_11
REMARK    9  A    between atoms: C_12  and  C_14
REMARK   10  A    between atoms: C_14  and  C_15
REMARK   11  A    between atoms: C_14  and  C_22
REMARK   12  A    between atoms: C_14  and  O_29
REMARK   13  A    between atoms: C_19  and  C_21
REMARK   14  A    between atoms: C_26  and  C_28
REMARK                            x       y       z     vdW  Elec       q    Type
REMARK                         _______ _______ _______ _____ _____    ______ ____
ROOT
ATOM      1  C   UNL     1      -0.235   6.131   0.133  0.00  0.00    +0.194 C 
ENDROOT
BRANCH   1   2
ATOM      2  C   UNL     1      -1.024   5.184  -0.735  0.00  0.00    -0.002 A 
ATOM      3  C   UNL     1      -1.841   5.680  -1.734  0.00  0.00    +0.007 A 
ATOM      4  C   UNL     1      -2.565   4.811  -2.529  0.00  0.00    +0.001 A 
ATOM      5  C   UNL     1      -2.471   3.447  -2.326  0.00  0.00    +0.003 A 
ATOM      6  C   UNL     1      -1.657   2.952  -1.324  0.00  0.00    -0.050 A 
ATOM      7  C   UNL     1      -0.929   3.820  -0.532  0.00  0.00    +0.010 A 
ATOM      8  C   UNL     1      -1.560   1.465  -1.099  0.00  0.00    +0.044 C 
ENDBRANCH   1   2
BRANCH   1   9
ATOM      9  C   UNL     1       1.220   6.075  -0.257  0.00  0.00    -0.002 A 
ATOM     10  C   UNL     1       1.876   4.859  -0.306  0.00  0.00    +0.007 A 
ATOM     11  C   UNL     1       3.209   4.808  -0.667  0.00  0.00    +0.001 A 
ATOM     12  C   UNL     1       3.889   5.973  -0.969  0.00  0.00    +0.003 A 
ATOM     13  C   UNL     1       3.234   7.189  -0.915  0.00  0.00    -0.050 A 
ATOM     14  C   UNL     1       1.900   7.240  -0.558  0.00  0.00    +0.010 A 
ATOM     15  C   UNL     1       3.975   8.459  -1.244  0.00  0.00    +0.044 C 
ENDBRANCH   1   9
BRANCH   1  17
ATOM     16  N   UNL     1      -0.222   6.649   2.551  0.00  0.00    -0.231 N 
ATOM     17  C   UNL     1      -0.384   5.731   1.578  0.00  0.00    +0.270 C 
ATOM     18  O   UNL     1      -0.650   4.583   1.865  0.00  0.00    -0.270 OA
ATOM     19  H   UNL     1      -0.009   7.567   2.322  0.00  0.00    +0.173 HD
BRANCH  16  22
ATOM     20  C   UNL     1      -0.199   7.195   4.868  0.00  0.00    +0.215 C 
ATOM     21  O   UNL     1       0.068   8.342   4.581  0.00  0.00    -0.276 OA
ATOM     22  N   UNL     1      -0.361   6.277   3.895  0.00  0.00    -0.236 N 
ATOM     23  H   UNL     1      -0.574   5.359   4.125  0.00  0.00    +0.173 HD
BRANCH  20  24
ATOM     24  C   UNL     1      -0.348   6.794   6.314  0.00  0.00    +0.018 C 
ATOM     25  C   UNL     1       1.033   6.519   6.912  0.00  0.00    -0.004 C 
BRANCH  24  26
ATOM     26  N   UNL     1      -0.980   7.906   7.056  0.00  0.00    +0.387 N 
ATOM     27  H   UNL     1      -0.396   8.745   6.961  0.00  0.00    -0.081 HD
BRANCH  26  29
ATOM     28  C   UNL     1      -3.264   7.011   6.752  0.00  0.00    -0.017 C 
ATOM     29  C   UNL     1      -2.319   8.188   6.499  0.00  0.00    -0.081 C 
ENDBRANCH  26  29
BRANCH  26  30
ATOM     30  C   UNL     1      -1.091   7.557   8.488  0.00  0.00    -0.081 C 
ATOM     31  C   UNL     1      -1.675   8.753   9.245  0.00  0.00    -0.017 C 
ENDBRANCH  26  30
ENDBRANCH  24  26
ENDBRANCH  20  24
ENDBRANCH  16  22
ENDBRANCH   1  17
BRANCH   1  32
ATOM     32  O   UNL     1      -0.725   7.461  -0.046  0.00  0.00    -0.371 OA
ATOM     33  H   UNL     1      -1.658   7.572   0.185  0.00  0.00    +0.212 HD
ENDBRANCH   1  32
TORSDOF 9
