REMARK  Name = ZINC32597913
REMARK  3 active torsions:
REMARK  status: ('A' for Active; 'I' for Inactive)
REMARK    1  A    between atoms: N_4  and  C_6
REMARK    2  A    between atoms: C_9  and  C_12
REMARK    3  A    between atoms: C_15  and  N_18
REMARK                            x       y       z     vdW  Elec       q    Type
REMARK                         _______ _______ _______ _____ _____    ______ ____
ROOT
ATOM      1  C   UNL     1       2.381   1.416  -0.013  0.00  0.00    +0.065 A 
ATOM      2  C   UNL     1       1.168   2.094   0.002  0.00  0.00    +0.028 A 
ATOM      3  C   UNL     1      -0.017   1.390   0.010  0.00  0.00    +0.012 A 
ATOM      4  C   UNL     1       0.002  -0.004   0.002  0.00  0.00    +0.002 A 
ATOM      5  C   UNL     1       1.220  -0.682  -0.013  0.00  0.00    +0.012 A 
ATOM      6  C   UNL     1       2.402   0.027  -0.021  0.00  0.00    +0.028 A 
ENDROOT
BRANCH   4   7
ATOM      7  C   UNL     1      -1.271  -0.764   0.011  0.00  0.00    +0.089 A 
ATOM      8  C   UNL     1      -1.251  -2.158   0.003  0.00  0.00    +0.141 A 
ATOM      9  N   UNL     1      -2.385  -2.833   0.011  0.00  0.00    -0.237 NA
ATOM     10  C   UNL     1      -3.544  -2.186   0.025  0.00  0.00    +0.134 A 
ATOM     11  C   UNL     1      -3.564  -0.793   0.034  0.00  0.00    +0.154 A 
ATOM     12  N   UNL     1      -2.433  -0.116   0.031  0.00  0.00    -0.250 NA
BRANCH  10  13
ATOM     13  N   UNL     1      -4.737  -2.898   0.033  0.00  0.00    -0.342 N 
ATOM     14  H   UNL     1      -5.698  -2.362   0.046  0.00  0.00    +0.144 HD
ATOM     15  H   UNL     1      -4.722  -3.998   0.027  0.00  0.00    +0.144 HD
ENDBRANCH  10  13
ENDBRANCH   4   7
BRANCH   1  19
ATOM     16  C   UNL     1       5.028   3.774  -0.027  0.00  0.00    +0.041 A 
ATOM     17  C   UNL     1       5.736   2.567  -0.041  0.00  0.00    +0.135 A 
ATOM     18  N   UNL     1       4.872   1.584  -0.037  0.00  0.00    -0.175 NA
ATOM     19  N   UNL     1       3.584   2.134  -0.021  0.00  0.00    -0.240 N 
ATOM     20  C   UNL     1       3.707   3.481  -0.021  0.00  0.00    +0.114 A 
ENDBRANCH   1  19
TORSDOF 3
