REMARK  Name = ZINC07812942
REMARK  5 active torsions:
REMARK  status: ('A' for Active; 'I' for Inactive)
REMARK    1  A    between atoms: C_4  and  O_22
REMARK    2  A    between atoms: C_5  and  C_7
REMARK    3  A    between atoms: N_8  and  N_9
REMARK    4  A    between atoms: C_10  and  C_12
REMARK    5  A    between atoms: N_14  and  C_15
REMARK                            x       y       z     vdW  Elec       q    Type
REMARK                         _______ _______ _______ _____ _____    ______ ____
ROOT
ATOM      1  N   UNL     1       2.413  -4.186  -0.072  0.00  0.00    -0.199 N 
ATOM      2  C   UNL     1       3.593  -4.838  -0.081  0.00  0.00    +0.318 C 
ATOM      3  O   UNL     1       4.633  -4.210  -0.091  0.00  0.00    -0.263 OA
ATOM      4  H   UNL     1       1.582  -4.688  -0.064  0.00  0.00    +0.178 HD
ENDROOT
BRANCH   2   5
ATOM      5  C   UNL     1       3.621  -6.328  -0.078  0.00  0.00    +0.305 C 
ATOM      6  O   UNL     1       2.582  -6.955  -0.068  0.00  0.00    -0.265 OA
ATOM      7  N   UNL     1       4.801  -6.979  -0.087  0.00  0.00    -0.275 N 
ATOM      8  H   UNL     1       5.630  -6.481  -0.160  0.00  0.00    +0.155 HD
BRANCH   7   9
ATOM      9  C   UNL     1       4.831  -8.374   0.010  0.00  0.00    +0.069 A 
ATOM     10  C   UNL     1       3.827  -9.134  -0.576  0.00  0.00    +0.026 A 
ATOM     11  C   UNL     1       3.859 -10.511  -0.479  0.00  0.00    +0.002 A 
ATOM     12  C   UNL     1       4.890 -11.135   0.201  0.00  0.00    +0.003 A 
ATOM     13  C   UNL     1       5.892 -10.383   0.786  0.00  0.00    +0.040 A 
ATOM     14  C   UNL     1       5.869  -9.004   0.689  0.00  0.00    +0.144 A 
ATOM     15  F   UNL     1       6.851  -8.270   1.255  0.00  0.00    -0.204 F 
ENDBRANCH   7   9
ENDBRANCH   2   5
BRANCH   1  17
ATOM     16  C   UNL     1       1.248  -2.158  -0.066  0.00  0.00    +0.142 C 
ATOM     17  N   UNL     1       2.386  -2.786  -0.075  0.00  0.00    -0.187 NA
BRANCH  16  22
ATOM     18  C   UNL     1      -0.021   1.373  -0.064  0.00  0.00    +0.001 A 
ATOM     19  C   UNL     1       1.165   2.088  -0.075  0.00  0.00    +0.004 A 
ATOM     20  C   UNL     1       2.379   1.428  -0.084  0.00  0.00    +0.046 A 
ATOM     21  C   UNL     1       2.418   0.043  -0.081  0.00  0.00    +0.125 A 
ATOM     22  C   UNL     1       1.220  -0.685  -0.069  0.00  0.00    +0.036 A 
ATOM     23  C   UNL     1      -0.001  -0.006  -0.060  0.00  0.00    +0.013 A 
BRANCH  21  24
ATOM     24  O   UNL     1       3.610  -0.606  -0.089  0.00  0.00    -0.506 OA
ATOM     25  H   UNL     1       3.963  -0.792   0.791  0.00  0.00    +0.292 HD
ENDBRANCH  21  24
ENDBRANCH  16  22
ENDBRANCH   1  17
TORSDOF 5
