REMARK  Name = ZINC05221020
REMARK  4 active torsions:
REMARK  status: ('A' for Active; 'I' for Inactive)
REMARK    1  A    between atoms: C_1  and  C_2
REMARK    2  A    between atoms: C_7  and  C_8
REMARK    3  A    between atoms: N_10  and  C_11
REMARK    4  A    between atoms: N_16  and  C_18
REMARK                            x       y       z     vdW  Elec       q    Type
REMARK                         _______ _______ _______ _____ _____    ______ ____
ROOT
ATOM      1  C   UNL     1      -4.861   2.016  -1.397  0.00  0.00    +0.100 C 
ATOM      2  C   UNL     1      -4.624   3.253  -2.293  0.00  0.00    +0.120 C 
ATOM      3  C   UNL     1      -5.770   4.181  -1.956  0.00  0.00    +0.222 C 
ATOM      4  O   UNL     1      -5.809   5.363  -2.225  0.00  0.00    -0.275 OA
ATOM      5  N   UNL     1      -6.739   3.505  -1.314  0.00  0.00    -0.270 N 
ATOM      6  C   UNL     1      -6.385   2.090  -1.155  0.00  0.00    +0.136 C 
ENDROOT
BRANCH   5   7
ATOM      7  C   UNL     1      -7.931   4.077  -0.857  0.00  0.00    +0.036 A 
ATOM      8  C   UNL     1      -8.227   5.401  -1.156  0.00  0.00    +0.025 A 
ATOM      9  C   UNL     1      -9.406   5.962  -0.707  0.00  0.00    +0.022 A 
ATOM     10  C   UNL     1     -10.289   5.210   0.048  0.00  0.00    +0.041 A 
ATOM     11  C   UNL     1      -9.994   3.892   0.351  0.00  0.00    +0.022 A 
ATOM     12  C   UNL     1      -8.818   3.325  -0.099  0.00  0.00    +0.025 A 
ATOM     13 CL   UNL     1     -11.768   5.920   0.615  0.00  0.00    -0.084 Cl
ENDBRANCH   5   7
BRANCH   1  16
ATOM     14  C   UNL     1      -2.842   1.722  -0.065  0.00  0.00    +0.245 C 
ATOM     15  O   UNL     1      -2.298   1.254  -1.046  0.00  0.00    -0.270 OA
ATOM     16  N   UNL     1      -4.124   2.133  -0.136  0.00  0.00    -0.307 N 
ATOM     17  H   UNL     1      -4.558   2.506   0.647  0.00  0.00    +0.149 HD
BRANCH  14  24
ATOM     18  C   UNL     1      -0.018   1.097   0.004  0.00  0.00    +0.044 C 
ATOM     19  C   UNL     1      -0.735   1.541   1.252  0.00  0.00    -0.038 A 
ATOM     20  C   UNL     1      -0.045   1.659   2.442  0.00  0.00    +0.004 A 
ATOM     21  C   UNL     1      -0.703   2.067   3.589  0.00  0.00    +0.000 A 
ATOM     22  C   UNL     1      -2.054   2.360   3.552  0.00  0.00    +0.001 A 
ATOM     23  C   UNL     1      -2.756   2.246   2.369  0.00  0.00    +0.013 A 
ATOM     24  C   UNL     1      -2.098   1.840   1.207  0.00  0.00    +0.040 A 
ENDBRANCH  14  24
ENDBRANCH   1  16
TORSDOF 3
