REMARK  Name = ZINC14132374
REMARK  9 active torsions:
REMARK  status: ('A' for Active; 'I' for Inactive)
REMARK    1  A    between atoms: C_1  and  C_2
REMARK    2  A    between atoms: C_5  and  N_9
REMARK    3  A    between atoms: C_6  and  C_8
REMARK    4  A    between atoms: C_13  and  S_14
REMARK    5  A    between atoms: S_14  and  C_15
REMARK    6  A    between atoms: C_15  and  C_17
REMARK    7  A    between atoms: C_15  and  C_18
REMARK    8  A    between atoms: N_20  and  C_21
REMARK    9  A    between atoms: C_23  and  C_26
REMARK                            x       y       z     vdW  Elec       q    Type
REMARK                         _______ _______ _______ _____ _____    ______ ____
ROOT
ATOM      1  N   UNL     1      -2.459   3.824   0.046  0.00  0.00    -0.277 N 
ATOM      2  C   UNL     1      -2.965   4.636  -0.934  0.00  0.00    +0.230 A 
ATOM      3  N   UNL     1      -4.121   5.071  -0.519  0.00  0.00    -0.137 NA
ATOM      4  N   UNL     1      -4.381   4.595   0.646  0.00  0.00    -0.122 NA
ATOM      5  C   UNL     1      -3.399   3.817   1.040  0.00  0.00    +0.197 A 
ENDROOT
BRANCH   1  10
ATOM      6  C   UNL     1       2.490   1.045  -0.015  0.00  0.00    +0.044 C 
ATOM      7  C   UNL     1       1.176   1.783   0.000  0.00  0.00    -0.050 A 
ATOM      8  C   UNL     1       1.161   3.166   0.007  0.00  0.00    +0.005 A 
ATOM      9  C   UNL     1      -0.042   3.844   0.023  0.00  0.00    +0.027 A 
ATOM     10  C   UNL     1      -1.237   3.137   0.030  0.00  0.00    +0.053 A 
ATOM     11  C   UNL     1      -1.219   1.750   0.017  0.00  0.00    -0.026 A 
ATOM     12  C   UNL     1      -0.013   1.076   0.008  0.00  0.00    +0.008 A 
ATOM     13  C   UNL     1      -2.513   0.978   0.020  0.00  0.00    +0.046 C 
ENDBRANCH   1  10
BRANCH   5  14
ATOM     14  S   UNL     1      -3.306   2.937   2.563  0.00  0.00    -0.073 S 
BRANCH  14  15
ATOM     15  C   UNL     1      -4.881   3.428   3.307  0.00  0.00    +0.137 C 
ATOM     16  C   UNL     1      -6.036   2.878   2.467  0.00  0.00    +0.029 C 
BRANCH  15  17
ATOM     17  C   UNL     1      -4.971   2.876   4.706  0.00  0.00    +0.233 C 
ATOM     18  O   UNL     1      -4.269   1.943   5.036  0.00  0.00    -0.274 OA
ATOM     19  N   UNL     1      -5.830   3.419   5.592  0.00  0.00    -0.253 N 
ATOM     20  H   UNL     1      -6.390   4.165   5.328  0.00  0.00    +0.158 HD
BRANCH  19  21
ATOM     21  C   UNL     1      -5.912   2.911   6.880  0.00  0.00    +0.224 A 
ATOM     22  C   UNL     1      -6.726   3.349   7.883  0.00  0.00    +0.092 A 
ATOM     23  C   UNL     1      -6.418   2.501   8.966  0.00  0.00    +0.082 A 
ATOM     24  N   UNL     1      -5.500   1.678   8.543  0.00  0.00    -0.081 NA
ATOM     25  O   UNL     1      -5.210   1.885   7.387  0.00  0.00    -0.339 OA
ATOM     26  C   UNL     1      -7.029   2.539  10.343  0.00  0.00    +0.069 C 
ENDBRANCH  19  21
ENDBRANCH  15  17
ENDBRANCH  14  15
ENDBRANCH   5  14
TORSDOF 5
