REMARK  Name = ZINC52099523
REMARK  5 active torsions:
REMARK  status: ('A' for Active; 'I' for Inactive)
REMARK    1  A    between atoms: C_1  and  C_2
REMARK    2  A    between atoms: C_4  and  O_9
REMARK    3  A    between atoms: C_7  and  N_8
REMARK    4  A    between atoms: O_9  and  C_10
REMARK    5  A    between atoms: C_11  and  C_20
REMARK                            x       y       z     vdW  Elec       q    Type
REMARK                         _______ _______ _______ _____ _____    ______ ____
ROOT
ATOM      1  O   UNL     1       0.027  -2.748  -2.387  0.00  0.00    -0.436 OA
ENDROOT
BRANCH   1   2
ATOM      2  C   UNL     1       0.150  -4.098  -2.351  0.00  0.00    +0.242 A 
ATOM      3  C   UNL     1       0.269  -4.819  -3.550  0.00  0.00    +0.101 A 
ATOM      4  N   UNL     1       0.389  -6.125  -3.535  0.00  0.00    -0.245 NA
ATOM      5  C   UNL     1       0.398  -6.779  -2.368  0.00  0.00    +0.090 A 
ATOM      6  C   UNL     1       0.525  -8.178  -2.323  0.00  0.00    +0.030 A 
ATOM      7  C   UNL     1       0.532  -8.818  -1.122  0.00  0.00    +0.002 A 
ATOM      8  C   UNL     1       0.414  -8.105   0.070  0.00  0.00    +0.002 A 
ATOM      9  C   UNL     1       0.289  -6.750   0.066  0.00  0.00    +0.030 A 
ATOM     10  C   UNL     1       0.279  -6.055  -1.156  0.00  0.00    +0.093 A 
ATOM     11  N   UNL     1       0.163  -4.722  -1.190  0.00  0.00    -0.210 NA
ATOM     12  C   UNL     1       0.259  -4.085  -4.866  0.00  0.00    +0.071 C 
ENDBRANCH   1   2
BRANCH   1  16
ATOM     13  C   UNL     1       2.499  -0.959   1.422  0.00  0.00    +0.046 C 
ATOM     14  C   UNL     1       1.208  -1.184   0.678  0.00  0.00    -0.026 A 
ATOM     15  C   UNL     1       1.212  -1.868  -0.521  0.00  0.00    +0.051 A 
ATOM     16  C   UNL     1       0.023  -2.075  -1.206  0.00  0.00    +0.131 A 
ATOM     17  C   UNL     1      -1.171  -1.596  -0.685  0.00  0.00    +0.048 A 
ATOM     18  C   UNL     1      -1.176  -0.913   0.515  0.00  0.00    +0.026 A 
ATOM     19  C   UNL     1       0.013  -0.709   1.203  0.00  0.00    +0.028 A 
BRANCH  19  20
ATOM     20  N   UNL     1       0.008  -0.021   2.421  0.00  0.00    -0.358 N 
ATOM     21  H   UNL     1       0.839   0.125   2.899  0.00  0.00    +0.142 HD
ATOM     22  H   UNL     1      -0.827   0.311   2.787  0.00  0.00    +0.142 HD
ENDBRANCH  19  20
ENDBRANCH   1  16
TORSDOF 3
