REMARK  Name = ZINC54156135
REMARK  7 active torsions:
REMARK  status: ('A' for Active; 'I' for Inactive)
REMARK    1  A    between atoms: C_1  and  C_2
REMARK    2  A    between atoms: C_2  and  C_4
REMARK    3  A    between atoms: C_2  and  C_17
REMARK    4  A    between atoms: C_4  and  N_5
REMARK    5  A    between atoms: N_5  and  S_6
REMARK    6  A    between atoms: S_6  and  C_9
REMARK    7  A    between atoms: N_18  and  O_19
REMARK                            x       y       z     vdW  Elec       q    Type
REMARK                         _______ _______ _______ _____ _____    ______ ____
ROOT
ATOM      1  N   UNL     1       2.287  -0.107   1.089  0.00  0.00    -0.189 NA
ATOM      2  H   UNL     1       2.724   0.237   0.294  0.00  0.00    +0.148 HD
ENDROOT
BRANCH   1   3
ATOM      3  S   UNL     1       3.067  -0.063   2.548  0.00  0.00    +0.060 S 
ATOM      4  O   UNL     1       4.352   0.493   2.305  0.00  0.00    -0.153 OA
ATOM      5  O   UNL     1       2.156   0.504   3.479  0.00  0.00    -0.153 OA
BRANCH   3   6
ATOM      6  C   UNL     1       3.328  -1.732   3.050  0.00  0.00    +0.120 A 
ATOM      7  C   UNL     1       2.714  -2.214   4.191  0.00  0.00    +0.045 A 
ATOM      8  C   UNL     1       2.918  -3.524   4.585  0.00  0.00    +0.020 A 
ATOM      9  C   UNL     1       3.736  -4.352   3.838  0.00  0.00    +0.016 A 
ATOM     10  C   UNL     1       4.350  -3.870   2.697  0.00  0.00    +0.018 A 
ATOM     11  C   UNL     1       4.141  -2.561   2.300  0.00  0.00    +0.044 A 
ATOM     12 BR   UNL     1       4.975  -1.904   0.735  0.00  0.00    -0.048 Br
ATOM     13 BR   UNL     1       2.079  -4.184   6.146  0.00  0.00    -0.050 Br
ENDBRANCH   3   6
ENDBRANCH   1   3
BRANCH   1  14
ATOM     14  C   UNL     1       0.935  -0.666   0.997  0.00  0.00    +0.116 C 
BRANCH  14  16
ATOM     15  C   UNL     1       0.110   1.274  -0.343  0.00  0.00    +0.017 C 
ATOM     16  C   UNL     1       0.297  -0.244  -0.328  0.00  0.00    +0.068 C 
BRANCH  16  17
ATOM     17  C   UNL     1      -1.042  -0.917  -0.477  0.00  0.00    +0.136 C 
ATOM     18  N   UNL     1      -2.119  -0.300  -0.118  0.00  0.00    -0.076 NA
ATOM     19  N   UNL     1      -1.119  -2.190  -0.998  0.00  0.00    -0.344 N 
ATOM     20  H   UNL     1      -0.311  -2.653  -1.268  0.00  0.00    +0.144 HD
ATOM     21  H   UNL     1      -1.982  -2.624  -1.094  0.00  0.00    +0.144 HD
BRANCH  18  22
ATOM     22  O   UNL     1      -3.378  -0.933  -0.258  0.00  0.00    -0.408 OA
ATOM     23  H   UNL     1      -4.124  -0.394   0.037  0.00  0.00    +0.328 HD
ENDBRANCH  18  22
ENDBRANCH  16  17
ENDBRANCH  14  16
ENDBRANCH   1  14
TORSDOF 6
