REMARK  Name = ZINC01505359
REMARK  7 active torsions:
REMARK  status: ('A' for Active; 'I' for Inactive)
REMARK    1  A    between atoms: C_1  and  C_2
REMARK    2  A    between atoms: C_2  and  C_29
REMARK    3  A    between atoms: C_3  and  N_18
REMARK    4  A    between atoms: N_5  and  C_9
REMARK    5  A    between atoms: C_9  and  C_10
REMARK    6  A    between atoms: N_18  and  O_28
REMARK    7  A    between atoms: N_21  and  C_22
REMARK                            x       y       z     vdW  Elec       q    Type
REMARK                         _______ _______ _______ _____ _____    ______ ____
ROOT
ATOM      1  C   UNL     1      -6.287   3.804   2.950  0.00  0.00    +0.026 C 
ATOM      2  C   UNL     1      -6.806   2.947   1.794  0.00  0.00    +0.054 C 
ATOM      3  C   UNL     1      -5.747   2.818   0.679  0.00  0.00    +0.210 C 
ATOM      4  N   UNL     1      -5.317   1.457   0.456  0.00  0.00    -0.293 N 
ATOM      5  C   UNL     1      -5.824   0.448   1.179  0.00  0.00    +0.112 C 
ATOM      6  S   UNL     1      -5.432  -1.214   1.051  0.00  0.00    -0.028 S 
ATOM      7  S   UNL     1      -6.989   1.195   2.300  0.00  0.00    -0.093 S 
ATOM      8  C   UNL     1      -8.120   3.504   1.244  0.00  0.00    +0.026 C 
ENDROOT
BRANCH   3   9
ATOM      9  N   UNL     1      -4.581   3.627   1.042  0.00  0.00    -0.145 N 
ATOM     10  C   UNL     1      -3.783   3.241   2.057  0.00  0.00    +0.331 C 
ATOM     11  O   UNL     1      -4.005   2.200   2.644  0.00  0.00    -0.250 OA
ATOM     12  N   UNL     1      -2.738   4.010   2.422  0.00  0.00    -0.268 N 
ATOM     13  H   UNL     1      -2.588   4.864   1.986  0.00  0.00    +0.156 HD
BRANCH  12  14
ATOM     14  C   UNL     1      -1.869   3.577   3.430  0.00  0.00    +0.035 A 
ATOM     15  C   UNL     1      -2.327   2.723   4.425  0.00  0.00    +0.023 A 
ATOM     16  C   UNL     1      -1.469   2.303   5.422  0.00  0.00    +0.002 A 
ATOM     17  C   UNL     1      -0.151   2.722   5.424  0.00  0.00    +0.000 A 
ATOM     18  C   UNL     1       0.310   3.568   4.432  0.00  0.00    +0.002 A 
ATOM     19  C   UNL     1      -0.545   3.997   3.436  0.00  0.00    +0.023 A 
ENDBRANCH  12  14
BRANCH   9  20
ATOM     20  O   UNL     1      -4.292   4.813   0.325  0.00  0.00    -0.290 OA
ATOM     21  H   UNL     1      -4.961   5.048  -0.332  0.00  0.00    +0.242 HD
ENDBRANCH   9  20
ENDBRANCH   3   9
BRANCH   4  22
ATOM     22  C   UNL     1      -4.313   1.176  -0.573  0.00  0.00    +0.149 C 
BRANCH  22  23
ATOM     23  C   UNL     1      -2.942   1.500  -0.040  0.00  0.00    +0.040 A 
ATOM     24  C   UNL     1      -2.307   2.667  -0.425  0.00  0.00    +0.131 A 
ATOM     25  C   UNL     1      -1.049   2.967   0.071  0.00  0.00    +0.039 A 
ATOM     26  C   UNL     1      -0.422   2.095   0.941  0.00  0.00    +0.006 A 
ATOM     27  C   UNL     1      -1.053   0.925   1.322  0.00  0.00    +0.039 A 
ATOM     28  C   UNL     1      -2.314   0.627   0.832  0.00  0.00    +0.131 A 
ATOM     29  F   UNL     1      -2.930  -0.516   1.205  0.00  0.00    -0.205 F 
ATOM     30  F   UNL     1      -2.916   3.517  -1.280  0.00  0.00    -0.205 F 
ENDBRANCH  22  23
ENDBRANCH   4  22
TORSDOF 5
