REMARK  Name = ZINC09185077
REMARK  15 active torsions:
REMARK  status: ('A' for Active; 'I' for Inactive)
REMARK    1  A    between atoms: C_1  and  C_2
REMARK    2  A    between atoms: C_3  and  N_37
REMARK    3  A    between atoms: C_4  and  O_35
REMARK    4  A    between atoms: C_5  and  C_8
REMARK    5  A    between atoms: C_8  and  N_9
REMARK    6  A    between atoms: C_16  and  O_17
REMARK    7  A    between atoms: C_18  and  N_70
REMARK    8  A    between atoms: C_24  and  O_32
REMARK    9  A    between atoms: C_25  and  O_30
REMARK   10  A    between atoms: C_26  and  O_28
REMARK   11  A    between atoms: O_28  and  C_29
REMARK   12  A    between atoms: O_30  and  C_31
REMARK   13  A    between atoms: O_32  and  C_33
REMARK   14  A    between atoms: C_34  and  N_70
REMARK   15  A    between atoms: O_35  and  C_36
REMARK                            x       y       z     vdW  Elec       q    Type
REMARK                         _______ _______ _______ _____ _____    ______ ____
ROOT
ATOM      1  N   UNL     1      -4.298  -4.045  -0.086  0.00  0.00    -0.275 NA
ATOM      2  C   UNL     1      -3.796  -2.820  -0.133  0.00  0.00    +0.100 A 
ATOM      3  C   UNL     1      -3.461  -2.301  -1.383  0.00  0.00    +0.031 A 
ATOM      4  C   UNL     1      -2.931  -1.135  -1.674  0.00  0.00    +0.011 A 
ATOM      5  C   UNL     1      -2.531  -0.047  -0.911  0.00  0.00    -0.012 A 
ATOM      6  C   UNL     1      -2.663   0.084   0.455  0.00  0.00    -0.050 A 
ATOM      7  C   UNL     1      -3.153  -0.878   1.304  0.00  0.00    +0.050 A 
ATOM      8  C   UNL     1      -3.633  -2.111   1.114  0.00  0.00    +0.142 A 
ATOM      9  C   UNL     1      -2.270   1.402   1.093  0.00  0.00    -0.040 C 
ATOM     10  C   UNL     1      -0.770   1.518   1.273  0.00  0.00    -0.007 C 
ATOM     11  C   UNL     1      -0.031   1.064   0.018  0.00  0.00    +0.035 C 
ATOM     12  C   UNL     1      -0.709   1.640  -1.200  0.00  0.00    -0.033 A 
ATOM     13  C   UNL     1      -1.904   1.090  -1.649  0.00  0.00    +0.031 A 
ATOM     14  C   UNL     1      -2.535   1.607  -2.785  0.00  0.00    +0.173 A 
ATOM     15  C   UNL     1      -1.960   2.679  -3.456  0.00  0.00    +0.204 A 
ATOM     16  C   UNL     1      -0.768   3.227  -2.996  0.00  0.00    +0.165 A 
ATOM     17  C   UNL     1      -0.145   2.706  -1.869  0.00  0.00    +0.054 A 
ENDROOT
BRANCH   9  19
ATOM     18  C   UNL     1      -4.281   2.044   2.279  0.00  0.00    -0.100 C 
ATOM     19  N   UNL     1      -2.914   1.506   2.416  0.00  0.00    +0.382 N 
ATOM     20  H   UNL     1      -2.362   2.133   3.013  0.00  0.00    -0.085 HD
ATOM     21  H   UNL     1      -2.958   0.575   2.846  0.00  0.00    -0.085 HD
ENDBRANCH   9  19
BRANCH   8  22
ATOM     22  O   UNL     1      -4.013  -2.778   2.230  0.00  0.00    -0.505 OA
ATOM     23  H   UNL     1      -3.307  -3.302   2.635  0.00  0.00    +0.292 HD
ENDBRANCH   8  22
BRANCH  16  24
ATOM     24  O   UNL     1      -0.209   4.278  -3.652  0.00  0.00    -0.491 OA
ATOM     25  C   UNL     1       1.015   4.794  -3.126  0.00  0.00    +0.277 C 
ENDBRANCH  16  24
BRANCH  15  26
ATOM     26  O   UNL     1      -2.563   3.192  -4.563  0.00  0.00    -0.488 OA
ATOM     27  C   UNL     1      -2.120   2.701  -5.830  0.00  0.00    +0.277 C 
ENDBRANCH  15  26
BRANCH  14  28
ATOM     28  O   UNL     1      -3.700   1.066  -3.229  0.00  0.00    -0.491 OA
ATOM     29  C   UNL     1      -4.911   1.687  -2.794  0.00  0.00    +0.277 C 
ENDBRANCH  14  28
BRANCH   1  30
ATOM     30  C   UNL     1      -4.598  -4.762  -1.328  0.00  0.00    +0.182 C 
BRANCH  30  35
ATOM     31  C   UNL     1      -6.993  -9.835  -0.109  0.00  0.00    +0.067 C 
ATOM     32  C   UNL     1      -6.392  -8.490  -0.425  0.00  0.00    +0.062 A 
ATOM     33  C   UNL     1      -7.192  -7.359  -0.401  0.00  0.00    +0.088 A 
ATOM     34  C   UNL     1      -6.618  -6.117  -0.690  0.00  0.00    +0.149 A 
ATOM     35  C   UNL     1      -5.264  -6.074  -1.002  0.00  0.00    +0.035 A 
ATOM     36  C   UNL     1      -4.537  -7.248  -1.006  0.00  0.00    +0.120 A 
ATOM     37  N   UNL     1      -5.109  -8.402  -0.722  0.00  0.00    -0.258 NA
BRANCH  33  38
ATOM     38  N   UNL     1      -8.553  -7.457  -0.085  0.00  0.00    -0.354 N 
ATOM     39  H   UNL     1      -8.942  -8.322   0.118  0.00  0.00    +0.142 HD
ATOM     40  H   UNL     1      -9.106  -6.661  -0.071  0.00  0.00    +0.142 HD
ENDBRANCH  33  38
BRANCH  34  41
ATOM     41  O   UNL     1      -7.366  -4.982  -0.670  0.00  0.00    -0.493 OA
ATOM     42  C   UNL     1      -8.002  -4.604  -1.893  0.00  0.00    +0.277 C 
ENDBRANCH  34  41
ENDBRANCH  30  35
ENDBRANCH   1  30
TORSDOF 9
