REMARK  Name = ZINC28244724
REMARK  8 active torsions:
REMARK  status: ('A' for Active; 'I' for Inactive)
REMARK    1  A    between atoms: C_1  and  C_2
REMARK    2  A    between atoms: C_2  and  N_3
REMARK    3  A    between atoms: C_4  and  N_9
REMARK    4  A    between atoms: C_6  and  C_8
REMARK    5  A    between atoms: C_10  and  C_12
REMARK    6  A    between atoms: C_12  and  C_14
REMARK    7  A    between atoms: C_12  and  N_15
REMARK    8  A    between atoms: C_18  and  C_20
REMARK                            x       y       z     vdW  Elec       q    Type
REMARK                         _______ _______ _______ _____ _____    ______ ____
ROOT
ATOM      1  N   UNL     1       3.517   0.705  -0.028  0.00  0.00    -0.269 N 
ATOM      2  C   UNL     1       4.208  -0.452  -0.042  0.00  0.00    +0.243 C 
ATOM      3  O   UNL     1       3.617  -1.511  -0.041  0.00  0.00    -0.273 OA
ATOM      4  H   UNL     1       4.053   1.666  -0.029  0.00  0.00    +0.156 HD
ENDROOT
BRANCH   1   6
ATOM      5  N   UNL     1       1.307   1.764  -0.001  0.00  0.00    -0.250 N 
ATOM      6  C   UNL     1       2.123   0.684  -0.015  0.00  0.00    +0.123 A 
ATOM      7  C   UNL     1       1.335  -0.425  -0.013  0.00  0.00    +0.068 A 
ATOM      8  C   UNL     1       0.002  -0.004   0.002  0.00  0.00    +0.062 A 
ATOM      9  N   UNL     1      -0.016   1.304   0.009  0.00  0.00    -0.175 NA
ATOM     10  C   UNL     1      -1.208  -0.903   0.008  0.00  0.00    +0.067 C 
BRANCH   5  12
ATOM     11  C   UNL     1       1.895   3.647   1.445  0.00  0.00    +0.029 C 
ATOM     12  C   UNL     1       1.733   3.166   0.002  0.00  0.00    +0.142 C 
ENDBRANCH   5  12
ENDBRANCH   1   6
BRANCH   2  13
ATOM     13  C   UNL     1       5.715  -0.430  -0.057  0.00  0.00    +0.190 C 
ATOM     14  C   UNL     1       6.201   0.305  -1.307  0.00  0.00    +0.042 C 
BRANCH  13  15
ATOM     15  N   UNL     1       6.223  -1.804  -0.069  0.00  0.00    -0.259 N 
ATOM     16  C   UNL     1       6.399  -2.575  -1.162  0.00  0.00    +0.110 A 
ATOM     17  C   UNL     1       6.884  -3.770  -0.750  0.00  0.00    +0.053 A 
ATOM     18  C   UNL     1       7.010  -3.726   0.642  0.00  0.00    +0.165 A 
ATOM     19  N   UNL     1       6.619  -2.546   1.051  0.00  0.00    -0.167 NA
BRANCH  18  20
ATOM     20  C   UNL     1       7.514  -4.843   1.520  0.00  0.00    +0.436 C 
ATOM     21  F   UNL     1       8.900  -4.731   1.666  0.00  0.00    -0.164 F 
ATOM     22  F   UNL     1       6.904  -4.761   2.776  0.00  0.00    -0.164 F 
ATOM     23  F   UNL     1       7.204  -6.074   0.931  0.00  0.00    -0.164 F 
ENDBRANCH  18  20
ENDBRANCH  13  15
ENDBRANCH   2  13
TORSDOF 5
