REMARK  Name = ZINC61766245
REMARK  3 active torsions:
REMARK  status: ('A' for Active; 'I' for Inactive)
REMARK    1  A    between atoms: C_1  and  C_2
REMARK    2  A    between atoms: C_2  and  N_3
REMARK    3  A    between atoms: N_10  and  C_11
REMARK                            x       y       z     vdW  Elec       q    Type
REMARK                         _______ _______ _______ _____ _____    ______ ____
ROOT
ATOM      1  N   UNL     1       0.711  -0.489   1.189  0.00  0.00    -0.311 N 
ATOM      2  C   UNL     1       2.058  -0.696   1.153  0.00  0.00    +0.109 A 
ATOM      3  C   UNL     1       2.720  -1.142   2.241  0.00  0.00    +0.131 A 
ATOM      4  N   UNL     1       2.091  -1.399   3.388  0.00  0.00    -0.234 NA
ATOM      5  C   UNL     1       0.791  -1.223   3.496  0.00  0.00    +0.185 A 
ATOM      6  C   UNL     1       0.038  -0.733   2.336  0.00  0.00    +0.291 A 
ATOM      7  O   UNL     1      -1.166  -0.554   2.404  0.00  0.00    -0.264 OA
ATOM      8  N   UNL     1       0.142  -1.492   4.694  0.00  0.00    -0.314 N 
ATOM      9  H   UNL     1      -0.816  -1.360   4.767  0.00  0.00    +0.148 HD
ENDROOT
BRANCH   8  10
ATOM     10  C   UNL     1       0.905  -1.976   5.848  0.00  0.00    +0.158 C 
ATOM     11  C   UNL     1      -0.022  -2.766   6.774  0.00  0.00    +0.033 C 
ATOM     12  C   UNL     1       0.716  -3.024   8.093  0.00  0.00    +0.021 C 
ATOM     13  C   UNL     1       0.911  -1.690   8.815  0.00  0.00    +0.104 C 
ATOM     14  N   UNL     1       1.500  -0.706   7.916  0.00  0.00    -0.314 N 
ATOM     15  C   UNL     1       1.486  -0.805   6.587  0.00  0.00    +0.233 C 
ATOM     16  O   UNL     1       1.973   0.098   5.940  0.00  0.00    -0.274 OA
ATOM     17  H   UNL     1       1.927   0.071   8.309  0.00  0.00    +0.149 HD
ENDBRANCH   8  10
BRANCH   1  19
ATOM     18  C   UNL     1      -0.019   1.526   0.010  0.00  0.00    +0.027 C 
ATOM     19  C   UNL     1       0.002  -0.004   0.002  0.00  0.00    +0.121 C 
ENDBRANCH   1  19
TORSDOF 2
