REMARK  Name = ZINC56072556
REMARK  8 active torsions:
REMARK  status: ('A' for Active; 'I' for Inactive)
REMARK    1  A    between atoms: C_1  and  C_2
REMARK    2  A    between atoms: C_8  and  C_25
REMARK    3  A    between atoms: C_8  and  C_26
REMARK    4  A    between atoms: C_10  and  N_12
REMARK    5  A    between atoms: N_12  and  S_13
REMARK    6  A    between atoms: S_13  and  C_16
REMARK    7  A    between atoms: C_18  and  C_22
REMARK    8  A    between atoms: N_19  and  C_21
REMARK                            x       y       z     vdW  Elec       q    Type
REMARK                         _______ _______ _______ _____ _____    ______ ____
ROOT
ATOM      1  N   UNL     1      -2.558  -3.254  -1.070  0.00  0.00    -0.182 NA
ATOM      2  H   UNL     1      -2.454  -2.753  -1.894  0.00  0.00    +0.149 HD
ENDROOT
BRANCH   1  12
ATOM      3  C   UNL     1      -0.537   1.746  -0.027  0.00  0.00    +0.086 C 
ATOM      4  C   UNL     1      -0.385   0.247  -0.028  0.00  0.00    +0.103 A 
ATOM      5  C   UNL     1      -1.393  -0.647  -0.063  0.00  0.00    +0.050 A 
ATOM      6  C   UNL     1      -0.801  -1.923  -0.050  0.00  0.00    +0.012 A 
ATOM      7  C   UNL     1       0.535  -1.741  -0.007  0.00  0.00    +0.110 A 
ATOM      8  O   UNL     1       0.780  -0.425  -0.001  0.00  0.00    -0.464 OA
ATOM      9  C   UNL     1       1.538  -2.869   0.022  0.00  0.00    +0.081 C 
ATOM     10  C   UNL     1       0.806  -4.158   0.414  0.00  0.00    -0.026 C 
ATOM     11  C   UNL     1      -0.439  -4.327  -0.462  0.00  0.00    +0.032 C 
ATOM     12  C   UNL     1      -1.480  -3.267  -0.079  0.00  0.00    +0.110 C 
ATOM     13  C   UNL     1       0.387  -4.080   1.884  0.00  0.00    +0.011 C 
ATOM     14  C   UNL     1       1.737  -5.355   0.212  0.00  0.00    +0.011 C 
ENDBRANCH   1  12
BRANCH   1  15
ATOM     15  S   UNL     1      -3.957  -4.094  -0.783  0.00  0.00    +0.060 S 
ATOM     16  O   UNL     1      -4.811  -3.850  -1.892  0.00  0.00    -0.153 OA
ATOM     17  O   UNL     1      -3.570  -5.404  -0.393  0.00  0.00    -0.153 OA
BRANCH  15  18
ATOM     18  C   UNL     1      -4.729  -3.357   0.619  0.00  0.00    +0.123 A 
ATOM     19  C   UNL     1      -4.521  -3.714   1.955  0.00  0.00    +0.061 A 
ATOM     20  C   UNL     1      -5.318  -2.891   2.723  0.00  0.00    +0.106 A 
ATOM     21  N   UNL     1      -5.994  -2.052   1.866  0.00  0.00    -0.344 N 
ATOM     22  C   UNL     1      -5.623  -2.341   0.595  0.00  0.00    +0.114 A 
ATOM     23  C   UNL     1      -6.950  -1.015   2.263  0.00  0.00    +0.149 C 
BRANCH  20  24
ATOM     24  C   UNL     1      -5.426  -2.907   4.185  0.00  0.00    +0.258 C 
ATOM     25  O   UNL     1      -6.234  -2.189   4.744  0.00  0.00    -0.269 OA
ATOM     26  N   UNL     1      -4.630  -3.717   4.911  0.00  0.00    -0.324 N 
ATOM     27  H   UNL     1      -3.937  -4.235   4.473  0.00  0.00    +0.145 HD
ATOM     28  H   UNL     1      -4.750  -3.781   5.871  0.00  0.00    +0.145 HD
ENDBRANCH  20  24
ENDBRANCH  15  18
ENDBRANCH   1  15
TORSDOF 4
