REMARK  Name = ZINC31609072
REMARK  7 active torsions:
REMARK  status: ('A' for Active; 'I' for Inactive)
REMARK    1  A    between atoms: C_1  and  C_2
REMARK    2  A    between atoms: C_12  and  C_16
REMARK    3  A    between atoms: N_18  and  C_19
REMARK    4  A    between atoms: C_23  and  N_25
REMARK    5  A    between atoms: C_26  and  C_28
REMARK    6  A    between atoms: C_28  and  C_30
REMARK    7  A    between atoms: C_28  and  N_31
REMARK                            x       y       z     vdW  Elec       q    Type
REMARK                         _______ _______ _______ _____ _____    ______ ____
ROOT
ATOM      1  C   UNL     1       3.632   6.332  -0.012  0.00  0.00    +0.250 C 
ATOM      2  O   UNL     1       4.748   5.850  -0.042  0.00  0.00    -0.270 OA
ATOM      3  N   UNL     1       2.555   5.530   0.104  0.00  0.00    -0.281 N 
ATOM      4  H   UNL     1       1.552   5.969   0.208  0.00  0.00    +0.155 HD
ENDROOT
BRANCH   1  15
ATOM      5  C   UNL     1       8.048  13.583  -0.919  0.00  0.00    +0.008 C 
ATOM      6  C   UNL     1       7.553  12.140  -1.037  0.00  0.00    -0.009 C 
ATOM      7  C   UNL     1       8.435  11.225  -0.183  0.00  0.00    +0.009 C 
ATOM      8  C   UNL     1       8.102   9.761  -0.491  0.00  0.00    +0.054 C 
ATOM      9  C   UNL     1       6.604   9.580  -0.399  0.00  0.00    +0.020 A 
ATOM     10  C   UNL     1       5.726  10.601  -0.421  0.00  0.00    -0.019 A 
ATOM     11  C   UNL     1       4.389  10.025  -0.307  0.00  0.00    +0.004 A 
ATOM     12  C   UNL     1       3.099  10.557  -0.271  0.00  0.00    +0.010 A 
ATOM     13  C   UNL     1       2.010   9.720  -0.153  0.00  0.00    +0.001 A 
ATOM     14  C   UNL     1       2.180   8.349  -0.073  0.00  0.00    +0.015 A 
ATOM     15  C   UNL     1       3.457   7.794  -0.102  0.00  0.00    +0.061 A 
ATOM     16  C   UNL     1       4.577   8.633  -0.222  0.00  0.00    +0.059 A 
ATOM     17  N   UNL     1       5.928   8.398  -0.282  0.00  0.00    -0.357 N 
ATOM     18  H   UNL     1       6.482   7.448  -0.249  0.00  0.00    +0.166 HD
ATOM     19  C   UNL     1       6.103  12.054  -0.543  0.00  0.00    +0.040 C 
ENDBRANCH   1  15
BRANCH   3  20
ATOM     20  C   UNL     1       2.713   4.141   0.091  0.00  0.00    +0.035 A 
ATOM     21  C   UNL     1       1.746   3.336  -0.500  0.00  0.00    +0.023 A 
ATOM     22  C   UNL     1       1.902   1.964  -0.513  0.00  0.00    +0.004 A 
ATOM     23  C   UNL     1       3.018   1.387   0.061  0.00  0.00    +0.023 A 
ATOM     24  C   UNL     1       3.988   2.185   0.654  0.00  0.00    +0.035 A 
ATOM     25  C   UNL     1       3.832   3.564   0.673  0.00  0.00    +0.046 A 
BRANCH  24  26
ATOM     26  N   UNL     1       5.118   1.600   1.235  0.00  0.00    -0.284 N 
ATOM     27  C   UNL     1       5.662   0.495   0.688  0.00  0.00    +0.242 C 
ATOM     28  O   UNL     1       5.124  -0.041  -0.258  0.00  0.00    -0.273 OA
ATOM     29  H   UNL     1       5.563   2.042   2.139  0.00  0.00    +0.155 HD
BRANCH  27  30
ATOM     30  C   UNL     1       6.938  -0.076   1.251  0.00  0.00    +0.190 C 
ATOM     31  C   UNL     1       6.722  -0.457   2.717  0.00  0.00    +0.042 C 
BRANCH  30  32
ATOM     32  N   UNL     1       7.319  -1.267   0.488  0.00  0.00    -0.260 N 
ATOM     33  C   UNL     1       6.871  -2.522   0.699  0.00  0.00    +0.109 A 
ATOM     34  C   UNL     1       7.460  -3.329  -0.214  0.00  0.00    +0.041 A 
ATOM     35  C   UNL     1       8.296  -2.540  -1.010  0.00  0.00    +0.134 A 
ATOM     36  N   UNL     1       8.208  -1.302  -0.594  0.00  0.00    -0.179 NA
ENDBRANCH  30  32
ENDBRANCH  27  30
ENDBRANCH  24  26
ENDBRANCH   3  20
TORSDOF 5
