REMARK  Name = ZINC10851907
REMARK  14 active torsions:
REMARK  status: ('A' for Active; 'I' for Inactive)
REMARK    1  A    between atoms: C_1  and  C_2
REMARK    2  A    between atoms: C_2  and  N_3
REMARK    3  A    between atoms: C_5  and  C_29
REMARK    4  A    between atoms: N_8  and  C_11
REMARK    5  A    between atoms: C_11  and  C_12
REMARK    6  A    between atoms: N_14  and  C_15
REMARK    7  A    between atoms: C_16  and  C_24
REMARK    8  A    between atoms: C_17  and  C_20
REMARK    9  A    between atoms: C_20  and  C_21
REMARK   10  A    between atoms: C_21  and  C_22
REMARK   11  A    between atoms: C_21  and  C_23
REMARK   12  A    between atoms: C_24  and  O_26
REMARK   13  A    between atoms: O_26  and  C_27
REMARK   14  A    between atoms: C_27  and  C_28
REMARK                            x       y       z     vdW  Elec       q    Type
REMARK                         _______ _______ _______ _____ _____    ______ ____
ROOT
ATOM      1  C   UNL     1       3.069   3.947  -1.798  0.00  0.00    +0.238 C 
ATOM      2  O   UNL     1       2.420   3.614  -2.767  0.00  0.00    -0.273 OA
ATOM      3  N   UNL     1       4.200   4.661  -1.958  0.00  0.00    -0.278 N 
ATOM      4  H   UNL     1       4.720   4.927  -1.183  0.00  0.00    +0.155 HD
ENDROOT
BRANCH   3   5
ATOM      5  C   UNL     1       4.622   5.016  -3.229  0.00  0.00    +0.086 A 
ATOM      6  C   UNL     1       5.750   5.744  -3.594  0.00  0.00    +0.091 A 
ATOM      7  C   UNL     1       5.948   5.970  -5.006  0.00  0.00    -0.024 A 
ATOM      8  C   UNL     1       5.028   5.460  -5.845  0.00  0.00    +0.051 A 
ATOM      9  S   UNL     1       3.876   4.655  -4.750  0.00  0.00    -0.081 S 
BRANCH   6  10
ATOM     10  C   UNL     1       6.691   6.254  -2.595  0.00  0.00    +0.342 C 
ATOM     11  O   UNL     1       7.691   5.619  -2.321  0.00  0.00    -0.245 OA
BRANCH  10  12
ATOM     12  O   UNL     1       6.449   7.430  -1.979  0.00  0.00    -0.461 OA
BRANCH  12  13
ATOM     13  C   UNL     1       7.425   7.874  -1.000  0.00  0.00    +0.229 C 
ATOM     14  C   UNL     1       6.983   9.216  -0.413  0.00  0.00    +0.048 C 
ENDBRANCH  12  13
ENDBRANCH  10  12
ENDBRANCH   6  10
BRANCH   7  15
ATOM     15  C   UNL     1       7.134   6.744  -5.520  0.00  0.00    +0.039 C 
BRANCH  15  16
ATOM     16  C   UNL     1       6.861   8.243  -5.389  0.00  0.00    -0.013 C 
ATOM     17  C   UNL     1       8.112   9.027  -5.789  0.00  0.00    +0.007 C 
ATOM     18  C   UNL     1       5.700   8.632  -6.307  0.00  0.00    +0.007 C 
ENDBRANCH  15  16
ENDBRANCH   7  15
ENDBRANCH   3   5
BRANCH   1  19
ATOM     19  C   UNL     1       2.610   3.561  -0.415  0.00  0.00    +0.226 C 
BRANCH  19  25
ATOM     20  N   UNL     1      -0.985   2.779  -0.562  0.00  0.00    -0.299 N 
ATOM     21  C   UNL     1      -1.033   1.425  -0.687  0.00  0.00    +0.114 A 
ATOM     22  C   UNL     1       0.145   0.708  -0.718  0.00  0.00    +0.132 A 
ATOM     23  C   UNL     1       1.413   1.451  -0.626  0.00  0.00    +0.274 A 
ATOM     24  O   UNL     1       2.480   0.866  -0.654  0.00  0.00    -0.266 OA
ATOM     25  N   UNL     1       1.365   2.794  -0.510  0.00  0.00    -0.251 N 
ATOM     26  C   UNL     1       0.184   3.434  -0.480  0.00  0.00    +0.332 A 
ATOM     27  O   UNL     1       0.173   4.645  -0.375  0.00  0.00    -0.246 OA
BRANCH  20  29
ATOM     28  C   UNL     1      -2.641   3.929  -1.947  0.00  0.00    +0.027 C 
ATOM     29  C   UNL     1      -2.236   3.540  -0.523  0.00  0.00    +0.123 C 
ENDBRANCH  20  29
BRANCH  22  30
ATOM     30  C   UNL     1       0.136  -0.719  -0.843  0.00  0.00    +0.106 C 
ATOM     31  N   UNL     1       0.128  -1.851  -0.942  0.00  0.00    -0.191 NA
ENDBRANCH  22  30
ENDBRANCH  19  25
ENDBRANCH   1  19
TORSDOF 10
