REMARK  Name = ZINC39584714
REMARK  6 active torsions:
REMARK  status: ('A' for Active; 'I' for Inactive)
REMARK    1  A    between atoms: C_4  and  N_27
REMARK    2  A    between atoms: C_5  and  C_7
REMARK    3  A    between atoms: C_8  and  C_9
REMARK    4  A    between atoms: N_10  and  N_11
REMARK    5  A    between atoms: C_12  and  C_14
REMARK    6  A    between atoms: C_17  and  C_20
REMARK                            x       y       z     vdW  Elec       q    Type
REMARK                         _______ _______ _______ _____ _____    ______ ____
ROOT
ATOM      1  N   UNL     1      -1.017  -6.305  -0.551  0.00  0.00    -0.205 N 
ATOM      2  C   UNL     1      -2.172  -6.984  -0.700  0.00  0.00    +0.263 C 
ATOM      3  O   UNL     1      -3.223  -6.384  -0.778  0.00  0.00    -0.271 OA
ATOM      4  H   UNL     1      -0.177  -6.785  -0.488  0.00  0.00    +0.177 HD
ENDROOT
BRANCH   2   5
ATOM      5  C   UNL     1      -2.157  -8.489  -0.767  0.00  0.00    +0.240 C 
ATOM      6  C   UNL     1      -1.821  -8.960  -2.171  0.00  0.00    +0.041 C 
ATOM      7  C   UNL     1      -2.914  -9.651  -2.550  0.00  0.00    +0.092 C 
ATOM      8  N   UNL     1      -3.844  -9.649  -1.558  0.00  0.00    -0.153 NA
ATOM      9  N   UNL     1      -3.506  -9.033  -0.540  0.00  0.00    -0.170 NA
BRANCH   7  10
ATOM     10  C   UNL     1      -3.080 -10.319  -3.864  0.00  0.00    +0.002 A 
ATOM     11  C   UNL     1      -2.058 -10.263  -4.810  0.00  0.00    +0.011 A 
ATOM     12  C   UNL     1      -2.217 -10.886  -6.031  0.00  0.00    +0.020 A 
ATOM     13  C   UNL     1      -3.389 -11.566  -6.317  0.00  0.00    +0.041 A 
ATOM     14  C   UNL     1      -4.407 -11.624  -5.380  0.00  0.00    +0.020 A 
ATOM     15  C   UNL     1      -4.255 -11.009  -4.154  0.00  0.00    +0.011 A 
ATOM     16 CL   UNL     1      -3.583 -12.347  -7.855  0.00  0.00    -0.084 Cl
ENDBRANCH   7  10
ENDBRANCH   2   5
BRANCH   1  18
ATOM     17  C   UNL     1       0.084  -4.249  -0.345  0.00  0.00    +0.130 C 
ATOM     18  N   UNL     1      -1.031  -4.905  -0.488  0.00  0.00    -0.188 NA
BRANCH  17  20
ATOM     19  C   UNL     1       1.226  -2.152  -0.134  0.00  0.00    +0.012 C 
ATOM     20  C   UNL     1       0.070  -2.832  -0.282  0.00  0.00    +0.022 C 
BRANCH  19  25
ATOM     21  C   UNL     1       0.074   1.406  -0.415  0.00  0.00    +0.001 A 
ATOM     22  C   UNL     1       1.184   2.085   0.056  0.00  0.00    +0.002 A 
ATOM     23  C   UNL     1       2.308   1.389   0.465  0.00  0.00    +0.033 A 
ATOM     24  C   UNL     1       2.329   0.011   0.407  0.00  0.00    +0.133 A 
ATOM     25  C   UNL     1       1.211  -0.682  -0.068  0.00  0.00    +0.005 A 
ATOM     26  C   UNL     1       0.079   0.029  -0.479  0.00  0.00    +0.010 A 
BRANCH  24  27
ATOM     27  N   UNL     1       3.532  -0.732   0.844  0.00  0.00    +0.057 N 
ATOM     28  O   UNL     1       3.414  -1.780   1.435  0.00  0.00    -0.126 OA
ATOM     29  O   UNL     1       4.633  -0.290   0.612  0.00  0.00    -0.126 OA
ENDBRANCH  24  27
ENDBRANCH  19  25
ENDBRANCH  17  20
ENDBRANCH   1  18
TORSDOF 6
