REMARK  Name = ZINC14478257
REMARK  7 active torsions:
REMARK  status: ('A' for Active; 'I' for Inactive)
REMARK    1  A    between atoms: C_1  and  C_2
REMARK    2  A    between atoms: C_2  and  C_3
REMARK    3  A    between atoms: C_2  and  C_4
REMARK    4  A    between atoms: C_4  and  O_5
REMARK    5  A    between atoms: O_5  and  C_6
REMARK    6  A    between atoms: C_13  and  C_22
REMARK    7  A    between atoms: C_27  and  N_28
REMARK                            x       y       z     vdW  Elec       q    Type
REMARK                         _______ _______ _______ _____ _____    ______ ____
ROOT
ATOM      1  C   UNL     1      -3.808   2.304   2.756  0.00  0.00    +0.142 A 
ATOM      2  C   UNL     1      -4.940   2.690   2.064  0.00  0.00    +0.047 A 
ATOM      3  C   UNL     1      -5.073   2.382   0.723  0.00  0.00    +0.004 A 
ATOM      4  C   UNL     1      -4.072   1.679   0.080  0.00  0.00    +0.006 A 
ATOM      5  C   UNL     1      -2.929   1.297   0.766  0.00  0.00    -0.016 A 
ATOM      6  C   UNL     1      -2.784   1.597   2.115  0.00  0.00    +0.074 A 
ATOM      7  N   UNL     1      -1.663   1.255   2.873  0.00  0.00    -0.334 N 
ATOM      8  C   UNL     1      -0.635   0.442   2.204  0.00  0.00    +0.107 C 
ATOM      9  C   UNL     1      -0.524   0.949   0.781  0.00  0.00    +0.029 C 
ATOM     10  C   UNL     1      -1.862   0.515   0.102  0.00  0.00    +0.049 C 
ATOM     11  C   UNL     1      -1.561   0.640  -1.345  0.00  0.00    -0.023 C 
ATOM     12  C   UNL     1      -0.258   0.449  -1.523  0.00  0.00    -0.030 C 
ATOM     13  C   UNL     1       0.424   0.213  -0.173  0.00  0.00    +0.033 C 
ATOM     14  H   UNL     1      -1.255   2.071   3.304  0.00  0.00    +0.147 HD
ENDROOT
BRANCH   8  15
ATOM     15  C   UNL     1       0.687   0.599   2.910  0.00  0.00    +0.003 A 
ATOM     16  C   UNL     1       1.667   1.411   2.369  0.00  0.00    +0.008 A 
ATOM     17  C   UNL     1       2.880   1.555   3.017  0.00  0.00    +0.000 A 
ATOM     18  C   UNL     1       3.112   0.887   4.205  0.00  0.00    +0.002 A 
ATOM     19  C   UNL     1       2.133   0.076   4.745  0.00  0.00    +0.033 A 
ATOM     20  C   UNL     1       0.918  -0.064   4.101  0.00  0.00    +0.131 A 
BRANCH  20  21
ATOM     21  N   UNL     1      -0.134  -0.928   4.682  0.00  0.00    +0.057 N 
ATOM     22  O   UNL     1       0.108  -1.602   5.668  0.00  0.00    -0.126 OA
ATOM     23  O   UNL     1      -1.240  -0.967   4.175  0.00  0.00    -0.126 OA
ENDBRANCH  20  21
ENDBRANCH   8  15
BRANCH   1  24
ATOM     24  O   UNL     1      -3.688   2.615   4.075  0.00  0.00    -0.490 OA
BRANCH  24  25
ATOM     25  C   UNL     1      -4.766   3.337   4.673  0.00  0.00    +0.232 C 
BRANCH  25  27
ATOM     26  C   UNL     1      -3.237   4.515   6.259  0.00  0.00    +0.010 C 
ATOM     27  C   UNL     1      -4.453   3.593   6.148  0.00  0.00    +0.020 C 
ATOM     28  C   UNL     1      -5.658   4.255   6.818  0.00  0.00    +0.010 C 
ENDBRANCH  25  27
ENDBRANCH  24  25
ENDBRANCH   1  24
TORSDOF 5
