REMARK  Name = ZINC64899966
REMARK  6 active torsions:
REMARK  status: ('A' for Active; 'I' for Inactive)
REMARK    1  A    between atoms: C_1  and  O_2
REMARK    2  A    between atoms: O_2  and  C_3
REMARK    3  A    between atoms: C_3  and  C_4
REMARK    4  A    between atoms: C_4  and  N_5
REMARK    5  A    between atoms: N_8  and  N_9
REMARK    6  A    between atoms: C_10  and  C_12
REMARK                            x       y       z     vdW  Elec       q    Type
REMARK                         _______ _______ _______ _____ _____    ______ ____
ROOT
ATOM      1  N   UNL     1       0.673  -3.337   3.570  0.00  0.00    -0.229 N 
ATOM      2  C   UNL     1       1.260  -3.741   4.714  0.00  0.00    +0.260 C 
ATOM      3  O   UNL     1       1.466  -4.924   4.907  0.00  0.00    -0.269 OA
ATOM      4  H   UNL     1       0.509  -2.394   3.416  0.00  0.00    +0.173 HD
ENDROOT
BRANCH   2   5
ATOM      5  C   UNL     1       1.653  -2.748   5.732  0.00  0.00    +0.043 A 
ATOM      6  C   UNL     1       2.268  -3.164   6.916  0.00  0.00    +0.062 A 
ATOM      7  C   UNL     1       2.635  -2.232   7.867  0.00  0.00    +0.168 A 
ATOM      8  C   UNL     1       2.392  -0.876   7.644  0.00  0.00    +0.184 A 
ATOM      9  C   UNL     1       1.781  -0.462   6.467  0.00  0.00    +0.087 A 
ATOM     10  C   UNL     1       1.418  -1.389   5.512  0.00  0.00    +0.037 A 
ATOM     11 CL   UNL     1       1.480   1.225   6.194  0.00  0.00    -0.080 Cl
ATOM     12  O   UNL     1       2.843  -0.171   8.721  0.00  0.00    -0.451 OA
ATOM     13  C   UNL     1       2.990  -1.135   9.779  0.00  0.00    +0.466 C 
ATOM     14  O   UNL     1       3.237  -2.372   9.084  0.00  0.00    -0.453 OA
ENDBRANCH   2   5
BRANCH   1  18
ATOM     15  N   UNL     1      -0.515  -2.565   1.245  0.00  0.00    -0.296 N 
ATOM     16  C   UNL     1      -0.287  -3.876   1.459  0.00  0.00    +0.316 C 
ATOM     17  O   UNL     1      -0.611  -4.695   0.620  0.00  0.00    -0.251 OA
ATOM     18  N   UNL     1       0.300  -4.280   2.603  0.00  0.00    -0.218 N 
ATOM     19  H   UNL     1      -0.257  -1.913   1.914  0.00  0.00    +0.150 HD
ATOM     20  H   UNL     1       0.464  -5.224   2.757  0.00  0.00    +0.174 HD
BRANCH  15  21
ATOM     21  C   UNL     1      -1.154  -2.126   0.002  0.00  0.00    +0.134 C 
BRANCH  21  22
ATOM     22  C   UNL     1      -1.295  -0.603   0.011  0.00  0.00    +0.178 C 
BRANCH  22  24
ATOM     23  C   UNL     1      -0.017   1.425   0.010  0.00  0.00    +0.194 C 
ATOM     24  O   UNL     1       0.002  -0.004   0.002  0.00  0.00    -0.381 OA
ENDBRANCH  22  24
ENDBRANCH  21  22
ENDBRANCH  15  21
ENDBRANCH   1  18
TORSDOF 5
