REMARK  Name = ZINC01181657
REMARK  10 active torsions:
REMARK  status: ('A' for Active; 'I' for Inactive)
REMARK    1  A    between atoms: C_1  and  O_2
REMARK    2  A    between atoms: O_2  and  C_3
REMARK    3  A    between atoms: C_5  and  S_23
REMARK    4  A    between atoms: C_8  and  C_9
REMARK    5  A    between atoms: N_11  and  C_12
REMARK    6  A    between atoms: C_14  and  O_21
REMARK    7  A    between atoms: C_17  and  O_18
REMARK    8  A    between atoms: O_18  and  C_19
REMARK    9  A    between atoms: O_21  and  C_22
REMARK   10  A    between atoms: S_23  and  C_24
REMARK                            x       y       z     vdW  Elec       q    Type
REMARK                         _______ _______ _______ _____ _____    ______ ____
ROOT
ATOM      1  C   UNL     1       2.476   1.074  -0.008  0.00  0.00    +0.252 C 
ATOM      2  O   UNL     1       3.521   1.697  -0.018  0.00  0.00    -0.270 OA
ATOM      3  N   UNL     1       2.495  -0.274  -0.021  0.00  0.00    -0.278 N 
ATOM      4  H   UNL     1       1.665  -0.771   0.052  0.00  0.00    +0.155 HD
ENDROOT
BRANCH   3   5
ATOM      5  C   UNL     1       3.713  -0.956  -0.141  0.00  0.00    +0.079 A 
ATOM      6  C   UNL     1       4.860  -0.438   0.441  0.00  0.00    +0.074 A 
ATOM      7  C   UNL     1       6.063  -1.115   0.322  0.00  0.00    +0.140 A 
ATOM      8  C   UNL     1       6.121  -2.311  -0.381  0.00  0.00    +0.086 A 
ATOM      9  C   UNL     1       4.978  -2.829  -0.963  0.00  0.00    +0.071 A 
ATOM     10  C   UNL     1       3.772  -2.159  -0.841  0.00  0.00    +0.143 A 
ATOM     11 CL   UNL     1       7.630  -3.156  -0.530  0.00  0.00    -0.080 Cl
BRANCH  10  12
ATOM     12  O   UNL     1       2.648  -2.673  -1.409  0.00  0.00    -0.493 OA
ATOM     13  C   UNL     1       2.782  -3.910  -2.112  0.00  0.00    +0.277 C 
ENDBRANCH  10  12
BRANCH   7  14
ATOM     14  O   UNL     1       7.188  -0.607   0.892  0.00  0.00    -0.494 OA
ATOM     15  C   UNL     1       7.056   0.627   1.600  0.00  0.00    +0.277 C 
ENDBRANCH   7  14
ENDBRANCH   3   5
BRANCH   1  21
ATOM     16  C   UNL     1       1.169   3.195   0.033  0.00  0.00    +0.133 A 
ATOM     17  C   UNL     1      -0.044   3.860   0.059  0.00  0.00    +0.061 A 
ATOM     18  C   UNL     1      -1.231   3.136   0.070  0.00  0.00    +0.011 A 
ATOM     19  C   UNL     1      -1.203   1.742   0.050  0.00  0.00    +0.015 A 
ATOM     20  C   UNL     1      -0.012   1.077   0.030  0.00  0.00    +0.018 A 
ATOM     21  C   UNL     1       1.192   1.791   0.019  0.00  0.00    +0.079 A 
BRANCH  16  23
ATOM     22  C   UNL     1       2.229   5.321   0.039  0.00  0.00    +0.277 C 
ATOM     23  O   UNL     1       2.331   3.896   0.023  0.00  0.00    -0.494 OA
ENDBRANCH  16  23
BRANCH  18  24
ATOM     24  S   UNL     1      -2.775   3.983   0.103  0.00  0.00    -0.128 S 
ATOM     25  C   UNL     1      -4.006   2.651   0.108  0.00  0.00    +0.090 C 
ENDBRANCH  18  24
ENDBRANCH   1  21
TORSDOF 6
