REMARK  Name = ZINC08719914
REMARK  7 active torsions:
REMARK  status: ('A' for Active; 'I' for Inactive)
REMARK    1  A    between atoms: C_1  and  C_2
REMARK    2  A    between atoms: C_2  and  C_3
REMARK    3  A    between atoms: C_3  and  N_4
REMARK    4  A    between atoms: C_14  and  C_16
REMARK    5  A    between atoms: C_17  and  C_25
REMARK    6  A    between atoms: C_25  and  S_26
REMARK    7  A    between atoms: S_26  and  C_27
REMARK                            x       y       z     vdW  Elec       q    Type
REMARK                         _______ _______ _______ _____ _____    ______ ____
ROOT
ATOM      1  N   UNL     1       2.095   0.638  -0.015  0.00  0.00    -0.312 N 
ATOM      2  C   UNL     1       1.321   1.786  -0.001  0.00  0.00    +0.070 A 
ATOM      3  C   UNL     1       1.611   3.142   0.003  0.00  0.00    +0.028 A 
ATOM      4  C   UNL     1       0.584   4.063   0.018  0.00  0.00    +0.002 A 
ATOM      5  C   UNL     1      -0.738   3.643   0.027  0.00  0.00    +0.002 A 
ATOM      6  C   UNL     1      -1.044   2.301   0.029  0.00  0.00    +0.030 A 
ATOM      7  C   UNL     1      -0.016   1.354   0.009  0.00  0.00    +0.091 A 
ATOM      8  N   UNL     1       0.002  -0.004   0.002  0.00  0.00    -0.214 NA
ATOM      9  C   UNL     1       1.241  -0.427  -0.012  0.00  0.00    +0.203 A 
ATOM     10  N   UNL     1       1.627  -1.755  -0.022  0.00  0.00    -0.249 N 
ATOM     11  C   UNL     1       0.694  -2.728  -0.019  0.00  0.00    +0.286 C 
ATOM     12  O   UNL     1      -0.487  -2.438  -0.006  0.00  0.00    -0.266 OA
ATOM     13  H   UNL     1       2.569  -1.986  -0.032  0.00  0.00    +0.158 HD
ENDROOT
BRANCH  11  14
ATOM     14  C   UNL     1       1.104  -4.138  -0.030  0.00  0.00    +0.195 A 
ATOM     15  C   UNL     1       0.256  -5.199  -0.022  0.00  0.00    +0.020 A 
ATOM     16  C   UNL     1       1.100  -6.393  -0.041  0.00  0.00    +0.025 A 
ATOM     17  C   UNL     1       0.844  -7.767  -0.045  0.00  0.00    +0.012 A 
ATOM     18  C   UNL     1       1.887  -8.650  -0.059  0.00  0.00    +0.001 A 
ATOM     19  C   UNL     1       3.197  -8.191  -0.069  0.00  0.00    +0.004 A 
ATOM     20  C   UNL     1       3.471  -6.840  -0.064  0.00  0.00    +0.047 A 
ATOM     21  C   UNL     1       2.426  -5.923  -0.051  0.00  0.00    +0.136 A 
ATOM     22  O   UNL     1       2.381  -4.576  -0.043  0.00  0.00    -0.450 OA
BRANCH  15  23
ATOM     23  C   UNL     1      -1.250  -5.155  -0.001  0.00  0.00    +0.108 C 
BRANCH  23  24
ATOM     24  S   UNL     1      -1.878  -5.132  -1.703  0.00  0.00    -0.159 S 
ATOM     25  C   UNL     1      -3.681  -5.079  -1.506  0.00  0.00    +0.084 C 
ENDBRANCH  23  24
ENDBRANCH  15  23
ENDBRANCH  11  14
BRANCH   1  26
ATOM     26  C   UNL     1       3.559   0.578  -0.029  0.00  0.00    +0.125 C 
BRANCH  26  28
ATOM     27  C   UNL     1       5.583   0.501  -1.492  0.00  0.00    +0.005 C 
ATOM     28  C   UNL     1       4.054   0.564  -1.477  0.00  0.00    +0.018 C 
ENDBRANCH  26  28
ENDBRANCH   1  26
TORSDOF 5
