REMARK  Name = ZINC49523605
REMARK  8 active torsions:
REMARK  status: ('A' for Active; 'I' for Inactive)
REMARK    1  A    between atoms: C_1  and  S_2
REMARK    2  A    between atoms: S_2  and  N_5
REMARK    3  A    between atoms: C_12  and  N_15
REMARK    4  A    between atoms: C_16  and  C_18
REMARK    5  A    between atoms: N_20  and  C_21
REMARK    6  A    between atoms: C_21  and  C_22
REMARK    7  A    between atoms: C_28  and  C_30
REMARK    8  A    between atoms: C_31  and  C_32
REMARK                            x       y       z     vdW  Elec       q    Type
REMARK                         _______ _______ _______ _____ _____    ______ ____
ROOT
ATOM      1  C   UNL     1       7.393   0.943   1.615  0.00  0.00    +0.299 C 
ATOM      2  O   UNL     1       6.858   1.300   2.644  0.00  0.00    -0.265 OA
ATOM      3  N   UNL     1       8.736   0.961   1.512  0.00  0.00    -0.307 N 
ATOM      4  H   UNL     1       9.164   0.675   0.689  0.00  0.00    +0.149 HD
ENDROOT
BRANCH   1   6
ATOM      5  N   UNL     1       5.218   0.465   0.565  0.00  0.00    -0.278 N 
ATOM      6  C   UNL     1       6.562   0.483   0.462  0.00  0.00    +0.303 C 
ATOM      7  O   UNL     1       7.096   0.125  -0.567  0.00  0.00    -0.265 OA
ATOM      8  H   UNL     1       4.787   0.821   1.358  0.00  0.00    +0.155 HD
BRANCH   5  16
ATOM      9  N   UNL     1       1.191   0.515  -2.076  0.00  0.00    -0.207 N 
ATOM     10  C   UNL     1       0.518   0.166  -3.335  0.00  0.00    +0.131 C 
ATOM     11  C   UNL     1       0.633  -1.353  -3.521  0.00  0.00    +0.025 C 
ATOM     12  C   UNL     1       2.110  -1.723  -3.660  0.00  0.00    +0.038 C 
ATOM     13  C   UNL     1       2.910  -1.131  -2.530  0.00  0.00    -0.025 A 
ATOM     14  C   UNL     1       2.440  -0.050  -1.796  0.00  0.00    +0.056 A 
ATOM     15  C   UNL     1       3.205   0.481  -0.766  0.00  0.00    +0.048 A 
ATOM     16  C   UNL     1       4.445  -0.067  -0.470  0.00  0.00    +0.036 A 
ATOM     17  C   UNL     1       4.915  -1.147  -1.208  0.00  0.00    +0.024 A 
ATOM     18  C   UNL     1       4.146  -1.679  -2.227  0.00  0.00    +0.007 A 
BRANCH   9  20
ATOM     19  C   UNL     1       1.255   3.172  -1.359  0.00  0.00    +0.218 C 
ATOM     20  S   UNL     1       0.485   1.567  -1.010  0.00  0.00    +0.043 S 
ATOM     21  O   UNL     1       0.882   1.103   0.273  0.00  0.00    -0.155 OA
ATOM     22  O   UNL     1      -0.887   1.592  -1.379  0.00  0.00    -0.155 OA
ENDBRANCH   9  20
ENDBRANCH   5  16
ENDBRANCH   1   6
BRANCH   3  23
ATOM     23  C   UNL     1       9.552   1.412   2.642  0.00  0.00    +0.108 C 
BRANCH  23  24
ATOM     24  C   UNL     1      11.033   1.334   2.266  0.00  0.00    +0.009 C 
ATOM     25  C   UNL     1      11.426  -0.127   2.039  0.00  0.00    +0.024 C 
ATOM     26  C   UNL     1      12.900  -0.198   1.629  0.00  0.00    +0.108 C 
ATOM     27  N   UNL     1      13.707   0.493   2.644  0.00  0.00    -0.298 N 
ATOM     28  C   UNL     1      13.357   1.874   3.004  0.00  0.00    +0.108 C 
ATOM     29  C   UNL     1      11.878   1.922   3.399  0.00  0.00    +0.024 C 
ATOM     30  C   UNL     1      14.747  -0.128   3.234  0.00  0.00    +0.240 C 
ATOM     31  O   UNL     1      14.967  -1.302   3.001  0.00  0.00    -0.271 OA
BRANCH  30  32
ATOM     32  C   UNL     1      15.585   0.586   4.125  0.00  0.00    +0.071 C 
ATOM     33  C   UNL     1      16.689  -0.009   4.641  0.00  0.00    +0.051 C 
BRANCH  33  34
ATOM     34  C   UNL     1      17.526   0.704   5.532  0.00  0.00    +0.128 A 
ATOM     35  C   UNL     1      18.677   0.227   6.124  0.00  0.00    +0.049 A 
ATOM     36  C   UNL     1      19.177   1.267   6.922  0.00  0.00    +0.042 A 
ATOM     37  C   UNL     1      18.333   2.314   6.789  0.00  0.00    +0.195 A 
ATOM     38  O   UNL     1      17.345   1.975   5.949  0.00  0.00    -0.464 OA
ENDBRANCH  33  34
ENDBRANCH  30  32
ENDBRANCH  23  24
ENDBRANCH   3  23
TORSDOF 7
