REMARK  Name = ZINC63250122
REMARK  7 active torsions:
REMARK  status: ('A' for Active; 'I' for Inactive)
REMARK    1  A    between atoms: C_1  and  O_2
REMARK    2  A    between atoms: O_2  and  C_3
REMARK    3  A    between atoms: C_5  and  C_12
REMARK    4  A    between atoms: C_7  and  O_10
REMARK    5  A    between atoms: C_8  and  O_9
REMARK    6  A    between atoms: O_10  and  C_11
REMARK    7  A    between atoms: CA_25  and  C_28
REMARK                            x       y       z     vdW  Elec       q    Type
REMARK                         _______ _______ _______ _____ _____    ______ ____
ROOT
ATOM      1  C   UNL     1      -5.206  -0.260   0.140  0.00  0.00    +0.111 C 
ATOM      2  C   UNL     1      -5.925  -0.524   1.466  0.00  0.00    +0.128 C 
ATOM      3  C   UNL     1      -6.165  -2.028   1.528  0.00  0.00    -0.035 C 
ATOM      4  C   UNL     1      -5.647  -2.443   2.675  0.00  0.00    -0.001 A 
ATOM      5  C   UNL     1      -5.643  -3.761   3.331  0.00  0.00    +0.010 A 
ATOM      6  C   UNL     1      -4.992  -3.837   4.522  0.00  0.00    +0.001 A 
ATOM      7  C   UNL     1      -4.353  -2.746   5.120  0.00  0.00    +0.002 A 
ATOM      8  C   UNL     1      -4.312  -1.497   4.591  0.00  0.00    +0.026 A 
ATOM      9  C   UNL     1      -4.966  -1.291   3.342  0.00  0.00    +0.043 A 
ATOM     10  N   UNL     1      -5.102  -0.191   2.628  0.00  0.00    -0.376 N 
ATOM     11  C   UNL     1      -6.793  -2.778   0.379  0.00  0.00    +0.063 C 
ATOM     12  CA  UNL     1      -6.052  -2.319  -0.890  0.00  0.00    +0.172 C 
ATOM     13  N   UNL     1      -6.002  -0.854  -0.945  0.00  0.00    -0.295 NA
ATOM     14  H   UNL     1      -6.931  -0.462  -0.968  0.00  0.00    +0.123 HD
ATOM     15  H   UNL     1      -4.727   0.682   2.826  0.00  0.00    +0.160 HD
ENDROOT
BRANCH   1  18
ATOM     16  C   UNL     1      -1.557  -0.939  -0.573  0.00  0.00    +0.165 A 
ATOM     17  C   UNL     1      -2.818  -0.362  -0.598  0.00  0.00    +0.055 A 
ATOM     18  C   UNL     1      -3.838  -0.891   0.170  0.00  0.00    -0.021 A 
ATOM     19  C   UNL     1      -3.606  -1.997   0.967  0.00  0.00    +0.055 A 
ATOM     20  C   UNL     1      -2.348  -2.580   0.997  0.00  0.00    +0.165 A 
ATOM     21  C   UNL     1      -1.321  -2.054   0.222  0.00  0.00    +0.201 A 
BRANCH  16  23
ATOM     22  C   UNL     1      -0.869   0.729  -2.122  0.00  0.00    +0.277 C 
ATOM     23  O   UNL     1      -0.554  -0.418  -1.330  0.00  0.00    -0.491 OA
ENDBRANCH  16  23
BRANCH  21  24
ATOM     24  O   UNL     1      -0.087  -2.627   0.245  0.00  0.00    -0.501 OA
ATOM     25  H   UNL     1       0.501  -2.266   0.922  0.00  0.00    +0.292 HD
ENDBRANCH  21  24
BRANCH  20  26
ATOM     26  O   UNL     1      -2.121  -3.667   1.781  0.00  0.00    -0.491 OA
ATOM     27  C   UNL     1      -3.221  -4.152   2.553  0.00  0.00    +0.277 C 
ENDBRANCH  20  26
ENDBRANCH   1  18
BRANCH  12  28
ATOM     28  C   UNL     1      -4.647  -2.863  -0.872  0.00  0.00    +0.373 C 
ATOM     29  O   UNL     1      -4.367  -3.803  -0.148  0.00  0.00    -0.245 OA
ATOM     30  OXT UNL     1      -3.790  -2.363  -1.582  0.00  0.00    -0.245 OA
ENDBRANCH  12  28
TORSDOF 5
