REMARK  Name = ZINC50211034
REMARK  7 active torsions:
REMARK  status: ('A' for Active; 'I' for Inactive)
REMARK    1  A    between atoms: C_1  and  C_2
REMARK    2  A    between atoms: C_2  and  C_4
REMARK    3  A    between atoms: C_2  and  O_21
REMARK    4  A    between atoms: C_9  and  O_10
REMARK    5  A    between atoms: O_10  and  C_11
REMARK    6  A    between atoms: C_11  and  C_13
REMARK    7  A    between atoms: C_11  and  C_14
REMARK                            x       y       z     vdW  Elec       q    Type
REMARK                         _______ _______ _______ _____ _____    ______ ____
ROOT
ATOM      1  O   UNL     1       2.812  -0.279   0.092  0.00  0.00    -0.480 OA
ENDROOT
BRANCH   1   7
ATOM      2  C   UNL     1       0.731  -0.714   1.160  0.00  0.00    +0.024 A 
ATOM      3  C   UNL     1       0.023  -1.266   2.210  0.00  0.00    +0.029 A 
ATOM      4  C   UNL     1       0.693  -1.914   3.232  0.00  0.00    +0.042 A 
ATOM      5  C   UNL     1       2.074  -2.012   3.205  0.00  0.00    +0.023 A 
ATOM      6  C   UNL     1       2.785  -1.462   2.156  0.00  0.00    +0.047 A 
ATOM      7  C   UNL     1       2.114  -0.816   1.127  0.00  0.00    +0.127 A 
ATOM      8 CL   UNL     1      -0.198  -2.606   4.551  0.00  0.00    -0.084 Cl
BRANCH   2  10
ATOM      9  C   UNL     1      -0.029   1.496   0.330  0.00  0.00    +0.043 C 
ATOM     10  C   UNL     1       0.001  -0.008   0.047  0.00  0.00    +0.145 C 
BRANCH  10  11
ATOM     11  O   UNL     1      -1.337  -0.504  -0.035  0.00  0.00    -0.387 OA
ATOM     12  H   UNL     1      -1.395  -1.452  -0.213  0.00  0.00    +0.210 HD
ENDBRANCH  10  11
ENDBRANCH   2  10
ENDBRANCH   1   7
BRANCH   1  13
ATOM     13  C   UNL     1       4.237  -0.311   0.184  0.00  0.00    +0.256 C 
ATOM     14  C   UNL     1       4.751  -1.660  -0.321  0.00  0.00    +0.062 C 
BRANCH  13  15
ATOM     15  C   UNL     1       4.820   0.796  -0.657  0.00  0.00    +0.261 C 
ATOM     16  O   UNL     1       4.087   1.538  -1.274  0.00  0.00    -0.271 OA
ATOM     17  N   UNL     1       6.156   0.960  -0.722  0.00  0.00    -0.237 N 
ATOM     18  C   UNL     1       6.677   1.950  -1.474  0.00  0.00    +0.303 C 
ATOM     19  O   UNL     1       5.942   2.694  -2.093  0.00  0.00    -0.253 OA
ATOM     20  N   UNL     1       8.013   2.114  -1.540  0.00  0.00    -0.313 N 
ATOM     21  H   UNL     1       6.743   0.366  -0.228  0.00  0.00    +0.159 HD
ATOM     22  H   UNL     1       8.600   1.520  -1.046  0.00  0.00    +0.146 HD
ATOM     23  H   UNL     1       8.388   2.826  -2.081  0.00  0.00    +0.146 HD
ENDBRANCH  13  15
ENDBRANCH   1  13
TORSDOF 5
