REMARK  Name = ZINC20503258
REMARK  5 active torsions:
REMARK  status: ('A' for Active; 'I' for Inactive)
REMARK    1  A    between atoms: C_14  and  C_27
REMARK    2  A    between atoms: N_16  and  C_17
REMARK    3  A    between atoms: C_17  and  C_18
REMARK    4  A    between atoms: N_20  and  C_21
REMARK    5  A    between atoms: C_21  and  C_22
REMARK                            x       y       z     vdW  Elec       q    Type
REMARK                         _______ _______ _______ _____ _____    ______ ____
ROOT
ATOM      1  C   UNL     1       2.576   9.947   0.026  0.00  0.00    +0.002 A 
ATOM      2  C   UNL     1       1.885   8.785   0.327  0.00  0.00    +0.002 A 
ATOM      3  C   UNL     1       2.378   7.917   1.282  0.00  0.00    +0.025 A 
ATOM      4  C   UNL     1       3.561   8.199   1.942  0.00  0.00    +0.052 A 
ATOM      5  C   UNL     1       4.286   9.368   1.629  0.00  0.00    +0.052 A 
ATOM      6  C   UNL     1       3.760  10.239   0.664  0.00  0.00    +0.025 A 
ATOM      7  N   UNL     1       5.455   9.666   2.217  0.00  0.00    -0.316 N 
ATOM      8  C   UNL     1       5.917   9.560   3.412  0.00  0.00    +0.017 C 
ATOM      9  C   UNL     1       7.196  10.332   3.701  0.00  0.00    +0.051 C 
ATOM     10  C   UNL     1       7.154  10.855   5.137  0.00  0.00    +0.014 C 
ATOM     11  C   UNL     1       7.037   9.654   6.080  0.00  0.00    +0.080 C 
ATOM     12  C   UNL     1       5.832   8.845   5.706  0.00  0.00    +0.163 C 
ATOM     13  C   UNL     1       5.328   8.812   4.455  0.00  0.00    +0.040 C 
ATOM     14  C   UNL     1       4.130   7.959   4.219  0.00  0.00    +0.175 C 
ATOM     15  N   UNL     1       4.052   7.355   2.916  0.00  0.00    -0.306 N 
ATOM     16  O   UNL     1       5.222   8.115   6.665  0.00  0.00    -0.292 OA
ATOM     17  H   UNL     1       6.084  10.087   1.419  0.00  0.00    +0.152 HD
ENDROOT
BRANCH  14  18
ATOM     18  C   UNL     1       4.121   6.861   5.251  0.00  0.00    +0.130 A 
ATOM     19  C   UNL     1       3.232   6.729   6.252  0.00  0.00    +0.047 A 
ATOM     20  C   UNL     1       3.595   5.569   6.973  0.00  0.00    +0.041 A 
ATOM     21  C   UNL     1       4.685   5.061   6.370  0.00  0.00    +0.195 A 
ATOM     22  O   UNL     1       4.995   5.844   5.324  0.00  0.00    -0.466 OA
ENDBRANCH  14  18
BRANCH  15  23
ATOM     23  C   UNL     1       3.287   6.102   2.961  0.00  0.00    +0.201 C 
BRANCH  23  24
ATOM     24  C   UNL     1       1.887   6.386   3.440  0.00  0.00    +0.231 C 
ATOM     25  O   UNL     1       1.568   7.515   3.748  0.00  0.00    -0.274 OA
ATOM     26  N   UNL     1       0.988   5.385   3.527  0.00  0.00    -0.307 N 
ATOM     27  H   UNL     1       1.277   4.361   3.247  0.00  0.00    +0.149 HD
BRANCH  26  28
ATOM     28  C   UNL     1      -0.373   5.661   3.993  0.00  0.00    +0.178 C 
BRANCH  28  29
ATOM     29  C   UNL     1      -1.171   4.382   3.996  0.00  0.00    +0.122 A 
ATOM     30  C   UNL     1      -1.275   3.523   5.026  0.00  0.00    +0.046 A 
ATOM     31  C   UNL     1      -2.120   2.473   4.599  0.00  0.00    +0.041 A 
ATOM     32  C   UNL     1      -2.475   2.749   3.331  0.00  0.00    +0.195 A 
ATOM     33  O   UNL     1      -1.900   3.908   2.973  0.00  0.00    -0.466 OA
ENDBRANCH  28  29
ENDBRANCH  26  28
ENDBRANCH  23  24
ENDBRANCH  15  23
TORSDOF 5
