REMARK  Name = ZINC00128749
REMARK  5 active torsions:
REMARK  status: ('A' for Active; 'I' for Inactive)
REMARK    1  A    between atoms: C_4  and  C_7
REMARK    2  A    between atoms: C_10  and  C_11
REMARK    3  A    between atoms: C_10  and  C_13
REMARK    4  A    between atoms: C_15  and  C_19
REMARK    5  A    between atoms: C_16  and  N_18
REMARK                            x       y       z     vdW  Elec       q    Type
REMARK                         _______ _______ _______ _____ _____    ______ ____
ROOT
ATOM      1  C   UNL     1       0.002  -0.004   0.002  0.00  0.00    +0.239 C 
ATOM      2  C   UNL     1      -0.163  -0.524  -1.411  0.00  0.00    +0.047 C 
ATOM      3  C   UNL     1       0.675  -0.300  -2.494  0.00  0.00    +0.137 C 
ATOM      4  C   UNL     1      -1.349  -1.286  -1.390  0.00  0.00    +0.117 C 
ATOM      5  C   UNL     1      -1.889  -1.259  -0.104  0.00  0.00    +0.197 C 
ATOM      6  O   UNL     1      -1.139  -0.529   0.737  0.00  0.00    -0.466 OA
ENDROOT
BRANCH   1  10
ATOM      7  C   UNL     1      -0.056   4.267   0.025  0.00  0.00    +0.000 A 
ATOM      8  C   UNL     1       1.151   3.592   0.010  0.00  0.00    +0.000 A 
ATOM      9  C   UNL     1       1.169   2.210   0.003  0.00  0.00    +0.007 A 
ATOM     10  C   UNL     1      -0.018   1.503   0.010  0.00  0.00    -0.003 A 
ATOM     11  C   UNL     1      -1.225   2.178   0.020  0.00  0.00    +0.007 A 
ATOM     12  C   UNL     1      -1.244   3.560   0.032  0.00  0.00    +0.000 A 
ENDBRANCH   1  10
BRANCH   5  13
ATOM     13  N   UNL     1      -3.035  -1.896   0.254  0.00  0.00    -0.329 N 
ATOM     14  H   UNL     1      -3.530  -2.410  -0.403  0.00  0.00    +0.145 HD
ATOM     15  H   UNL     1      -3.357  -1.838   1.167  0.00  0.00    +0.145 HD
ENDBRANCH   5  13
BRANCH   3  16
ATOM     16  C   UNL     1       0.365  -0.873  -3.769  0.00  0.00    +0.111 C 
ATOM     17  N   UNL     1       0.120  -1.328  -4.781  0.00  0.00    -0.190 NA
ENDBRANCH   3  16
BRANCH   3  18
ATOM     18  C   UNL     1       1.848   0.506  -2.337  0.00  0.00    +0.111 C 
ATOM     19  N   UNL     1       2.779   1.145  -2.213  0.00  0.00    -0.190 NA
ENDBRANCH   3  18
BRANCH   4  20
ATOM     20  C   UNL     1      -1.910  -1.977  -2.511  0.00  0.00    +0.105 C 
ATOM     21  N   UNL     1      -2.356  -2.526  -3.401  0.00  0.00    -0.191 NA
ENDBRANCH   4  20
TORSDOF 5
