REMARK  Name = ZINC48987416
REMARK  4 active torsions:
REMARK  status: ('A' for Active; 'I' for Inactive)
REMARK    1  A    between atoms: C_1  and  C_2
REMARK    2  A    between atoms: C_2  and  C_4
REMARK    3  A    between atoms: C_2  and  S_14
REMARK    4  A    between atoms: S_14  and  C_15
REMARK                            x       y       z     vdW  Elec       q    Type
REMARK                         _______ _______ _______ _____ _____    ______ ____
ROOT
ATOM      1  C   UNL     1       0.707  -0.490  -1.238  0.00  0.00    -0.027 A 
ATOM      2  C   UNL     1       2.032  -0.802  -1.194  0.00  0.00    +0.005 A 
ATOM      3  C   UNL     1       2.701  -1.253  -2.330  0.00  0.00    +0.001 A 
ATOM      4  C   UNL     1       2.050  -1.394  -3.517  0.00  0.00    +0.008 A 
ATOM      5  C   UNL     1       0.682  -1.081  -3.601  0.00  0.00    -0.018 A 
ATOM      6  C   UNL     1       0.000  -0.629  -2.444  0.00  0.00    -0.014 A 
ATOM      7  C   UNL     1      -1.369  -0.321  -2.527  0.00  0.00    +0.009 A 
ATOM      8  C   UNL     1      -2.021  -0.468  -3.713  0.00  0.00    +0.001 A 
ATOM      9  C   UNL     1      -1.351  -0.919  -4.849  0.00  0.00    +0.001 A 
ATOM     10  C   UNL     1      -0.023  -1.213  -4.809  0.00  0.00    +0.008 A 
ENDROOT
BRANCH   1  12
ATOM     11  C   UNL     1      -0.019   1.526   0.010  0.00  0.00    +0.024 C 
ATOM     12  C   UNL     1       0.002  -0.004   0.002  0.00  0.00    +0.082 C 
BRANCH  12  13
ATOM     13  S   UNL     1       0.879  -0.605   1.472  0.00  0.00    -0.079 S 
BRANCH  13  14
ATOM     14  C   UNL     1      -0.136  -0.087   2.816  0.00  0.00    +0.185 A 
ATOM     15  N   UNL     1      -1.266   0.582   2.721  0.00  0.00    -0.209 NA
ATOM     16  H   UNL     1       0.862  -0.782   4.506  0.00  0.00    +0.191 HD
ATOM     17  C   UNL     1      -1.761   0.802   3.939  0.00  0.00    +0.245 A 
ATOM     18  N   UNL     1      -0.959   0.280   4.828  0.00  0.00    -0.160 NA
ATOM     19  N   UNL     1       0.104  -0.310   4.126  0.00  0.00    -0.254 N 
ENDBRANCH  13  14
ENDBRANCH  12  13
ENDBRANCH   1  12
TORSDOF 3
