REMARK  Name = ZINC56689661
REMARK  6 active torsions:
REMARK  status: ('A' for Active; 'I' for Inactive)
REMARK    1  A    between atoms: C_1  and  C_2
REMARK    2  A    between atoms: C_2  and  C_4
REMARK    3  A    between atoms: C_2  and  N_10
REMARK    4  A    between atoms: N_13  and  C_14
REMARK    5  A    between atoms: C_19  and  C_20
REMARK    6  A    between atoms: C_20  and  N_21
REMARK                            x       y       z     vdW  Elec       q    Type
REMARK                         _______ _______ _______ _____ _____    ______ ____
ROOT
ATOM      1  C   UNL     1      -4.092  -1.179  -2.297  0.00  0.00    +0.039 A 
ATOM      2  C   UNL     1      -3.533  -0.860  -3.528  0.00  0.00    +0.023 A 
ATOM      3  C   UNL     1      -4.302  -0.931  -4.673  0.00  0.00    +0.002 A 
ATOM      4  C   UNL     1      -5.628  -1.319  -4.594  0.00  0.00    +0.000 A 
ATOM      5  C   UNL     1      -6.187  -1.637  -3.370  0.00  0.00    +0.007 A 
ATOM      6  C   UNL     1      -5.421  -1.574  -2.223  0.00  0.00    -0.009 A 
ENDROOT
BRANCH   1  10
ATOM      7  N   UNL     1      -1.679  -0.035   0.137  0.00  0.00    -0.294 N 
ATOM      8  C   UNL     1      -2.366  -0.160  -1.015  0.00  0.00    +0.304 C 
ATOM      9  O   UNL     1      -2.129   0.584  -1.948  0.00  0.00    -0.252 OA
ATOM     10  N   UNL     1      -3.315  -1.109  -1.135  0.00  0.00    -0.269 N 
ATOM     11  H   UNL     1      -1.868  -0.629   0.881  0.00  0.00    +0.151 HD
ATOM     12  H   UNL     1      -3.460  -1.744  -0.416  0.00  0.00    +0.156 HD
BRANCH   7  14
ATOM     13  C   UNL     1      -1.297   2.318   0.683  0.00  0.00    +0.030 C 
ATOM     14  C   UNL     1      -0.647   0.996   0.267  0.00  0.00    +0.100 C 
BRANCH  14  15
ATOM     15  C   UNL     1       0.368   0.571   1.330  0.00  0.00    +0.138 C 
ATOM     16  C   UNL     1       1.518   1.606   1.419  0.00  0.00    +0.035 C 
ATOM     17  C   UNL     1       2.012   1.373   2.873  0.00  0.00    +0.031 C 
ATOM     18  C   UNL     1       0.702   1.021   3.612  0.00  0.00    +0.160 C 
ATOM     19  O   UNL     1      -0.241   0.571   2.631  0.00  0.00    -0.375 OA
ENDBRANCH  14  15
ENDBRANCH   7  14
ENDBRANCH   1  10
BRANCH   6  20
ATOM     20  C   UNL     1      -6.030  -1.927  -0.890  0.00  0.00    +0.142 C 
BRANCH  20  21
ATOM     21  N   UNL     1      -6.393  -0.699  -0.178  0.00  0.00    -0.325 N 
ATOM     22  C   UNL     1      -5.510   0.038   0.730  0.00  0.00    +0.110 C 
ATOM     23  C   UNL     1      -6.340   1.237   1.216  0.00  0.00    +0.056 C 
ATOM     24  C   UNL     1      -7.675   1.081   0.521  0.00  0.00    -0.025 A 
ATOM     25  C   UNL     1      -7.628  -0.056  -0.271  0.00  0.00    +0.033 A 
ATOM     26  C   UNL     1      -8.754  -0.406  -1.020  0.00  0.00    +0.023 A 
ATOM     27  C   UNL     1      -9.890   0.373  -0.973  0.00  0.00    +0.002 A 
ATOM     28  C   UNL     1      -9.924   1.507  -0.182  0.00  0.00    +0.000 A 
ATOM     29  C   UNL     1      -8.817   1.855   0.570  0.00  0.00    +0.005 A 
ENDBRANCH  20  21
ENDBRANCH   6  20
TORSDOF 5
