REMARK  Name = ZINC39758910
REMARK  7 active torsions:
REMARK  status: ('A' for Active; 'I' for Inactive)
REMARK    1  A    between atoms: C_4  and  C_7
REMARK    2  A    between atoms: C_7  and  C_9
REMARK    3  A    between atoms: C_7  and  N_16
REMARK    4  A    between atoms: C_9  and  C_10
REMARK    5  A    between atoms: C_17  and  C_19
REMARK    6  A    between atoms: C_19  and  C_20
REMARK    7  A    between atoms: C_20  and  C_21
REMARK                            x       y       z     vdW  Elec       q    Type
REMARK                         _______ _______ _______ _____ _____    ______ ____
ROOT
ATOM      1  N   UNL     1       3.611  -1.865  -0.930  0.00  0.00    -0.308 N 
ATOM      2  C   UNL     1       4.721  -2.370  -1.504  0.00  0.00    +0.214 C 
ATOM      3  O   UNL     1       5.802  -1.868  -1.281  0.00  0.00    -0.276 OA
ATOM      4  H   UNL     1       2.747  -2.267  -1.108  0.00  0.00    +0.149 HD
ENDROOT
BRANCH   1   5
ATOM      5  C   UNL     1       3.711  -0.707  -0.038  0.00  0.00    +0.110 C 
BRANCH   5   9
ATOM      6  C   UNL     1      -0.017   1.378   0.010  0.00  0.00    +0.000 A 
ATOM      7  C   UNL     1       1.171   2.086   0.002  0.00  0.00    +0.000 A 
ATOM      8  C   UNL     1       2.377   1.411  -0.013  0.00  0.00    +0.005 A 
ATOM      9  C   UNL     1       2.396   0.029  -0.020  0.00  0.00    -0.027 A 
ATOM     10  C   UNL     1       1.208  -0.679  -0.012  0.00  0.00    +0.005 A 
ATOM     11  C   UNL     1       0.002  -0.004   0.002  0.00  0.00    +0.000 A 
ENDBRANCH   5   9
BRANCH   5  12
ATOM     12  C   UNL     1       4.049  -1.182   1.377  0.00  0.00    +0.099 C 
BRANCH  12  13
ATOM     13  C   UNL     1       5.419  -1.809   1.383  0.00  0.00    +0.086 A 
ATOM     14  N   UNL     1       5.682  -3.087   1.163  0.00  0.00    -0.350 N 
ATOM     15  H   UNL     1       5.028  -3.777   0.972  0.00  0.00    +0.166 HD
ATOM     16  C   UNL     1       7.017  -3.265   1.250  0.00  0.00    +0.101 A 
ATOM     17  C   UNL     1       7.564  -2.065   1.529  0.00  0.00    +0.101 A 
ATOM     18  N   UNL     1       6.557  -1.171   1.603  0.00  0.00    -0.350 N 
ATOM     19  H   UNL     1       6.651  -0.223   1.788  0.00  0.00    +0.166 HD
ENDBRANCH  12  13
ENDBRANCH   5  12
ENDBRANCH   1   5
BRANCH   2  20
ATOM     20  C   UNL     1       4.619  -3.561  -2.422  0.00  0.00    +0.098 C 
BRANCH  20  21
ATOM     21  C   UNL     1       6.012  -3.931  -2.935  0.00  0.00    +0.043 C 
BRANCH  21  22
ATOM     22  C   UNL     1       5.908  -5.140  -3.867  0.00  0.00    +0.134 C 
ATOM     23  N   UNL     1       7.236  -5.577  -4.317  0.00  0.00    -0.331 N 
ATOM     24  C   UNL     1       7.646  -6.862  -3.965  0.00  0.00    +0.042 A 
ATOM     25  C   UNL     1       8.878  -7.450  -4.304  0.00  0.00    +0.024 A 
ATOM     26  C   UNL     1       9.189  -8.729  -3.908  0.00  0.00    +0.002 A 
ATOM     27  C   UNL     1       8.302  -9.482  -3.161  0.00  0.00    +0.001 A 
ATOM     28  C   UNL     1       7.081  -8.928  -2.812  0.00  0.00    +0.016 A 
ATOM     29  C   UNL     1       6.770  -7.648  -3.210  0.00  0.00    +0.030 A 
ATOM     30  S   UNL     1       5.333  -6.629  -2.957  0.00  0.00    -0.101 S 
ATOM     31  H   UNL     1       7.807  -4.992  -4.840  0.00  0.00    +0.147 HD
ENDBRANCH  21  22
ENDBRANCH  20  21
ENDBRANCH   2  20
TORSDOF 7
