REMARK  Name = ZINC56604414
REMARK  11 active torsions:
REMARK  status: ('A' for Active; 'I' for Inactive)
REMARK    1  A    between atoms: C_1  and  C_2
REMARK    2  A    between atoms: C_7  and  O_8
REMARK    3  A    between atoms: O_8  and  C_9
REMARK    4  A    between atoms: C_9  and  C_10
REMARK    5  A    between atoms: C_10  and  C_11
REMARK    6  A    between atoms: C_11  and  N_12
REMARK    7  A    between atoms: N_12  and  C_13
REMARK    8  A    between atoms: N_16  and  C_17
REMARK    9  A    between atoms: C_20  and  O_23
REMARK   10  A    between atoms: O_23  and  C_24
REMARK   11  A    between atoms: C_24  and  C_25
REMARK                            x       y       z     vdW  Elec       q    Type
REMARK                         _______ _______ _______ _____ _____    ______ ____
ROOT
ATOM      1  N   UNL     1       0.070   0.152   7.235  0.00  0.00    -0.288 N 
ATOM      2  C   UNL     1      -1.199   0.586   7.824  0.00  0.00    +0.133 C 
ATOM      3  C   UNL     1       1.237   0.567   7.766  0.00  0.00    +0.306 C 
ATOM      4  O   UNL     1       2.290   0.207   7.276  0.00  0.00    -0.252 OA
ATOM      5  N   UNL     1       1.237   1.382   8.839  0.00  0.00    -0.269 N 
ATOM      6  H   UNL     1       0.399   1.724   9.189  0.00  0.00    +0.156 HD
ENDROOT
BRANCH   5   7
ATOM      7  C   UNL     1       2.447   1.737   9.450  0.00  0.00    +0.035 A 
ATOM      8  C   UNL     1       2.508   1.901  10.827  0.00  0.00    +0.027 A 
ATOM      9  C   UNL     1       3.701   2.251  11.428  0.00  0.00    +0.047 A 
ATOM     10  C   UNL     1       4.839   2.437  10.656  0.00  0.00    +0.121 A 
ATOM     11  C   UNL     1       4.778   2.273   9.280  0.00  0.00    +0.047 A 
ATOM     12  C   UNL     1       3.587   1.919   8.678  0.00  0.00    +0.027 A 
BRANCH  10  13
ATOM     13  O   UNL     1       6.013   2.781  11.249  0.00  0.00    -0.483 OA
BRANCH  13  14
ATOM     14  C   UNL     1       7.144   2.957  10.394  0.00  0.00    +0.324 C 
BRANCH  14  15
ATOM     15  C   UNL     1       8.347   3.332  11.222  0.00  0.00    +0.248 C 
ATOM     16  O   UNL     1       8.245   3.439  12.425  0.00  0.00    -0.272 OA
ATOM     17  N   UNL     1       9.535   3.550  10.624  0.00  0.00    -0.327 N 
ATOM     18  H   UNL     1       9.616   3.464   9.661  0.00  0.00    +0.145 HD
ATOM     19  H   UNL     1      10.309   3.792  11.157  0.00  0.00    +0.145 HD
ENDBRANCH  14  15
ENDBRANCH  13  14
ENDBRANCH  10  13
ENDBRANCH   5   7
BRANCH   1  20
ATOM     20  C   UNL     1       0.070  -0.734   6.068  0.00  0.00    +0.112 C 
BRANCH  20  21
ATOM     21  C   UNL     1       0.058   0.106   4.790  0.00  0.00    +0.060 C 
BRANCH  21  22
ATOM     22  C   UNL     1       0.058  -0.819   3.571  0.00  0.00    +0.230 C 
BRANCH  22  23
ATOM     23  O   UNL     1       0.047  -0.034   2.377  0.00  0.00    -0.492 OA
BRANCH  23  30
ATOM     24  C   UNL     1       0.024   1.499   0.004  0.00  0.00    +0.047 C 
ATOM     25  C   UNL     1       0.035  -0.008  -0.002  0.00  0.00    -0.009 A 
ATOM     26  C   UNL     1       0.040  -0.695  -1.201  0.00  0.00    +0.007 A 
ATOM     27  C   UNL     1       0.049  -2.077  -1.207  0.00  0.00    +0.000 A 
ATOM     28  C   UNL     1       0.054  -2.776  -0.014  0.00  0.00    +0.004 A 
ATOM     29  C   UNL     1       0.050  -2.095   1.187  0.00  0.00    +0.046 A 
ATOM     30  C   UNL     1       0.046  -0.707   1.196  0.00  0.00    +0.123 A 
ENDBRANCH  23  30
ENDBRANCH  22  23
ENDBRANCH  21  22
ENDBRANCH  20  21
ENDBRANCH   1  20
TORSDOF 9
