REMARK  Name = ZINC01061094
REMARK  6 active torsions:
REMARK  status: ('A' for Active; 'I' for Inactive)
REMARK    1  A    between atoms: C_1  and  S_2
REMARK    2  A    between atoms: S_2  and  C_3
REMARK    3  A    between atoms: C_6  and  C_9
REMARK    4  A    between atoms: C_22  and  C_24
REMARK    5  A    between atoms: C_27  and  S_30
REMARK    6  A    between atoms: S_30  and  C_31
REMARK                            x       y       z     vdW  Elec       q    Type
REMARK                         _______ _______ _______ _____ _____    ______ ____
ROOT
ATOM      1  C   UNL     1       2.984  -1.444   5.013  0.00  0.00    +0.013 C 
ATOM      2  C   UNL     1       3.108  -2.733   5.375  0.00  0.00    -0.021 C 
ATOM      3  C   UNL     1       2.609  -3.846   4.479  0.00  0.00    +0.037 C 
ATOM      4  C   UNL     1       1.907  -4.874   5.377  0.00  0.00    +0.009 C 
ATOM      5  C   UNL     1       2.925  -5.456   6.355  0.00  0.00    +0.035 C 
ATOM      6  C   UNL     1       3.640  -4.374   7.110  0.00  0.00    -0.017 C 
ATOM      7  C   UNL     1       3.742  -3.108   6.659  0.00  0.00    +0.072 C 
ATOM      8  N   UNL     1       4.415  -2.153   7.363  0.00  0.00    -0.214 NA
ATOM      9  C   UNL     1       5.009  -2.358   8.506  0.00  0.00    +0.232 C 
ATOM     10  N   UNL     1       5.719  -1.557   9.348  0.00  0.00    -0.231 N 
ATOM     11  N   UNL     1       6.108  -2.234  10.368  0.00  0.00    -0.086 NA
ATOM     12  N   UNL     1       5.715  -3.460  10.296  0.00  0.00    -0.165 N 
ATOM     13  N   UNL     1       4.998  -3.602   9.108  0.00  0.00    -0.193 N 
ATOM     14  C   UNL     1       4.293  -4.704   8.442  0.00  0.00    +0.157 C 
ATOM     15  H   UNL     1       5.888  -4.157  10.949  0.00  0.00    +0.195 HD
ATOM     16  H   UNL     1       5.903  -0.616   9.199  0.00  0.00    +0.193 HD
ENDROOT
BRANCH   1  20
ATOM     17  C   UNL     1       1.611  -0.454   1.121  0.00  0.00    +0.008 A 
ATOM     18  C   UNL     1       1.297   0.369   2.198  0.00  0.00    +0.015 A 
ATOM     19  C   UNL     1       1.741   0.051   3.462  0.00  0.00    +0.009 A 
ATOM     20  C   UNL     1       2.508  -1.101   3.663  0.00  0.00    -0.025 A 
ATOM     21  C   UNL     1       2.821  -1.926   2.578  0.00  0.00    +0.009 A 
ATOM     22  C   UNL     1       2.370  -1.605   1.318  0.00  0.00    +0.015 A 
BRANCH  17  24
ATOM     23  C   UNL     1       0.121   1.502  -0.256  0.00  0.00    +0.090 C 
ATOM     24  S   UNL     1       1.042  -0.043  -0.495  0.00  0.00    -0.129 S 
ENDBRANCH  17  24
ENDBRANCH   1  20
BRANCH  14  25
ATOM     25  C   UNL     1       5.289  -5.811   8.215  0.00  0.00    -0.021 A 
ATOM     26  C   UNL     1       6.539  -5.520   7.699  0.00  0.00    +0.007 A 
ATOM     27  C   UNL     1       7.454  -6.532   7.489  0.00  0.00    +0.015 A 
ATOM     28  C   UNL     1       7.118  -7.845   7.797  0.00  0.00    +0.008 A 
ATOM     29  C   UNL     1       5.861  -8.134   8.315  0.00  0.00    +0.015 A 
ATOM     30  C   UNL     1       4.953  -7.116   8.527  0.00  0.00    +0.007 A 
BRANCH  28  31
ATOM     31  S   UNL     1       8.283  -9.140   7.530  0.00  0.00    -0.129 S 
ATOM     32  C   UNL     1       7.407 -10.635   8.067  0.00  0.00    +0.090 C 
ENDBRANCH  28  31
ENDBRANCH  14  25
TORSDOF 4
