REMARK  Name = ZINC12930543
REMARK  9 active torsions:
REMARK  status: ('A' for Active; 'I' for Inactive)
REMARK    1  A    between atoms: C_1  and  C_2
REMARK    2  A    between atoms: C_2  and  C_3
REMARK    3  A    between atoms: C_2  and  C_4
REMARK    4  A    between atoms: C_7  and  C_10
REMARK    5  A    between atoms: C_12  and  C_15
REMARK    6  A    between atoms: N_17  and  C_18
REMARK    7  A    between atoms: C_18  and  C_19
REMARK    8  A    between atoms: C_22  and  S_24
REMARK    9  A    between atoms: S_24  and  N_27
REMARK                            x       y       z     vdW  Elec       q    Type
REMARK                         _______ _______ _______ _____ _____    ______ ____
ROOT
ATOM      1  C   UNL     1      -2.462   1.399   0.019  0.00  0.00    +0.263 C 
ATOM      2  O   UNL     1      -2.650   0.198   0.013  0.00  0.00    -0.269 OA
ATOM      3  N   UNL     1      -3.511   2.245   0.028  0.00  0.00    -0.305 N 
ATOM      4  H   UNL     1      -3.361   3.204   0.032  0.00  0.00    +0.149 HD
ENDROOT
BRANCH   1   7
ATOM      5  C   UNL     1       0.363   3.701   0.018  0.00  0.00    +0.109 A 
ATOM      6  N   UNL     1      -0.873   3.237   0.027  0.00  0.00    -0.234 NA
ATOM      7  C   UNL     1      -1.088   1.930   0.017  0.00  0.00    +0.133 A 
ATOM      8  C   UNL     1      -0.013   1.076   0.008  0.00  0.00    +0.080 A 
ATOM      9  S   UNL     1       1.317   2.192   0.001  0.00  0.00    -0.075 S 
BRANCH   5  13
ATOM     10  C   UNL     1       1.713   7.729   0.025  0.00  0.00    -0.045 A 
ATOM     11  C   UNL     1       2.632   6.695   0.011  0.00  0.00    +0.004 A 
ATOM     12  C   UNL     1       2.200   5.385   0.009  0.00  0.00    +0.011 A 
ATOM     13  C   UNL     1       0.833   5.104   0.021  0.00  0.00    +0.007 A 
ATOM     14  C   UNL     1      -0.088   6.152   0.029  0.00  0.00    +0.011 A 
ATOM     15  C   UNL     1       0.357   7.457   0.037  0.00  0.00    +0.004 A 
BRANCH  10  17
ATOM     16  C   UNL     1       1.658   9.877  -1.213  0.00  0.00    +0.012 C 
ATOM     17  C   UNL     1       2.192   9.158   0.028  0.00  0.00    +0.013 C 
ATOM     18  C   UNL     1       1.682   9.865   1.285  0.00  0.00    +0.012 C 
ENDBRANCH  10  17
ENDBRANCH   5  13
ENDBRANCH   1   7
BRANCH   3  19
ATOM     19  C   UNL     1      -4.878   1.718   0.030  0.00  0.00    +0.147 C 
BRANCH  19  20
ATOM     20  C   UNL     1      -5.858   2.862   0.040  0.00  0.00    +0.009 A 
ATOM     21  C   UNL     1      -6.417   3.516  -1.007  0.00  0.00    +0.015 A 
ATOM     22  C   UNL     1      -7.302   4.548  -0.758  0.00  0.00    +0.036 A 
ATOM     23  C   UNL     1      -7.585   4.876   0.527  0.00  0.00    +0.142 A 
ATOM     24  S   UNL     1      -6.590   3.703   1.434  0.00  0.00    -0.072 S 
BRANCH  23  25
ATOM     25  S   UNL     1      -8.660   6.129   1.142  0.00  0.00    +0.062 S 
ATOM     26  O   UNL     1      -8.208   6.446   2.451  0.00  0.00    -0.153 OA
ATOM     27  O   UNL     1      -8.772   7.107   0.117  0.00  0.00    -0.153 OA
BRANCH  25  28
ATOM     28  N   UNL     1     -10.160   5.447   1.311  0.00  0.00    -0.203 NA
ATOM     29  H   UNL     1     -10.298   4.515   1.080  0.00  0.00    +0.144 HD
ATOM     30  H   UNL     1     -10.900   5.980   1.641  0.00  0.00    +0.144 HD
ENDBRANCH  25  28
ENDBRANCH  23  25
ENDBRANCH  19  20
ENDBRANCH   3  19
TORSDOF 7
