REMARK  Name = ZINC36990555
REMARK  4 active torsions:
REMARK  status: ('A' for Active; 'I' for Inactive)
REMARK    1  A    between atoms: C_1  and  C_2
REMARK    2  A    between atoms: C_2  and  C_4
REMARK    3  A    between atoms: C_2  and  N_9
REMARK    4  A    between atoms: N_9  and  C_10
REMARK                            x       y       z     vdW  Elec       q    Type
REMARK                         _______ _______ _______ _____ _____    ______ ____
ROOT
ATOM      1  C   UNL     1       2.081  -0.591  -1.215  0.00  0.00    +0.046 A 
ATOM      2  C   UNL     1       2.743  -1.034  -2.359  0.00  0.00    +0.028 A 
ATOM      3  C   UNL     1       4.123  -1.131  -2.325  0.00  0.00    +0.050 A 
ATOM      4  C   UNL     1       4.798  -0.787  -1.161  0.00  0.00    +0.156 A 
ATOM      5  N   UNL     1       4.138  -0.370  -0.093  0.00  0.00    -0.234 NA
ATOM      6  C   UNL     1       2.824  -0.260  -0.090  0.00  0.00    +0.136 A 
ATOM      7  N   UNL     1       6.194  -0.882  -1.117  0.00  0.00    -0.202 N 
ATOM      8  C   UNL     1       6.991  -0.593  -0.070  0.00  0.00    +0.226 A 
ATOM      9  N   UNL     1       8.229  -0.813  -0.431  0.00  0.00    -0.222 NA
ATOM     10  C   UNL     1       8.264  -1.240  -1.693  0.00  0.00    +0.245 A 
ATOM     11  N   UNL     1       7.042  -1.305  -2.154  0.00  0.00    -0.152 NA
ENDROOT
BRANCH   1  12
ATOM     12  N   UNL     1       0.688  -0.476  -1.203  0.00  0.00    -0.333 N 
ATOM     13  H   UNL     1       0.175  -0.710  -1.993  0.00  0.00    +0.147 HD
BRANCH  12  15
ATOM     14  C   UNL     1      -0.019   1.526   0.010  0.00  0.00    +0.036 C 
ATOM     15  C   UNL     1       0.002  -0.004   0.002  0.00  0.00    +0.133 C 
BRANCH  15  16
ATOM     16  C   UNL     1      -1.412  -0.526   0.013  0.00  0.00    +0.125 A 
ATOM     17  C   UNL     1      -2.076  -0.977   1.092  0.00  0.00    +0.046 A 
ATOM     18  C   UNL     1      -3.361  -1.364   0.650  0.00  0.00    +0.041 A 
ATOM     19  C   UNL     1      -3.406  -1.127  -0.673  0.00  0.00    +0.195 A 
ATOM     20  O   UNL     1      -2.224  -0.614  -1.053  0.00  0.00    -0.466 OA
ENDBRANCH  15  16
ENDBRANCH  12  15
ENDBRANCH   1  12
TORSDOF 3
