REMARK  Name = ZINC01465213
REMARK  14 active torsions:
REMARK  status: ('A' for Active; 'I' for Inactive)
REMARK    1  A    between atoms: C_1  and  C_2
REMARK    2  A    between atoms: C_2  and  C_3
REMARK    3  A    between atoms: C_2  and  C_4
REMARK    4  A    between atoms: C_4  and  O_6
REMARK    5  A    between atoms: O_6  and  C_7
REMARK    6  A    between atoms: C_10  and  C_19
REMARK    7  A    between atoms: C_11  and  O_13
REMARK    8  A    between atoms: O_13  and  C_14
REMARK    9  A    between atoms: C_14  and  C_16
REMARK   10  A    between atoms: C_16  and  C_17
REMARK   11  A    between atoms: C_16  and  C_18
REMARK   12  A    between atoms: N_20  and  N_21
REMARK   13  A    between atoms: N_21  and  C_22
REMARK   14  A    between atoms: C_22  and  N_24
REMARK                            x       y       z     vdW  Elec       q    Type
REMARK                         _______ _______ _______ _____ _____    ______ ____
ROOT
ATOM      1  C   UNL     1       0.902  -4.694  -1.193  0.00  0.00    +0.135 A 
ATOM      2  C   UNL     1       2.153  -4.185  -0.866  0.00  0.00    +0.047 A 
ATOM      3  C   UNL     1       2.258  -3.013  -0.149  0.00  0.00    +0.017 A 
ATOM      4  C   UNL     1       1.105  -2.333   0.250  0.00  0.00    +0.037 A 
ATOM      5  C   UNL     1      -0.156  -2.852  -0.076  0.00  0.00    +0.144 A 
ATOM      6  C   UNL     1      -0.249  -4.027  -0.800  0.00  0.00    +0.093 A 
ENDROOT
BRANCH   4   7
ATOM      7  C   UNL     1       1.213  -1.079   1.017  0.00  0.00    +0.142 C 
ATOM      8  N   UNL     1       0.139  -0.450   1.387  0.00  0.00    -0.188 NA
BRANCH   8   9
ATOM      9  N   UNL     1       0.242   0.742   2.116  0.00  0.00    -0.219 N 
ATOM     10  H   UNL     1       1.115   1.097   2.344  0.00  0.00    +0.176 HD
BRANCH   9  11
ATOM     11  C   UNL     1      -0.872   1.398   2.495  0.00  0.00    +0.147 C 
ATOM     12  S   UNL     1      -0.747   2.854   3.386  0.00  0.00    -0.017 S 
BRANCH  11  13
ATOM     13  N   UNL     1      -2.086   0.907   2.173  0.00  0.00    -0.339 N 
ATOM     14  H   UNL     1      -2.157   0.082   1.669  0.00  0.00    +0.144 HD
ATOM     15  H   UNL     1      -2.888   1.380   2.446  0.00  0.00    +0.144 HD
ENDBRANCH  11  13
ENDBRANCH   9  11
ENDBRANCH   8   9
ENDBRANCH   4   7
BRANCH   1  16
ATOM     16  O   UNL     1       0.806  -5.851  -1.899  0.00  0.00    -0.426 OA
BRANCH  16  17
ATOM     17  C   UNL     1       1.135  -6.985  -1.260  0.00  0.00    +0.315 C 
ATOM     18  O   UNL     1       1.403  -6.958  -0.082  0.00  0.00    -0.250 OA
BRANCH  17  20
ATOM     19  C   UNL     1       1.572  -9.418  -1.057  0.00  0.00    +0.019 C 
ATOM     20  C   UNL     1       1.171  -8.291  -2.011  0.00  0.00    +0.092 C 
ATOM     21  C   UNL     1      -0.213  -8.583  -2.593  0.00  0.00    +0.019 C 
ENDBRANCH  17  20
ENDBRANCH  16  17
ENDBRANCH   1  16
BRANCH   5  22
ATOM     22  O   UNL     1      -1.283  -2.200   0.313  0.00  0.00    -0.425 OA
BRANCH  22  23
ATOM     23  C   UNL     1      -2.361  -2.954   0.581  0.00  0.00    +0.315 C 
ATOM     24  O   UNL     1      -2.272  -4.159   0.577  0.00  0.00    -0.250 OA
BRANCH  23  25
ATOM     25  C   UNL     1      -3.683  -2.297   0.885  0.00  0.00    +0.092 C 
ATOM     26  C   UNL     1      -4.115  -1.444  -0.309  0.00  0.00    +0.019 C 
ATOM     27  C   UNL     1      -4.738  -3.373   1.152  0.00  0.00    +0.019 C 
ENDBRANCH  23  25
ENDBRANCH  22  23
ENDBRANCH   5  22
TORSDOF 10
