REMARK  Name = ZINC19144536
REMARK  4 active torsions:
REMARK  status: ('A' for Active; 'I' for Inactive)
REMARK    1  A    between atoms: C_1  and  C_2
REMARK    2  A    between atoms: C_3  and  C_11
REMARK    3  A    between atoms: C_13  and  C_16
REMARK    4  A    between atoms: C_16  and  N_17
REMARK                            x       y       z     vdW  Elec       q    Type
REMARK                         _______ _______ _______ _____ _____    ______ ____
ROOT
ATOM      1  C   UNL     1      -2.520   1.411   0.043  0.00  0.00    +0.204 A 
ATOM      2  N   UNL     1      -3.767   1.935   0.064  0.00  0.00    -0.190 NA
ATOM      3  C   UNL     1      -4.580   0.909   0.068  0.00  0.00    +0.245 A 
ATOM      4  O   UNL     1      -3.823  -0.193   0.050  0.00  0.00    -0.336 OA
ATOM      5  N   UNL     1      -2.649   0.110   0.030  0.00  0.00    -0.056 NA
ENDROOT
BRANCH   1   8
ATOM      6  C   UNL     1      -2.562   4.307   0.052  0.00  0.00    +0.066 C 
ATOM      7  C   UNL     1      -1.251   3.564   0.036  0.00  0.00    +0.049 A 
ATOM      8  C   UNL     1      -1.245   2.171   0.032  0.00  0.00    +0.047 A 
ATOM      9  C   UNL     1      -0.018   1.500   0.010  0.00  0.00    -0.034 A 
ATOM     10  C   UNL     1       1.141   2.245   0.003  0.00  0.00    -0.043 A 
ATOM     11  C   UNL     1       1.052   3.629   0.015  0.00  0.00    +0.113 A 
ATOM     12  N   UNL     1      -0.118   4.236   0.031  0.00  0.00    -0.259 NA
ATOM     13  C   UNL     1       2.499   1.598  -0.019  0.00  0.00    -0.045 C 
ATOM     14  C   UNL     1       1.384  -0.502  -0.425  0.00  0.00    -0.077 C 
ATOM     15  C   UNL     1       0.002  -0.004   0.002  0.00  0.00    +0.017 C 
ATOM     16  N   UNL     1       2.405   0.188   0.386  0.00  0.00    +0.382 N 
ATOM     17  H   UNL     1       2.144   0.136   1.377  0.00  0.00    -0.085 HD
ATOM     18  H   UNL     1       3.315  -0.268   0.247  0.00  0.00    -0.085 HD
ENDBRANCH   1   8
BRANCH   3  19
ATOM     19  C   UNL     1      -6.086   0.960   0.089  0.00  0.00    +0.206 C 
BRANCH  19  20
ATOM     20  N   UNL     1      -6.593   0.986  -1.286  0.00  0.00    -0.292 N 
ATOM     21  C   UNL     1      -6.889  -0.277  -1.980  0.00  0.00    +0.108 C 
ATOM     22  C   UNL     1      -5.823  -0.508  -3.053  0.00  0.00    +0.019 C 
ATOM     23  C   UNL     1      -6.200   0.187  -4.348  0.00  0.00    +0.002 C 
ATOM     24  C   UNL     1      -6.192   1.702  -4.255  0.00  0.00    +0.009 C 
ATOM     25  C   UNL     1      -7.301   2.194  -3.321  0.00  0.00    +0.096 C 
ATOM     26  C   UNL     1      -6.788   2.155  -1.897  0.00  0.00    +0.216 C 
ATOM     27  O   UNL     1      -6.550   3.191  -1.312  0.00  0.00    -0.276 OA
ENDBRANCH  19  20
ENDBRANCH   3  19
TORSDOF 3
