REMARK  Name = ZINC04574505
REMARK  17 active torsions:
REMARK  status: ('A' for Active; 'I' for Inactive)
REMARK    1  A    between atoms: C_1  and  C_2
REMARK    2  A    between atoms: C_2  and  C_3
REMARK    3  A    between atoms: C_3  and  C_5
REMARK    4  A    between atoms: C_3  and  C_6
REMARK    5  A    between atoms: C_6  and  C_8
REMARK    6  A    between atoms: C_6  and  N_11
REMARK    7  A    between atoms: C_12  and  C_14
REMARK    8  A    between atoms: C_20  and  C_22
REMARK    9  A    between atoms: C_22  and  C_24
REMARK   10  A    between atoms: C_22  and  N_27
REMARK   11  A    between atoms: C_24  and  C_25
REMARK   12  A    between atoms: C_24  and  C_26
REMARK   13  A    between atoms: C_28  and  O_30
REMARK   14  A    between atoms: O_30  and  C_31
REMARK   15  A    between atoms: C_31  and  C_32
REMARK   16  A    between atoms: C_31  and  C_33
REMARK   17  A    between atoms: C_31  and  C_34
REMARK                            x       y       z     vdW  Elec       q    Type
REMARK                         _______ _______ _______ _____ _____    ______ ____
ROOT
ATOM      1  C   UNL     1       1.784   3.364   0.131  0.00  0.00    +0.162 C 
ATOM      2  C   UNL     1       0.813   4.488  -0.287  0.00  0.00    +0.033 C 
ATOM      3  C   UNL     1       1.769   5.606  -0.781  0.00  0.00    +0.021 C 
ATOM      4  C   UNL     1       2.899   4.779  -1.443  0.00  0.00    +0.109 C 
ATOM      5  N   UNL     1       3.047   3.589  -0.585  0.00  0.00    -0.288 N 
ATOM      6  C   UNL     1       4.158   2.833  -0.476  0.00  0.00    +0.237 C 
ATOM      7  O   UNL     1       4.139   1.820   0.192  0.00  0.00    -0.274 OA
ENDROOT
BRANCH   1   9
ATOM      8  N   UNL     1       0.047   1.609   0.291  0.00  0.00    -0.302 N 
ATOM      9  C   UNL     1       1.210   2.023  -0.250  0.00  0.00    +0.234 C 
ATOM     10  O   UNL     1       1.794   1.317  -1.045  0.00  0.00    -0.274 OA
ATOM     11  H   UNL     1      -0.423   2.176   0.923  0.00  0.00    +0.150 HD
BRANCH   8  12
ATOM     12  C   UNL     1      -0.511   0.307  -0.080  0.00  0.00    +0.161 C 
BRANCH  12  13
ATOM     13  C   UNL     1       0.104  -0.767   0.780  0.00  0.00    +0.231 C 
ATOM     14  O   UNL     1       0.552  -0.487   1.872  0.00  0.00    -0.274 OA
ATOM     15  N   UNL     1       0.158  -2.038   0.336  0.00  0.00    -0.328 N 
ATOM     16  H   UNL     1      -0.265  -2.276  -0.504  0.00  0.00    +0.145 HD
ATOM     17  H   UNL     1       0.619  -2.715   0.856  0.00  0.00    +0.145 HD
ENDBRANCH  12  13
BRANCH  12  18
ATOM     18  C   UNL     1      -2.026   0.322   0.130  0.00  0.00    +0.015 C 
ATOM     19  C   UNL     1      -2.663   1.337  -0.822  0.00  0.00    +0.010 C 
BRANCH  18  21
ATOM     20  C   UNL     1      -3.849   0.676   1.802  0.00  0.00    +0.004 C 
ATOM     21  C   UNL     1      -2.337   0.716   1.576  0.00  0.00    +0.002 C 
ENDBRANCH  18  21
ENDBRANCH  12  18
ENDBRANCH   8  12
ENDBRANCH   1   9
BRANCH   6  22
ATOM     22  C   UNL     1       5.423   3.245  -1.183  0.00  0.00    +0.165 C 
BRANCH  22  23
ATOM     23  N   UNL     1       6.120   2.054  -1.673  0.00  0.00    -0.270 N 
ATOM     24  C   UNL     1       6.957   2.147  -2.725  0.00  0.00    +0.401 C 
ATOM     25  O   UNL     1       7.134   3.220  -3.267  0.00  0.00    -0.226 OA
ATOM     26  H   UNL     1       5.979   1.197  -1.239  0.00  0.00    +0.153 HD
BRANCH  24  27
ATOM     27  O   UNL     1       7.598   1.051  -3.175  0.00  0.00    -0.445 OA
BRANCH  27  28
ATOM     28  C   UNL     1       8.484   1.226  -4.312  0.00  0.00    +0.107 C 
ATOM     29  C   UNL     1       9.584   2.227  -3.952  0.00  0.00    +0.055 C 
ATOM     30  C   UNL     1       9.117  -0.118  -4.676  0.00  0.00    +0.055 C 
ATOM     31  C   UNL     1       7.684   1.754  -5.505  0.00  0.00    +0.055 C 
ENDBRANCH  27  28
ENDBRANCH  24  27
ENDBRANCH  22  23
BRANCH  22  32
ATOM     32  C   UNL     1       6.329   4.002  -0.209  0.00  0.00    +0.012 C 
ATOM     33  C   UNL     1       7.573   4.497  -0.948  0.00  0.00    +0.009 C 
ATOM     34  C   UNL     1       5.569   5.197   0.370  0.00  0.00    +0.009 C 
ENDBRANCH  22  32
ENDBRANCH   6  22
TORSDOF 10
