REMARK  Name = ZINC08296099
REMARK  7 active torsions:
REMARK  status: ('A' for Active; 'I' for Inactive)
REMARK    1  A    between atoms: C_3  and  C_6
REMARK    2  A    between atoms: C_6  and  N_7
REMARK    3  A    between atoms: N_9  and  C_27
REMARK    4  A    between atoms: C_12  and  O_26
REMARK    5  A    between atoms: C_14  and  O_25
REMARK    6  A    between atoms: C_17  and  C_22
REMARK    7  A    between atoms: C_27  and  C_28
REMARK                            x       y       z     vdW  Elec       q    Type
REMARK                         _______ _______ _______ _____ _____    ______ ____
ROOT
ATOM      1  N   UNL     1       4.954   4.737  -2.098  0.00  0.00    -0.256 NA
ATOM      2  C   UNL     1       4.216   4.274  -1.128  0.00  0.00    +0.153 C 
ATOM      3  N   UNL     1       2.853   4.286  -1.042  0.00  0.00    -0.303 N 
ATOM      4  C   UNL     1       2.214   3.803   0.153  0.00  0.00    +0.120 C 
ATOM      5  C   UNL     1       0.852   3.211  -0.040  0.00  0.00    +0.164 C 
ATOM      6  C   UNL     1       0.864   1.685  -0.011  0.00  0.00    +0.146 C 
ATOM      7  C   UNL     1       1.501   1.235   1.308  0.00  0.00    +0.048 C 
ATOM      8  C   UNL     1       2.977   1.637   1.274  0.00  0.00    +0.092 C 
ATOM      9  C   UNL     1       3.145   3.140   1.147  0.00  0.00    +0.089 C 
ATOM     10  S   UNL     1       4.774   3.468   0.360  0.00  0.00    -0.085 S 
ENDROOT
BRANCH   8  11
ATOM     11  C   UNL     1       3.617   1.181   2.559  0.00  0.00    +0.215 C 
ATOM     12  O   UNL     1       4.150   1.987   3.292  0.00  0.00    -0.276 OA
ATOM     13  N   UNL     1       3.597  -0.124   2.896  0.00  0.00    -0.329 N 
ATOM     14  H   UNL     1       3.171  -0.769   2.310  0.00  0.00    +0.145 HD
ATOM     15  H   UNL     1       4.008  -0.418   3.723  0.00  0.00    +0.145 HD
ENDBRANCH   8  11
BRANCH   6  16
ATOM     16  O   UNL     1      -0.474   1.191  -0.093  0.00  0.00    -0.389 OA
ATOM     17  H   UNL     1      -0.539   0.227  -0.080  0.00  0.00    +0.210 HD
ENDBRANCH   6  16
BRANCH   5  18
ATOM     18  O   UNL     1       0.334   3.645  -1.299  0.00  0.00    -0.387 OA
ATOM     19  H   UNL     1      -0.568   3.343  -1.478  0.00  0.00    +0.210 HD
ENDBRANCH   5  18
BRANCH   1  20
ATOM     20  C   UNL     1       6.413   4.620  -2.030  0.00  0.00    +0.218 C 
BRANCH  20  23
ATOM     21  C   UNL     1       7.636   2.933  -5.069  0.00  0.00    +0.041 A 
ATOM     22  C   UNL     1       7.249   4.100  -4.371  0.00  0.00    +0.046 A 
ATOM     23  C   UNL     1       6.896   3.713  -3.132  0.00  0.00    +0.126 A 
ATOM     24  O   UNL     1       7.054   2.383  -3.042  0.00  0.00    -0.466 OA
ATOM     25  C   UNL     1       7.497   1.904  -4.215  0.00  0.00    +0.195 A 
ENDBRANCH  20  23
ENDBRANCH   1  20
BRANCH   3  26
ATOM     26  C   UNL     1       2.054   4.804  -2.155  0.00  0.00    +0.111 C 
BRANCH  26  27
ATOM     27  C   UNL     1       1.825   3.692  -3.180  0.00  0.00    +0.006 C 
ATOM     28  C   UNL     1       3.160   3.308  -3.823  0.00  0.00    +0.005 C 
ATOM     29  C   UNL     1       2.931   2.195  -4.848  0.00  0.00    +0.000 C 
ATOM     30  C   UNL     1       1.968   2.688  -5.929  0.00  0.00    +0.000 C 
ATOM     31  C   UNL     1       0.633   3.073  -5.287  0.00  0.00    +0.000 C 
ATOM     32  C   UNL     1       0.862   4.185  -4.262  0.00  0.00    +0.005 C 
ENDBRANCH  26  27
ENDBRANCH   3  26
TORSDOF 7
