REMARK  Name = ZINC67043333
REMARK  11 active torsions:
REMARK  status: ('A' for Active; 'I' for Inactive)
REMARK    1  A    between atoms: C_1  and  C_2
REMARK    2  A    between atoms: N_5  and  C_8
REMARK    3  A    between atoms: C_8  and  C_9
REMARK    4  A    between atoms: C_12  and  C_15
REMARK    5  A    between atoms: C_15  and  N_16
REMARK    6  A    between atoms: N_19  and  N_20
REMARK    7  A    between atoms: C_21  and  C_23
REMARK    8  A    between atoms: C_23  and  C_24
REMARK    9  A    between atoms: C_24  and  C_25
REMARK   10  A    between atoms: C_25  and  C_26
REMARK   11  A    between atoms: C_25  and  C_27
REMARK                            x       y       z     vdW  Elec       q    Type
REMARK                         _______ _______ _______ _____ _____    ______ ____
ROOT
ATOM      1  C   UNL     1       1.578  -5.596   6.446  0.00  0.00    +0.141 C 
ENDROOT
BRANCH   1   5
ATOM      2  C   UNL     1      -0.143  -4.380   2.730  0.00  0.00    -0.064 A 
ATOM      3  C   UNL     1       1.212  -4.640   2.812  0.00  0.00    +0.002 A 
ATOM      4  C   UNL     1       1.769  -5.033   4.014  0.00  0.00    +0.005 A 
ATOM      5  C   UNL     1       0.971  -5.166   5.135  0.00  0.00    -0.030 A 
ATOM      6  C   UNL     1      -0.384  -4.906   5.053  0.00  0.00    +0.005 A 
ATOM      7  C   UNL     1      -0.940  -4.508   3.852  0.00  0.00    +0.002 A 
BRANCH   2   8
ATOM      8  C   UNL     1      -0.750  -3.952   1.419  0.00  0.00    -0.043 C 
BRANCH   8  13
ATOM      9  C   UNL     1      -0.019   1.526   0.010  0.00  0.00    +0.007 C 
ATOM     10  C   UNL     1       0.002  -0.004   0.002  0.00  0.00    -0.018 C 
ATOM     11  C   UNL     1      -1.434  -0.536   0.023  0.00  0.00    -0.016 C 
ATOM     12  C   UNL     1      -1.405  -2.064   0.095  0.00  0.00    -0.078 C 
ATOM     13  N   UNL     1      -0.707  -2.487   1.315  0.00  0.00    +0.382 N 
ATOM     14  C   UNL     1       0.691  -2.042   1.269  0.00  0.00    -0.078 C 
ATOM     15  C   UNL     1       0.743  -0.513   1.242  0.00  0.00    -0.016 C 
ATOM     16  H   UNL     1      -1.162  -2.082   2.119  0.00  0.00    -0.081 HD
ENDBRANCH   8  13
ENDBRANCH   2   8
ENDBRANCH   1   5
BRANCH   1  17
ATOM     17  N   UNL     1       2.010  -4.413   7.195  0.00  0.00    -0.294 N 
ATOM     18  C   UNL     1       2.585  -4.555   8.405  0.00  0.00    +0.316 C 
ATOM     19  O   UNL     1       2.746  -5.665   8.875  0.00  0.00    -0.251 OA
ATOM     20  N   UNL     1       2.982  -3.467   9.094  0.00  0.00    -0.218 N 
ATOM     21  H   UNL     1       1.881  -3.528   6.820  0.00  0.00    +0.151 HD
ATOM     22  H   UNL     1       3.396  -3.569   9.966  0.00  0.00    +0.174 HD
BRANCH  20  23
ATOM     23  N   UNL     1       2.796  -2.188   8.553  0.00  0.00    -0.233 N 
ATOM     24  C   UNL     1       3.194  -1.100   9.242  0.00  0.00    +0.229 C 
ATOM     25  O   UNL     1       3.712  -1.228  10.331  0.00  0.00    -0.274 OA
ATOM     26  H   UNL     1       2.382  -2.086   7.681  0.00  0.00    +0.173 HD
BRANCH  24  27
ATOM     27  C   UNL     1       2.994   0.275   8.659  0.00  0.00    +0.097 C 
BRANCH  27  28
ATOM     28  C   UNL     1       3.527   1.325   9.636  0.00  0.00    +0.012 C 
BRANCH  28  29
ATOM     29  C   UNL     1       3.325   2.721   9.044  0.00  0.00    -0.017 C 
ATOM     30  C   UNL     1       3.743   3.776  10.070  0.00  0.00    +0.007 C 
ATOM     31  C   UNL     1       4.179   2.870   7.783  0.00  0.00    +0.007 C 
ENDBRANCH  28  29
ENDBRANCH  27  28
ENDBRANCH  24  27
ENDBRANCH  20  23
ENDBRANCH   1  17
TORSDOF 8
