REMARK  Name = ZINC40311064
REMARK  5 active torsions:
REMARK  status: ('A' for Active; 'I' for Inactive)
REMARK    1  A    between atoms: C_2  and  N_20
REMARK    2  A    between atoms: N_4  and  C_6
REMARK    3  A    between atoms: C_6  and  C_7
REMARK    4  A    between atoms: N_9  and  C_10
REMARK    5  A    between atoms: C_11  and  C_18
REMARK                            x       y       z     vdW  Elec       q    Type
REMARK                         _______ _______ _______ _____ _____    ______ ____
ROOT
ATOM      1  C   UNL     1       1.200  -2.558   1.140  0.00  0.00    +0.239 C 
ATOM      2  O   UNL     1       0.456  -1.982   1.906  0.00  0.00    -0.273 OA
ATOM      3  N   UNL     1       1.488  -3.860   1.332  0.00  0.00    -0.277 N 
ATOM      4  H   UNL     1       2.083  -4.321   0.720  0.00  0.00    +0.155 HD
ENDROOT
BRANCH   3   5
ATOM      5  C   UNL     1       0.933  -4.543   2.406  0.00  0.00    +0.090 A 
ATOM      6  C   UNL     1       1.119  -5.866   2.758  0.00  0.00    +0.084 A 
ATOM      7  C   UNL     1       0.415  -6.349   3.945  0.00  0.00    -0.018 A 
ATOM      8  C   UNL     1      -0.342  -5.415   4.551  0.00  0.00    -0.004 A 
ATOM      9  S   UNL     1      -0.110  -3.950   3.577  0.00  0.00    -0.077 S 
ATOM     10  C   UNL     1      -1.046  -5.965   5.762  0.00  0.00    +0.043 C 
ATOM     11  C   UNL     1      -0.969  -7.499   5.596  0.00  0.00    +0.010 C 
ATOM     12  C   UNL     1       0.291  -7.658   4.721  0.00  0.00    +0.037 C 
BRANCH   6  13
ATOM     13  C   UNL     1       1.966  -6.730   1.992  0.00  0.00    +0.102 C 
ATOM     14  N   UNL     1       2.638  -7.415   1.384  0.00  0.00    -0.191 NA
ENDBRANCH   6  13
ENDBRANCH   3   5
BRANCH   1  15
ATOM     15  C   UNL     1       1.802  -1.817  -0.025  0.00  0.00    +0.239 C 
BRANCH  15  19
ATOM     16  C   UNL     1      -0.016   1.304   0.009  0.00  0.00    +0.157 A 
ATOM     17  C   UNL     1       1.309   1.764  -0.001  0.00  0.00    +0.063 A 
ATOM     18  C   UNL     1       2.126   0.681  -0.015  0.00  0.00    +0.131 A 
ATOM     19  N   UNL     1       1.337  -0.427  -0.013  0.00  0.00    -0.261 N 
ATOM     20  N   UNL     1       0.002  -0.004   0.002  0.00  0.00    -0.177 NA
BRANCH  17  21
ATOM     21  N   UNL     1       1.719   3.111   0.002  0.00  0.00    -0.356 N 
ATOM     22  H   UNL     1       1.056   3.820   0.012  0.00  0.00    +0.142 HD
ATOM     23  H   UNL     1       2.664   3.331  -0.006  0.00  0.00    +0.142 HD
ENDBRANCH  17  21
ENDBRANCH  15  19
ENDBRANCH   1  15
TORSDOF 5
