REMARK  Name = ZINC40473543
REMARK  5 active torsions:
REMARK  status: ('A' for Active; 'I' for Inactive)
REMARK    1  A    between atoms: C_1  and  C_2
REMARK    2  A    between atoms: C_2  and  C_3
REMARK    3  A    between atoms: C_3  and  C_5
REMARK    4  A    between atoms: C_3  and  N_21
REMARK    5  A    between atoms: C_9  and  C_18
REMARK                            x       y       z     vdW  Elec       q    Type
REMARK                         _______ _______ _______ _____ _____    ______ ____
ROOT
ATOM      1  C   UNL     1       0.887  -2.101  -1.149  0.00  0.00    +0.205 C 
ATOM      2  O   UNL     1       0.825  -0.891  -1.086  0.00  0.00    -0.277 OA
ATOM      3  N   UNL     1       1.859  -2.762  -0.491  0.00  0.00    -0.266 N 
ATOM      4  C   UNL     1       2.040  -4.215  -0.655  0.00  0.00    +0.170 C 
ATOM      5  C   UNL     1       3.547  -4.486  -0.758  0.00  0.00    +0.303 C 
ATOM      6  O   UNL     1       4.186  -3.993   0.422  0.00  0.00    -0.474 OA
ATOM      7  C   UNL     1       3.896  -2.725   0.816  0.00  0.00    +0.143 A 
ATOM      8  C   UNL     1       2.741  -2.088   0.371  0.00  0.00    +0.078 A 
ATOM      9  C   UNL     1       2.460  -0.795   0.781  0.00  0.00    +0.027 A 
ATOM     10  C   UNL     1       3.332  -0.135   1.627  0.00  0.00    +0.002 A 
ATOM     11  C   UNL     1       4.483  -0.764   2.063  0.00  0.00    +0.004 A 
ATOM     12  C   UNL     1       4.762  -2.056   1.668  0.00  0.00    +0.047 A 
ENDROOT
BRANCH   5  13
ATOM     13  C   UNL     1       3.786  -5.969  -0.882  0.00  0.00    +0.397 C 
ATOM     14  O   UNL     1       3.390  -6.570  -1.867  0.00  0.00    -0.242 OA
ATOM     15  O   UNL     1       4.375  -6.568   0.002  0.00  0.00    -0.242 OA
ENDBRANCH   5  13
BRANCH   1  16
ATOM     16  C   UNL     1      -0.125  -2.865  -1.964  0.00  0.00    +0.013 C 
BRANCH  16  17
ATOM     17  N   UNL     1      -1.383  -2.109  -2.016  0.00  0.00    +0.386 N 
ATOM     18  H   UNL     1      -2.061  -2.620  -2.562  0.00  0.00    -0.089 HD
ATOM     19  H   UNL     1      -1.736  -1.977  -1.080  0.00  0.00    -0.089 HD
ATOM     20  H   UNL     1      -1.218  -1.210  -2.443  0.00  0.00    -0.089 HD
ENDBRANCH  16  17
BRANCH  16  22
ATOM     21  C   UNL     1      -0.570  -3.931  -4.179  0.00  0.00    +0.002 C 
ATOM     22  C   UNL     1       0.409  -3.065  -3.383  0.00  0.00    -0.011 C 
ENDBRANCH  16  22
ENDBRANCH   1  16
TORSDOF 4
