REMARK  Name = ZINC39850866
REMARK  3 active torsions:
REMARK  status: ('A' for Active; 'I' for Inactive)
REMARK    1  A    between atoms: C_2  and  C_9
REMARK    2  A    between atoms: C_9  and  C_10
REMARK    3  A    between atoms: N_16  and  C_17
REMARK                            x       y       z     vdW  Elec       q    Type
REMARK                         _______ _______ _______ _____ _____    ______ ____
ROOT
ATOM      1  C   UNL     1       0.607   4.066   0.626  0.00  0.00    +0.144 C 
ATOM      2  C   UNL     1       0.872   5.519   0.985  0.00  0.00    +0.232 C 
ATOM      3  O   UNL     1       1.826   6.127   0.548  0.00  0.00    -0.274 OA
ATOM      4  N   UNL     1      -0.004   6.079   1.801  0.00  0.00    -0.264 N 
ATOM      5  C   UNL     1      -1.089   5.401   2.301  0.00  0.00    +0.164 C 
ATOM      6  N   UNL     1      -2.026   5.849   3.117  0.00  0.00    -0.193 NA
ATOM      7  S   UNL     1      -0.935   3.768   1.587  0.00  0.00    -0.077 S 
ATOM      8  H   UNL     1       0.124   7.005   2.058  0.00  0.00    +0.157 HD
ENDROOT
BRANCH   6   9
ATOM      9  C   UNL     1      -2.981   5.017   3.565  0.00  0.00    +0.195 C 
ATOM     10  N   UNL     1      -4.259   5.415   3.585  0.00  0.00    -0.370 N 
ATOM     11  N   UNL     1      -2.655   3.790   3.990  0.00  0.00    -0.370 N 
ATOM     12  H   UNL     1      -4.496   6.303   3.277  0.00  0.00    +0.159 HD
ATOM     13  H   UNL     1      -1.723   3.549   4.107  0.00  0.00    +0.159 HD
ATOM     14  H   UNL     1      -3.351   3.142   4.181  0.00  0.00    +0.159 HD
ATOM     15  H   UNL     1      -4.949   4.814   3.908  0.00  0.00    +0.159 HD
ENDBRANCH   6   9
BRANCH   1  16
ATOM     16  C   UNL     1       0.366   3.899  -0.875  0.00  0.00    +0.059 C 
BRANCH  16  18
ATOM     17  C   UNL     1      -1.146   1.925  -1.160  0.00  0.00    +0.023 A 
ATOM     18  C   UNL     1       0.135   2.443  -1.189  0.00  0.00    -0.043 A 
ATOM     19  C   UNL     1       1.205   1.627  -1.505  0.00  0.00    +0.023 A 
ATOM     20  C   UNL     1       0.994   0.290  -1.793  0.00  0.00    +0.043 A 
ATOM     21  C   UNL     1      -0.288  -0.229  -1.765  0.00  0.00    +0.040 A 
ATOM     22  C   UNL     1      -1.358   0.588  -1.448  0.00  0.00    +0.043 A 
ATOM     23 CL   UNL     1      -2.967  -0.062  -1.412  0.00  0.00    -0.083 Cl
ATOM     24 CL   UNL     1       2.337  -0.735  -2.190  0.00  0.00    -0.083 Cl
ENDBRANCH  16  18
ENDBRANCH   1  16
TORSDOF 3
