REMARK  Name = ZINC36575671
REMARK  14 active torsions:
REMARK  status: ('A' for Active; 'I' for Inactive)
REMARK    1  A    between atoms: C_1  and  C_2
REMARK    2  A    between atoms: C_2  and  C_3
REMARK    3  A    between atoms: C_3  and  N_4
REMARK    4  A    between atoms: N_4  and  C_5
REMARK    5  A    between atoms: C_5  and  C_7
REMARK    6  A    between atoms: C_5  and  C_16
REMARK    7  A    between atoms: C_8  and  O_15
REMARK    8  A    between atoms: C_10  and  O_14
REMARK    9  A    between atoms: C_12  and  O_13
REMARK   10  A    between atoms: N_18  and  C_19
REMARK   11  A    between atoms: C_19  and  C_20
REMARK   12  A    between atoms: C_19  and  C_21
REMARK   13  A    between atoms: C_19  and  C_22
REMARK   14  A    between atoms: C_23  and  C_25
REMARK                            x       y       z     vdW  Elec       q    Type
REMARK                         _______ _______ _______ _____ _____    ______ ____
ROOT
ATOM      1  C   UNL     1      -1.625  -2.440   1.609  0.00  0.00    +0.199 C 
ENDROOT
BRANCH   1   2
ATOM      2  C   UNL     1      -0.380  -2.498   2.455  0.00  0.00    +0.065 A 
ATOM      3  C   UNL     1      -0.164  -3.578   3.299  0.00  0.00    +0.129 A 
ATOM      4  C   UNL     1       0.982  -3.631   4.078  0.00  0.00    +0.091 A 
ATOM      5  C   UNL     1       1.913  -2.605   4.013  0.00  0.00    +0.124 A 
ATOM      6  C   UNL     1       1.698  -1.526   3.168  0.00  0.00    +0.091 A 
ATOM      7  C   UNL     1       0.553  -1.475   2.386  0.00  0.00    +0.129 A 
BRANCH   7   8
ATOM      8  O   UNL     1       0.345  -0.420   1.556  0.00  0.00    -0.506 OA
ATOM      9  H   UNL     1      -0.222   0.269   1.929  0.00  0.00    +0.292 HD
ENDBRANCH   7   8
BRANCH   5  10
ATOM     10  O   UNL     1       3.035  -2.657   4.777  0.00  0.00    -0.507 OA
ATOM     11  H   UNL     1       3.783  -3.096   4.348  0.00  0.00    +0.292 HD
ENDBRANCH   5  10
BRANCH   3  12
ATOM     12  O   UNL     1      -1.077  -4.583   3.362  0.00  0.00    -0.506 OA
ATOM     13  H   UNL     1      -0.877  -5.332   2.785  0.00  0.00    +0.292 HD
ENDBRANCH   3  12
ENDBRANCH   1   2
BRANCH   1  14
ATOM     14  C   UNL     1      -2.765  -1.894   2.429  0.00  0.00    +0.239 C 
ATOM     15  O   UNL     1      -3.649  -1.260   1.893  0.00  0.00    -0.273 OA
ATOM     16  N   UNL     1      -2.803  -2.110   3.759  0.00  0.00    -0.309 N 
ATOM     17  H   UNL     1      -2.067  -2.566   4.197  0.00  0.00    +0.149 HD
BRANCH  16  18
ATOM     18  C   UNL     1      -3.954  -1.657   4.543  0.00  0.00    +0.026 C 
ATOM     19  C   UNL     1      -5.224  -2.334   4.022  0.00  0.00    +0.031 C 
ATOM     20  C   UNL     1      -3.747  -2.024   6.013  0.00  0.00    +0.031 C 
ATOM     21  C   UNL     1      -4.095  -0.139   4.411  0.00  0.00    +0.031 C 
ENDBRANCH  16  18
ENDBRANCH   1  14
BRANCH   1  22
ATOM     22  N   UNL     1      -1.392  -1.567   0.456  0.00  0.00    -0.284 N 
ATOM     23  C   UNL     1      -1.649  -0.248   0.546  0.00  0.00    +0.237 C 
ATOM     24  O   UNL     1      -2.088   0.215   1.578  0.00  0.00    -0.274 OA
BRANCH  23  25
ATOM     25  C   UNL     1      -1.391   0.653  -0.634  0.00  0.00    +0.159 C 
ATOM     26  C   UNL     1       0.122   0.932  -0.774  0.00  0.00    +0.041 C 
ATOM     27  C   UNL     1       0.273   2.253   0.015  0.00  0.00    +0.098 C 
ATOM     28  C   UNL     1      -1.102   2.881  -0.047  0.00  0.00    +0.214 C 
ATOM     29  O   UNL     1      -1.347   4.043   0.202  0.00  0.00    -0.276 OA
ATOM     30  N   UNL     1      -2.015   1.964  -0.419  0.00  0.00    -0.304 N 
ATOM     31  H   UNL     1      -2.961   2.145  -0.530  0.00  0.00    +0.149 HD
ENDBRANCH  23  25
BRANCH  22  32
ATOM     32  C   UNL     1      -0.879  -2.130  -0.796  0.00  0.00    +0.108 C 
BRANCH  32  34
ATOM     33  C   UNL     1      -1.513  -2.947  -3.070  0.00  0.00    +0.005 C 
ATOM     34  C   UNL     1      -2.050  -2.480  -1.716  0.00  0.00    +0.016 C 
ENDBRANCH  32  34
ENDBRANCH  22  32
ENDBRANCH   1  22
TORSDOF 10
