REMARK  Name = ZINC40377395
REMARK  8 active torsions:
REMARK  status: ('A' for Active; 'I' for Inactive)
REMARK    1  A    between atoms: C_1  and  C_2
REMARK    2  A    between atoms: C_2  and  C_3
REMARK    3  A    between atoms: C_3  and  C_4
REMARK    4  A    between atoms: C_3  and  C_5
REMARK    5  A    between atoms: C_3  and  N_9
REMARK    6  A    between atoms: N_6  and  O_7
REMARK    7  A    between atoms: N_9  and  S_10
REMARK    8  A    between atoms: S_10  and  C_13
REMARK                            x       y       z     vdW  Elec       q    Type
REMARK                         _______ _______ _______ _____ _____    ______ ____
ROOT
ATOM      1  N   UNL     1       2.077  -0.243  -1.215  0.00  0.00    -0.177 NA
ATOM      2  H   UNL     1       2.272   0.442  -1.873  0.00  0.00    +0.149 HD
ENDROOT
BRANCH   1   3
ATOM      3  S   UNL     1       3.238  -0.702  -0.128  0.00  0.00    +0.061 S 
ATOM      4  O   UNL     1       3.264  -2.123  -0.137  0.00  0.00    -0.153 OA
ATOM      5  O   UNL     1       4.389   0.083  -0.408  0.00  0.00    -0.153 OA
BRANCH   3   6
ATOM      6  C   UNL     1       2.676  -0.218   1.470  0.00  0.00    +0.133 A 
ATOM      7  C   UNL     1       2.403  -1.160   2.404  0.00  0.00    +0.031 A 
ATOM      8  C   UNL     1       1.956  -0.814   3.679  0.00  0.00    +0.004 A 
ATOM      9  C   UNL     1       1.777   0.479   4.039  0.00  0.00    +0.031 A 
ATOM     10  C   UNL     1       2.044   1.521   3.111  0.00  0.00    +0.102 A 
ATOM     11  C   UNL     1       2.516   1.159   1.779  0.00  0.00    +0.126 A 
ATOM     12  N   UNL     1       2.739   2.216   0.997  0.00  0.00    -0.189 NA
ATOM     13  S   UNL     1       2.383   3.504   1.893  0.00  0.00    +0.117 S 
ATOM     14  N   UNL     1       1.926   2.838   3.285  0.00  0.00    -0.191 NA
ENDBRANCH   3   6
ENDBRANCH   1   3
BRANCH   1  15
ATOM     15  C   UNL     1       0.754  -0.873  -1.183  0.00  0.00    +0.095 C 
ATOM     16  C   UNL     1       0.909  -2.391  -1.292  0.00  0.00    +0.037 C 
BRANCH  15  17
ATOM     17  C   UNL     1      -0.071  -0.368  -2.339  0.00  0.00    +0.153 C 
ATOM     18  N   UNL     1      -0.548  -1.200  -3.204  0.00  0.00    -0.075 NA
ATOM     19  N   UNL     1      -0.315   0.981  -2.473  0.00  0.00    -0.342 N 
ATOM     20  H   UNL     1       0.105   1.613  -1.869  0.00  0.00    +0.144 HD
ATOM     21  H   UNL     1      -0.907   1.299  -3.172  0.00  0.00    +0.144 HD
BRANCH  18  22
ATOM     22  O   UNL     1      -1.323  -0.726  -4.290  0.00  0.00    -0.408 OA
ATOM     23  H   UNL     1      -1.637  -1.422  -4.883  0.00  0.00    +0.328 HD
ENDBRANCH  18  22
ENDBRANCH  15  17
BRANCH  15  25
ATOM     24  C   UNL     1      -1.378  -1.060   0.107  0.00  0.00    +0.006 C 
ATOM     25  C   UNL     1       0.055  -0.524   0.133  0.00  0.00    +0.028 C 
ENDBRANCH  15  25
ENDBRANCH   1  15
TORSDOF 6
