REMARK  Name = ZINC66536779
REMARK  9 active torsions:
REMARK  status: ('A' for Active; 'I' for Inactive)
REMARK    1  A    between atoms: C_1  and  C_2
REMARK    2  A    between atoms: C_2  and  C_3
REMARK    3  A    between atoms: C_2  and  C_4
REMARK    4  A    between atoms: C_2  and  O_5
REMARK    5  A    between atoms: O_5  and  C_6
REMARK    6  A    between atoms: C_14  and  C_16
REMARK    7  A    between atoms: C_16  and  N_17
REMARK    8  A    between atoms: C_21  and  C_23
REMARK    9  A    between atoms: C_23  and  N_24
REMARK                            x       y       z     vdW  Elec       q    Type
REMARK                         _______ _______ _______ _____ _____    ______ ____
ROOT
ATOM      1  C   UNL     1       1.952  -0.085  -1.337  0.00  0.00    +0.403 C 
ATOM      2  O   UNL     1       2.488   0.619  -0.503  0.00  0.00    -0.226 OA
ATOM      3  N   UNL     1       2.641  -0.485  -2.424  0.00  0.00    -0.264 N 
ATOM      4  C   UNL     1       2.004  -1.331  -3.443  0.00  0.00    +0.130 C 
ATOM      5  C   UNL     1       2.136  -0.641  -4.806  0.00  0.00    +0.127 C 
ATOM      6  N   UNL     1       3.537  -0.238  -4.994  0.00  0.00    -0.300 N 
ATOM      7  C   UNL     1       4.174   0.608  -3.975  0.00  0.00    +0.127 C 
ATOM      8  C   UNL     1       4.040  -0.078  -2.615  0.00  0.00    +0.130 C 
ATOM      9  C   UNL     1       4.226  -0.638  -6.082  0.00  0.00    +0.199 C 
ATOM     10  O   UNL     1       3.690  -1.337  -6.916  0.00  0.00    -0.278 OA
ENDROOT
BRANCH   1  11
ATOM     11  O   UNL     1       0.671  -0.465  -1.174  0.00  0.00    -0.445 OA
BRANCH  11  13
ATOM     12  C   UNL     1      -0.019   1.526   0.010  0.00  0.00    +0.055 C 
ATOM     13  C   UNL     1       0.002  -0.004   0.002  0.00  0.00    +0.107 C 
ATOM     14  C   UNL     1       0.742  -0.511   1.242  0.00  0.00    +0.055 C 
ATOM     15  C   UNL     1      -1.433  -0.534   0.013  0.00  0.00    +0.055 C 
ENDBRANCH  11  13
ENDBRANCH   1  11
BRANCH   9  16
ATOM     16  C   UNL     1       5.662  -0.218  -6.261  0.00  0.00    +0.019 C 
BRANCH  16  17
ATOM     17  N   UNL     1       6.183  -0.779  -7.515  0.00  0.00    +0.386 N 
ATOM     18  C   UNL     1       6.239  -2.253  -7.415  0.00  0.00    -0.078 C 
ATOM     19  C   UNL     1       7.515  -2.655  -8.195  0.00  0.00    -0.020 C 
ATOM     20  C   UNL     1       8.482  -1.498  -7.830  0.00  0.00    -0.019 C 
ATOM     21  C   UNL     1       7.547  -0.273  -7.755  0.00  0.00    -0.085 C 
ATOM     22  H   UNL     1       5.583  -0.515  -8.281  0.00  0.00    -0.081 HD
BRANCH  21  23
ATOM     23  C   UNL     1       7.592   0.497  -9.076  0.00  0.00    -0.094 C 
BRANCH  23  24
ATOM     24  N   UNL     1       6.574   1.557  -9.059  0.00  0.00    +0.379 N 
ATOM     25  C   UNL     1       6.945   2.607  -8.077  0.00  0.00    -0.079 C 
ATOM     26  C   UNL     1       6.150   3.845  -8.564  0.00  0.00    -0.020 C 
ATOM     27  C   UNL     1       6.228   3.721 -10.103  0.00  0.00    -0.020 C 
ATOM     28  C   UNL     1       6.521   2.234 -10.373  0.00  0.00    -0.079 C 
ATOM     29  H   UNL     1       5.671   1.169  -8.831  0.00  0.00    -0.082 HD
ENDBRANCH  23  24
ENDBRANCH  21  23
ENDBRANCH  16  17
ENDBRANCH   9  16
TORSDOF 6
