REMARK  Name = ZINC61365053
REMARK  5 active torsions:
REMARK  status: ('A' for Active; 'I' for Inactive)
REMARK    1  A    between atoms: C_1  and  C_2
REMARK    2  A    between atoms: C_2  and  C_4
REMARK    3  A    between atoms: C_2  and  N_9
REMARK    4  A    between atoms: C_10  and  C_12
REMARK    5  A    between atoms: C_17  and  N_18
REMARK                            x       y       z     vdW  Elec       q    Type
REMARK                         _______ _______ _______ _____ _____    ______ ____
ROOT
ATOM      1  N   UNL     1      -1.103  -0.945  -0.684  0.00  0.00    -0.305 N 
ATOM      2  C   UNL     1      -2.047  -0.794  -1.634  0.00  0.00    +0.247 C 
ATOM      3  O   UNL     1      -1.757  -0.302  -2.707  0.00  0.00    -0.270 OA
ATOM      4  H   UNL     1      -1.335  -1.337   0.172  0.00  0.00    +0.150 HD
ENDROOT
BRANCH   2   5
ATOM      5  C   UNL     1      -3.436  -1.228  -1.372  0.00  0.00    +0.068 A 
ATOM      6  C   UNL     1      -3.696  -2.537  -0.962  0.00  0.00    +0.035 A 
ATOM      7  C   UNL     1      -4.995  -2.935  -0.718  0.00  0.00    +0.042 A 
ATOM      8  C   UNL     1      -6.039  -2.039  -0.880  0.00  0.00    +0.022 A 
ATOM      9  C   UNL     1      -5.787  -0.741  -1.286  0.00  0.00    +0.035 A 
ATOM     10  C   UNL     1      -4.492  -0.329  -1.527  0.00  0.00    +0.138 A 
ATOM     11 CL   UNL     1      -5.321  -4.562  -0.208  0.00  0.00    -0.084 Cl
BRANCH  10  12
ATOM     12  N   UNL     1      -4.225   1.062  -1.956  0.00  0.00    +0.057 N 
ATOM     13  O   UNL     1      -5.145   1.804  -2.209  0.00  0.00    -0.126 OA
ATOM     14  O   UNL     1      -3.086   1.457  -2.052  0.00  0.00    -0.126 OA
ENDBRANCH  10  12
ENDBRANCH   2   5
BRANCH   1  16
ATOM     15  C   UNL     1       0.408   0.978  -0.636  0.00  0.00    +0.033 C 
ATOM     16  C   UNL     1       0.273  -0.515  -0.945  0.00  0.00    +0.101 C 
BRANCH  16  17
ATOM     17  C   UNL     1       1.217  -1.297  -0.069  0.00  0.00    -0.020 A 
ATOM     18  C   UNL     1       2.430  -1.739  -0.564  0.00  0.00    +0.013 A 
ATOM     19  C   UNL     1       3.256  -2.440   0.250  0.00  0.00    +0.045 A 
ATOM     20  S   UNL     1       2.320  -2.493   1.770  0.00  0.00    -0.105 S 
ATOM     21  C   UNL     1       0.893  -1.572   1.218  0.00  0.00    +0.050 A 
ENDBRANCH  16  17
ENDBRANCH   1  16
TORSDOF 4
