REMARK  Name = ZINC01123205
REMARK  9 active torsions:
REMARK  status: ('A' for Active; 'I' for Inactive)
REMARK    1  A    between atoms: C_1  and  C_2
REMARK    2  A    between atoms: C_5  and  N_25
REMARK    3  A    between atoms: C_7  and  N_8
REMARK    4  A    between atoms: C_9  and  C_11
REMARK    5  A    between atoms: C_12  and  N_24
REMARK    6  A    between atoms: C_14  and  C_21
REMARK    7  A    between atoms: C_16  and  C_20
REMARK    8  A    between atoms: C_21  and  O_22
REMARK    9  A    between atoms: O_22  and  C_23
REMARK                            x       y       z     vdW  Elec       q    Type
REMARK                         _______ _______ _______ _____ _____    ______ ____
ROOT
ATOM      1  C   UNL     1      -0.017   1.413   0.024  0.00  0.00    +0.097 A 
ATOM      2  C   UNL     1      -1.109   2.252   0.037  0.00  0.00    +0.054 A 
ATOM      3  C   UNL     1      -0.876   3.688   0.061  0.00  0.00    +0.034 A 
ATOM      4  C   UNL     1      -1.827   4.739   0.081  0.00  0.00    -0.009 A 
ATOM      5  C   UNL     1      -1.382   6.040   0.095  0.00  0.00    +0.029 A 
ATOM      6  C   UNL     1      -0.023   6.317   0.088  0.00  0.00    +0.040 A 
ATOM      7  N   UNL     1       0.859   5.337   0.069  0.00  0.00    -0.245 NA
ATOM      8  C   UNL     1       0.483   4.076   0.055  0.00  0.00    +0.111 A 
ATOM      9  S   UNL     1       1.367   2.536   0.028  0.00  0.00    -0.062 S 
ATOM     10  C   UNL     1       0.449   7.748   0.103  0.00  0.00    +0.065 C 
ENDROOT
BRANCH   1  12
ATOM     11  N   UNL     1       1.178  -0.662  -0.012  0.00  0.00    -0.281 N 
ATOM     12  C   UNL     1       0.002  -0.004   0.005  0.00  0.00    +0.257 C 
ATOM     13  O   UNL     1      -1.044  -0.627   0.004  0.00  0.00    -0.269 OA
ATOM     14  H   UNL     1       2.009  -0.168  -0.092  0.00  0.00    +0.155 HD
BRANCH  11  21
ATOM     15  C   UNL     1       3.421  -2.048  -1.083  0.00  0.00    +0.045 C 
ATOM     16  C   UNL     1       2.276  -2.773  -0.424  0.00  0.00    -0.029 A 
ATOM     17  C   UNL     1       2.295  -4.151  -0.325  0.00  0.00    +0.007 A 
ATOM     18  C   UNL     1       1.245  -4.816   0.280  0.00  0.00    +0.033 A 
ATOM     19  C   UNL     1       0.172  -4.106   0.788  0.00  0.00    +0.128 A 
ATOM     20  C   UNL     1       0.150  -2.728   0.698  0.00  0.00    +0.056 A 
ATOM     21  C   UNL     1       1.200  -2.057   0.086  0.00  0.00    +0.039 A 
BRANCH  19  22
ATOM     22  N   UNL     1      -0.949  -4.823   1.436  0.00  0.00    +0.056 N 
ATOM     23  O   UNL     1      -0.928  -6.038   1.520  0.00  0.00    -0.126 OA
ATOM     24  O   UNL     1      -1.894  -4.198   1.883  0.00  0.00    -0.126 OA
ENDBRANCH  19  22
ENDBRANCH  11  21
ENDBRANCH   1  12
BRANCH   2  25
ATOM     25  N   UNL     1      -2.399   1.741   0.033  0.00  0.00    -0.356 N 
ATOM     26  H   UNL     1      -2.541   0.781   0.020  0.00  0.00    +0.142 HD
ATOM     27  H   UNL     1      -3.159   2.343   0.042  0.00  0.00    +0.142 HD
ENDBRANCH   2  25
BRANCH   4  28
ATOM     28  C   UNL     1      -3.303   4.434   0.089  0.00  0.00    +0.195 C 
BRANCH  28  29
ATOM     29  O   UNL     1      -4.041   5.658   0.110  0.00  0.00    -0.378 OA
ATOM     30  C   UNL     1      -5.459   5.480   0.119  0.00  0.00    +0.194 C 
ENDBRANCH  28  29
ENDBRANCH   4  28
TORSDOF 6
