REMARK  Name = ZINC20059283
REMARK  5 active torsions:
REMARK  status: ('A' for Active; 'I' for Inactive)
REMARK    1  A    between atoms: C_4  and  C_7
REMARK    2  A    between atoms: C_7  and  N_8
REMARK    3  A    between atoms: C_16  and  O_29
REMARK    4  A    between atoms: C_18  and  C_21
REMARK    5  A    between atoms: C_22  and  C_23
REMARK                            x       y       z     vdW  Elec       q    Type
REMARK                         _______ _______ _______ _____ _____    ______ ____
ROOT
ATOM      1  N   UNL     1       4.022   4.155  -1.384  0.00  0.00    +0.386 N 
ATOM      2  C   UNL     1       5.466   4.169  -1.660  0.00  0.00    -0.073 C 
ATOM      3  C   UNL     1       5.719   3.937  -3.152  0.00  0.00    +0.018 C 
ATOM      4  C   UNL     1       4.866   4.927  -3.939  0.00  0.00    -0.027 A 
ATOM      5  C   UNL     1       3.822   5.546  -3.338  0.00  0.00    -0.021 A 
ATOM      6  S   UNL     1       3.127   6.587  -4.593  0.00  0.00    -0.080 S 
ATOM      7  C   UNL     1       4.194   6.205  -5.875  0.00  0.00    +0.080 A 
ATOM      8  C   UNL     1       5.089   5.275  -5.328  0.00  0.00    +0.067 A 
ATOM      9  C   UNL     1       6.158   4.756  -6.221  0.00  0.00    +0.220 C 
ATOM     10  N   UNL     1       6.054   5.002  -7.498  0.00  0.00    -0.223 NA
ATOM     11  C   UNL     1       4.933   5.694  -8.122  0.00  0.00    +0.217 C 
ATOM     12  N   UNL     1       4.276   6.622  -7.182  0.00  0.00    -0.313 N 
ATOM     13  C   UNL     1       3.376   5.367  -1.921  0.00  0.00    -0.035 C 
ATOM     14  H   UNL     1       3.885   7.585  -7.542  0.00  0.00    +0.149 HD
ATOM     15  H   UNL     1       3.588   3.279  -1.888  0.00  0.00    -0.081 HD
ENDROOT
BRANCH  11  16
ATOM     16  C   UNL     1       3.925   4.676  -8.590  0.00  0.00    +0.019 C 
ATOM     17  C   UNL     1       3.518   4.679  -9.851  0.00  0.00    +0.007 C 
BRANCH  17  18
ATOM     18  C   UNL     1       3.914   5.780 -10.754  0.00  0.00    -0.025 A 
ATOM     19  C   UNL     1       4.250   5.512 -12.081  0.00  0.00    +0.008 A 
ATOM     20  C   UNL     1       4.612   6.546 -12.920  0.00  0.00    +0.001 A 
ATOM     21  C   UNL     1       4.656   7.844 -12.444  0.00  0.00    +0.000 A 
ATOM     22  C   UNL     1       4.330   8.116 -11.127  0.00  0.00    +0.001 A 
ATOM     23  C   UNL     1       3.960   7.092 -10.280  0.00  0.00    +0.008 A 
ENDBRANCH  17  18
ENDBRANCH  11  16
BRANCH   9  24
ATOM     24  O   UNL     1       7.202   4.051  -5.726  0.00  0.00    -0.492 OA
ATOM     25  H   UNL     1       7.982   3.676  -6.404  0.00  0.00    +0.294 HD
ENDBRANCH   9  24
BRANCH   1  26
ATOM     26  C   UNL     1       3.763   4.014   0.055  0.00  0.00    -0.043 C 
BRANCH  26  30
ATOM     27  C   UNL     1      -0.404   3.312   0.683  0.00  0.00    +0.000 A 
ATOM     28  C   UNL     1       0.457   2.246   0.504  0.00  0.00    +0.000 A 
ATOM     29  C   UNL     1       1.805   2.473   0.299  0.00  0.00    +0.002 A 
ATOM     30  C   UNL     1       2.293   3.766   0.279  0.00  0.00    -0.064 A 
ATOM     31  C   UNL     1       1.433   4.832   0.463  0.00  0.00    +0.002 A 
ATOM     32  C   UNL     1       0.085   4.606   0.668  0.00  0.00    +0.000 A 
ENDBRANCH  26  30
ENDBRANCH   1  26
TORSDOF 5
