REMARK  Name = ZINC48257677
REMARK  7 active torsions:
REMARK  status: ('A' for Active; 'I' for Inactive)
REMARK    1  A    between atoms: C_1  and  C_2
REMARK    2  A    between atoms: C_2  and  C_3
REMARK    3  A    between atoms: N_14  and  C_15
REMARK    4  A    between atoms: C_17  and  N_22
REMARK    5  A    between atoms: C_20  and  C_21
REMARK    6  A    between atoms: C_23  and  C_25
REMARK    7  A    between atoms: C_25  and  C_26
REMARK                            x       y       z     vdW  Elec       q    Type
REMARK                         _______ _______ _______ _____ _____    ______ ____
ROOT
ATOM      1  C   UNL     1      -1.725  -0.802  -2.481  0.00  0.00    +0.108 C 
ATOM      2  C   UNL     1      -0.207  -0.833  -2.319  0.00  0.00    -0.017 A 
ATOM      3  C   UNL     1       0.672  -0.996  -3.389  0.00  0.00    +0.013 A 
ATOM      4  C   UNL     1       2.007  -1.018  -3.171  0.00  0.00    +0.046 A 
ATOM      5  S   UNL     1       2.094  -0.802  -1.399  0.00  0.00    -0.101 S 
ATOM      6  C   UNL     1       0.351  -0.698  -1.086  0.00  0.00    -0.004 A 
ATOM      7  C   UNL     1      -0.346  -0.502   0.221  0.00  0.00    +0.062 C 
ATOM      8  C   UNL     1      -1.827  -0.875   0.050  0.00  0.00    +0.115 C 
ATOM      9  N   UNL     1      -2.301  -0.310  -1.222  0.00  0.00    -0.278 N 
ATOM     10  C   UNL     1      -3.250   0.647  -1.233  0.00  0.00    +0.307 C 
ATOM     11  O   UNL     1      -3.785   0.985  -0.195  0.00  0.00    -0.252 OA
ATOM     12  N   UNL     1      -3.606   1.230  -2.395  0.00  0.00    -0.269 N 
ATOM     13  H   UNL     1      -3.229   0.915  -3.231  0.00  0.00    +0.156 HD
ENDROOT
BRANCH  12  14
ATOM     14  C   UNL     1      -4.519   2.291  -2.395  0.00  0.00    +0.039 A 
ATOM     15  C   UNL     1      -4.769   2.992  -1.224  0.00  0.00    +0.047 A 
ATOM     16  C   UNL     1      -5.675   4.042  -1.228  0.00  0.00    +0.035 A 
ATOM     17  C   UNL     1      -6.330   4.389  -2.403  0.00  0.00    +0.024 A 
ATOM     18  C   UNL     1      -6.079   3.688  -3.567  0.00  0.00    +0.007 A 
ATOM     19  C   UNL     1      -5.173   2.645  -3.568  0.00  0.00    -0.029 A 
ATOM     20  C   UNL     1      -4.898   1.888  -4.841  0.00  0.00    +0.045 C 
BRANCH  16  21
ATOM     21  N   UNL     1      -5.930   4.752  -0.049  0.00  0.00    -0.285 N 
ATOM     22  C   UNL     1      -6.171   6.077  -0.099  0.00  0.00    +0.217 C 
ATOM     23  O   UNL     1      -6.253   6.639  -1.171  0.00  0.00    -0.275 OA
ATOM     24  H   UNL     1      -5.933   4.290   0.804  0.00  0.00    +0.155 HD
BRANCH  22  25
ATOM     25  C   UNL     1      -6.338   6.861   1.177  0.00  0.00    +0.093 C 
ATOM     26  C   UNL     1      -6.600   8.331   0.842  0.00  0.00    +0.013 C 
ENDBRANCH  22  25
ENDBRANCH  16  21
ENDBRANCH  12  14
BRANCH   1  28
ATOM     27  C   UNL     1      -3.754  -2.160  -3.014  0.00  0.00    +0.006 C 
ATOM     28  C   UNL     1      -2.244  -2.212  -2.771  0.00  0.00    +0.024 C 
ENDBRANCH   1  28
TORSDOF 4
