REMARK  Name = ZINC01427247
REMARK  8 active torsions:
REMARK  status: ('A' for Active; 'I' for Inactive)
REMARK    1  A    between atoms: C_1  and  N_2
REMARK    2  A    between atoms: C_13  and  C_21
REMARK    3  A    between atoms: C_15  and  C_19
REMARK    4  A    between atoms: C_16  and  N_18
REMARK    5  A    between atoms: C_25  and  O_29
REMARK    6  A    between atoms: C_26  and  O_27
REMARK    7  A    between atoms: O_27  and  C_28
REMARK    8  A    between atoms: O_29  and  C_30
REMARK                            x       y       z     vdW  Elec       q    Type
REMARK                         _______ _______ _______ _____ _____    ______ ____
ROOT
ATOM      1  C   UNL     1       4.447  -1.205   4.819  0.00  0.00    +0.152 C 
ATOM      2  N   UNL     1       4.848  -0.586   3.554  0.00  0.00    -0.311 N 
ATOM      3  C   UNL     1       5.910   0.295   3.537  0.00  0.00    +0.055 A 
ATOM      4  C   UNL     1       6.603   0.605   4.702  0.00  0.00    +0.026 A 
ATOM      5  C   UNL     1       7.660   1.488   4.654  0.00  0.00    +0.002 A 
ATOM      6  C   UNL     1       8.040   2.072   3.453  0.00  0.00    +0.001 A 
ATOM      7  C   UNL     1       7.372   1.782   2.297  0.00  0.00    +0.013 A 
ATOM      8  C   UNL     1       6.298   0.889   2.324  0.00  0.00    +0.041 A 
ATOM      9  C   UNL     1       5.555   0.556   1.099  0.00  0.00    +0.148 A 
ATOM     10  C   UNL     1       4.516  -0.321   1.187  0.00  0.00    +0.073 A 
ATOM     11  C   UNL     1       4.175  -0.885   2.430  0.00  0.00    +0.259 A 
ATOM     12  O   UNL     1       3.243  -1.668   2.489  0.00  0.00    -0.267 OA
ATOM     13  C   UNL     1       3.724  -0.695  -0.038  0.00  0.00    +0.107 C 
ATOM     14  C   UNL     1       4.482  -0.322  -1.281  0.00  0.00    +0.098 C 
ATOM     15  C   UNL     1       5.519   0.549  -1.232  0.00  0.00    +0.199 C 
ATOM     16  O   UNL     1       5.910   1.113  -0.075  0.00  0.00    -0.440 OA
ENDROOT
BRANCH  13  17
ATOM     17  C   UNL     1       2.405   0.035  -0.021  0.00  0.00    +0.011 A 
ATOM     18  C   UNL     1       2.379   1.417  -0.013  0.00  0.00    +0.008 A 
ATOM     19  C   UNL     1       1.171   2.089   0.002  0.00  0.00    +0.004 A 
ATOM     20  C   UNL     1      -0.017   1.381   0.010  0.00  0.00    +0.049 A 
ATOM     21  C   UNL     1       0.002  -0.004   0.002  0.00  0.00    +0.162 A 
ATOM     22  C   UNL     1       1.218  -0.680  -0.013  0.00  0.00    +0.166 A 
BRANCH  22  23
ATOM     23  O   UNL     1       1.242  -2.040  -0.021  0.00  0.00    -0.491 OA
ATOM     24  C   UNL     1       1.242  -2.682  -1.298  0.00  0.00    +0.277 C 
ENDBRANCH  22  23
BRANCH  21  25
ATOM     25  O   UNL     1      -1.165  -0.702   0.009  0.00  0.00    -0.491 OA
ATOM     26  C   UNL     1      -2.375   0.059   0.024  0.00  0.00    +0.277 C 
ENDBRANCH  21  25
ENDBRANCH  13  17
BRANCH  15  27
ATOM     27  N   UNL     1       6.185   0.863  -2.390  0.00  0.00    -0.328 N 
ATOM     28  H   UNL     1       6.929   1.486  -2.368  0.00  0.00    +0.145 HD
ATOM     29  H   UNL     1       5.913   0.463  -3.231  0.00  0.00    +0.145 HD
ENDBRANCH  15  27
BRANCH  14  30
ATOM     30  C   UNL     1       4.104  -0.898  -2.536  0.00  0.00    +0.101 C 
ATOM     31  N   UNL     1       3.804  -1.355  -3.532  0.00  0.00    -0.191 NA
ENDBRANCH  14  30
TORSDOF 5
