REMARK  Name = ZINC08791563
REMARK  11 active torsions:
REMARK  status: ('A' for Active; 'I' for Inactive)
REMARK    1  A    between atoms: C_1  and  C_2
REMARK    2  A    between atoms: C_2  and  C_3
REMARK    3  A    between atoms: C_2  and  C_4
REMARK    4  A    between atoms: C_4  and  C_5
REMARK    5  A    between atoms: C_5  and  C_7
REMARK    6  A    between atoms: C_5  and  N_14
REMARK    7  A    between atoms: N_9  and  C_10
REMARK    8  A    between atoms: C_10  and  C_11
REMARK    9  A    between atoms: C_11  and  C_12
REMARK   10  A    between atoms: C_11  and  C_13
REMARK   11  A    between atoms: C_15  and  C_17
REMARK                            x       y       z     vdW  Elec       q    Type
REMARK                         _______ _______ _______ _____ _____    ______ ____
ROOT
ATOM      1  C   UNL     1      -5.959   2.368   0.536  0.00  0.00    +0.167 C 
ATOM      2  C   UNL     1      -6.205   2.901  -0.882  0.00  0.00    +0.069 C 
ATOM      3  C   UNL     1      -6.981   4.192  -0.827  0.00  0.00    -0.015 A 
ATOM      4  C   UNL     1      -7.682   4.844  -1.919  0.00  0.00    +0.003 A 
ATOM      5  C   UNL     1      -7.854   4.505  -3.264  0.00  0.00    +0.010 A 
ATOM      6  C   UNL     1      -8.592   5.373  -4.032  0.00  0.00    +0.001 A 
ATOM      7  C   UNL     1      -9.143   6.531  -3.510  0.00  0.00    +0.002 A 
ATOM      8  C   UNL     1      -8.987   6.891  -2.182  0.00  0.00    +0.026 A 
ATOM      9  C   UNL     1      -8.243   6.028  -1.379  0.00  0.00    +0.047 A 
ATOM     10  N   UNL     1      -7.901   6.074  -0.059  0.00  0.00    -0.356 N 
ATOM     11  H   UNL     1      -8.149   6.780   0.558  0.00  0.00    +0.166 HD
ATOM     12  C   UNL     1      -7.155   4.972   0.264  0.00  0.00    +0.046 A 
ATOM     13  C   UNL     1      -6.604   4.619   1.624  0.00  0.00    +0.155 C 
ATOM     14  N   UNL     1      -5.645   3.512   1.398  0.00  0.00    -0.273 N 
ATOM     15  C   UNL     1      -4.516   3.785   2.066  0.00  0.00    +0.248 C 
ATOM     16  O   UNL     1      -3.620   2.993   2.281  0.00  0.00    -0.270 OA
ATOM     17  C   UNL     1      -4.529   5.187   2.497  0.00  0.00    +0.042 A 
ATOM     18  C   UNL     1      -5.823   5.734   2.233  0.00  0.00    -0.009 A 
ATOM     19  C   UNL     1      -6.106   7.038   2.505  0.00  0.00    +0.006 A 
ATOM     20  C   UNL     1      -5.105   7.807   3.091  0.00  0.00    +0.000 A 
ATOM     21  C   UNL     1      -3.861   7.284   3.381  0.00  0.00    +0.001 A 
ATOM     22  C   UNL     1      -3.537   5.965   3.097  0.00  0.00    +0.013 A 
ENDROOT
BRANCH   1  24
ATOM     23  N   UNL     1      -3.556   1.849   0.261  0.00  0.00    -0.302 N 
ATOM     24  C   UNL     1      -4.801   1.404   0.526  0.00  0.00    +0.235 C 
ATOM     25  O   UNL     1      -4.988   0.228   0.755  0.00  0.00    -0.274 OA
ATOM     26  H   UNL     1      -3.406   2.790   0.078  0.00  0.00    +0.150 HD
BRANCH  23  27
ATOM     27  C   UNL     1      -2.430   0.913   0.251  0.00  0.00    +0.159 C 
BRANCH  27  28
ATOM     28  C   UNL     1      -1.154   1.658   0.546  0.00  0.00    +0.233 C 
ATOM     29  O   UNL     1      -1.183   2.854   0.746  0.00  0.00    -0.274 OA
ATOM     30  N   UNL     1       0.019   0.996   0.588  0.00  0.00    -0.314 N 
ATOM     31  H   UNL     1       0.042   0.039   0.429  0.00  0.00    +0.149 HD
BRANCH  30  32
ATOM     32  C   UNL     1       1.260   1.721   0.869  0.00  0.00    +0.107 C 
BRANCH  32  33
ATOM     33  C   UNL     1       2.437   0.744   0.853  0.00  0.00    -0.000 C 
ATOM     34  C   UNL     1       3.746   1.518   1.022  0.00  0.00    +0.009 C 
ATOM     35  C   UNL     1       2.285  -0.257   2.000  0.00  0.00    +0.009 C 
ENDBRANCH  32  33
ENDBRANCH  30  32
ENDBRANCH  27  28
BRANCH  27  36
ATOM     36  C   UNL     1      -2.328   0.253  -1.126  0.00  0.00    +0.034 C 
BRANCH  36  38
ATOM     37  C   UNL     1      -3.529  -1.165  -2.796  0.00  0.00    +0.007 C 
ATOM     38  C   UNL     1      -3.571  -0.605  -1.373  0.00  0.00    -0.015 C 
ATOM     39  C   UNL     1      -3.600  -1.761  -0.371  0.00  0.00    +0.007 C 
ENDBRANCH  36  38
ENDBRANCH  27  36
ENDBRANCH  23  27
ENDBRANCH   1  24
TORSDOF 7
