REMARK  Name = ZINC03874802
REMARK  11 active torsions:
REMARK  status: ('A' for Active; 'I' for Inactive)
REMARK    1  A    between atoms: C_1  and  C_2
REMARK    2  A    between atoms: C_5  and  O_29
REMARK    3  A    between atoms: C_8  and  C_9
REMARK    4  A    between atoms: C_8  and  C_10
REMARK    5  A    between atoms: C_13  and  O_28
REMARK    6  A    between atoms: C_17  and  C_27
REMARK    7  A    between atoms: C_20  and  O_26
REMARK    8  A    between atoms: C_22  and  C_24
REMARK    9  A    between atoms: C_24  and  O_25
REMARK   10  A    between atoms: O_29  and  C_30
REMARK   11  A    between atoms: C_30  and  C_32
REMARK                            x       y       z     vdW  Elec       q    Type
REMARK                         _______ _______ _______ _____ _____    ______ ____
ROOT
ATOM      1  C   UNL     1       2.343  -0.476   0.950  0.00  0.00    +0.010 C 
ATOM      2  C   UNL     1       3.203   0.587   0.275  0.00  0.00    +0.023 C 
ATOM      3  C   UNL     1       4.361  -0.111  -0.447  0.00  0.00    +0.055 C 
ATOM      4  C   UNL     1       5.347   0.970  -0.880  0.00  0.00    +0.123 C 
ATOM      5  C   UNL     1       4.744   2.312  -1.277  0.00  0.00    +0.052 C 
ATOM      6  C   UNL     1       5.406   1.433  -2.330  0.00  0.00    +0.012 C 
ATOM      7  C   UNL     1       4.561   0.695  -3.364  0.00  0.00    +0.015 C 
ATOM      8  C   UNL     1       6.783   1.888  -2.849  0.00  0.00    +0.015 C 
ATOM      9  C   UNL     1       3.250   2.553  -1.269  0.00  0.00    +0.052 C 
ATOM     10  C   UNL     1       2.394   1.426  -0.720  0.00  0.00    +0.085 C 
ATOM     11  C   UNL     1       1.183   2.005  -0.004  0.00  0.00    +0.084 C 
ATOM     12  C   UNL     1      -0.013   1.080   0.001  0.00  0.00    -0.011 C 
ATOM     13  C   UNL     1      -1.124   1.824   0.046  0.00  0.00    -0.009 C 
ATOM     14  C   UNL     1      -0.792   3.250  -0.041  0.00  0.00    +0.191 C 
ATOM     15  O   UNL     1      -1.448   4.200   0.305  0.00  0.00    -0.289 OA
ATOM     16  C   UNL     1       0.606   3.261  -0.685  0.00  0.00    +0.140 C 
ATOM     17  C   UNL     1       0.384   2.964  -2.168  0.00  0.00    +0.076 C 
ATOM     18  C   UNL     1       1.592   3.259  -2.991  0.00  0.00    -0.045 C 
ATOM     19  C   UNL     1       2.812   3.068  -2.602  0.00  0.00    -0.019 C 
ATOM     20  C   UNL     1      -2.517   1.271   0.169  0.00  0.00    +0.047 C 
ENDROOT
BRANCH  16  21
ATOM     21  O   UNL     1       1.306   4.469  -0.425  0.00  0.00    -0.380 OA
ATOM     22  H   UNL     1       0.927   5.244  -0.861  0.00  0.00    +0.211 HD
ENDBRANCH  16  21
BRANCH  10  23
ATOM     23  O   UNL     1       1.962   0.582  -1.787  0.00  0.00    -0.387 OA
ATOM     24  H   UNL     1       1.417  -0.164  -1.502  0.00  0.00    +0.210 HD
ENDBRANCH  10  23
BRANCH  18  25
ATOM     25  C   UNL     1       1.379   3.821  -4.375  0.00  0.00    +0.186 C 
BRANCH  25  26
ATOM     26  O   UNL     1       2.644   4.036  -5.002  0.00  0.00    -0.391 OA
ATOM     27  H   UNL     1       2.584   4.396  -5.898  0.00  0.00    +0.210 HD
ENDBRANCH  25  26
ENDBRANCH  18  25
BRANCH   4  28
ATOM     28  O   UNL     1       6.589   1.013  -0.121  0.00  0.00    -0.457 OA
BRANCH  28  29
ATOM     29  C   UNL     1       6.587   1.734   1.011  0.00  0.00    +0.304 C 
ATOM     30  O   UNL     1       5.561   2.234   1.407  0.00  0.00    -0.251 OA
ATOM     31  C   UNL     1       7.865   1.920   1.788  0.00  0.00    +0.136 C 
ENDBRANCH  28  29
ENDBRANCH   4  28
TORSDOF 6
