REMARK  Name = ZINC63090989
REMARK  9 active torsions:
REMARK  status: ('A' for Active; 'I' for Inactive)
REMARK    1  A    between atoms: C_1  and  C_2
REMARK    2  A    between atoms: C_5  and  C_9
REMARK    3  A    between atoms: C_6  and  O_8
REMARK    4  A    between atoms: N_11  and  C_12
REMARK    5  A    between atoms: N_11  and  C_13
REMARK    6  A    between atoms: C_13  and  C_15
REMARK    7  A    between atoms: C_13  and  C_16
REMARK    8  A    between atoms: C_16  and  C_17
REMARK    9  A    between atoms: N_18  and  O_19
REMARK                            x       y       z     vdW  Elec       q    Type
REMARK                         _______ _______ _______ _____ _____    ______ ____
ROOT
ATOM      1  C   UNL     1       0.262  -4.281  -0.055  0.00  0.00    +0.250 C 
ATOM      2  O   UNL     1       0.359  -4.910   0.981  0.00  0.00    -0.270 OA
ATOM      3  N   UNL     1      -0.040  -4.917  -1.204  0.00  0.00    -0.297 N 
ATOM      4  C   UNL     1      -0.056  -4.177  -2.469  0.00  0.00    +0.132 C 
ENDROOT
BRANCH   1   9
ATOM      5  C   UNL     1       1.100   1.414  -0.058  0.00  0.00    +0.044 C 
ATOM      6  C   UNL     1       0.878  -0.077  -0.054  0.00  0.00    -0.047 A 
ATOM      7  C   UNL     1       1.500  -0.868  -1.007  0.00  0.00    +0.004 A 
ATOM      8  C   UNL     1       1.304  -2.232  -1.013  0.00  0.00    +0.017 A 
ATOM      9  C   UNL     1       0.476  -2.821  -0.054  0.00  0.00    +0.078 A 
ATOM     10  C   UNL     1      -0.150  -2.018   0.908  0.00  0.00    +0.129 A 
ATOM     11  C   UNL     1       0.062  -0.647   0.902  0.00  0.00    +0.049 A 
BRANCH  10  12
ATOM     12  O   UNL     1      -0.957  -2.578   1.843  0.00  0.00    -0.506 OA
ATOM     13  H   UNL     1      -0.497  -2.843   2.652  0.00  0.00    +0.292 HD
ENDBRANCH  10  12
ENDBRANCH   1   9
BRANCH   3  14
ATOM     14  C   UNL     1      -0.352  -6.348  -1.189  0.00  0.00    +0.080 C 
ATOM     15  C   UNL     1       0.651  -7.098  -2.069  0.00  0.00    +0.028 C 
BRANCH  14  16
ATOM     16  C   UNL     1      -1.767  -6.567  -1.728  0.00  0.00    +0.096 C 
BRANCH  16  17
ATOM     17  C   UNL     1      -2.764  -5.932  -0.793  0.00  0.00    +0.133 C 
ATOM     18  N   UNL     1      -2.355  -5.323   0.270  0.00  0.00    -0.077 NA
ATOM     19  N   UNL     1      -4.111  -6.001  -1.073  0.00  0.00    -0.344 N 
ATOM     20  H   UNL     1      -4.417  -6.458  -1.871  0.00  0.00    +0.144 HD
ATOM     21  H   UNL     1      -4.752  -5.592  -0.471  0.00  0.00    +0.144 HD
BRANCH  18  22
ATOM     22  O   UNL     1      -3.292  -4.726   1.149  0.00  0.00    -0.408 OA
ATOM     23  H   UNL     1      -2.892  -4.294   1.916  0.00  0.00    +0.328 HD
ENDBRANCH  18  22
ENDBRANCH  16  17
ENDBRANCH  14  16
ENDBRANCH   3  14
TORSDOF 6
