REMARK  Name = ZINC38999064
REMARK  6 active torsions:
REMARK  status: ('A' for Active; 'I' for Inactive)
REMARK    1  A    between atoms: C_1  and  C_2
REMARK    2  A    between atoms: C_4  and  C_8
REMARK    3  A    between atoms: C_12  and  S_16
REMARK    4  A    between atoms: N_14  and  N_15
REMARK    5  A    between atoms: S_16  and  C_17
REMARK    6  A    between atoms: C_17  and  C_18
REMARK                            x       y       z     vdW  Elec       q    Type
REMARK                         _______ _______ _______ _____ _____    ______ ____
ROOT
ATOM      1  C   UNL     1      -0.971  -2.950   1.250  0.00  0.00    +0.185 C 
ATOM      2  N   UNL     1      -2.450  -3.098   1.286  0.00  0.00    -0.234 NA
ATOM      3  N   UNL     1      -2.644  -4.276   2.146  0.00  0.00    -0.228 NA
ATOM      4  C   UNL     1      -1.536  -5.187   1.782  0.00  0.00    +0.214 C 
ATOM      5  N   UNL     1      -0.464  -4.341   1.213  0.00  0.00    -0.197 NA
ATOM      6  H   UNL     1      -2.820  -3.261   0.361  0.00  0.00    +0.143 HD
ATOM      7  H   UNL     1      -3.540  -4.707   1.971  0.00  0.00    +0.143 HD
ENDROOT
BRANCH   1  11
ATOM      8  C   UNL     1      -0.027   1.504   0.012  0.00  0.00    +0.067 C 
ATOM      9  C   UNL     1      -0.007  -0.003   0.003  0.00  0.00    +0.058 C 
ATOM     10  C   UNL     1      -1.095  -0.776   0.006  0.00  0.00    +0.029 C 
ATOM     11  C   UNL     1      -0.540  -2.189  -0.006  0.00  0.00    +0.186 C 
ATOM     12  N   UNL     1       0.917  -1.973  -0.013  0.00  0.00    -0.177 NA
ATOM     13  N   UNL     1       1.116  -0.755  -0.013  0.00  0.00    -0.159 NA
ENDBRANCH   1  11
BRANCH   5  14
ATOM     14  N   UNL     1      -0.149  -4.745  -0.148  0.00  0.00    -0.264 NA
ATOM     15  H   UNL     1       0.196  -5.693  -0.173  0.00  0.00    +0.137 HD
ATOM     16  H   UNL     1      -0.950  -4.636  -0.752  0.00  0.00    +0.137 HD
ENDBRANCH   5  14
BRANCH   4  17
ATOM     17  S   UNL     1      -0.928  -6.048   3.259  0.00  0.00    -0.115 S 
BRANCH  17  18
ATOM     18  C   UNL     1      -0.413  -4.707   4.367  0.00  0.00    +0.168 C 
BRANCH  18  19
ATOM     19  C   UNL     1       0.119  -5.292   5.650  0.00  0.00    +0.228 C 
ATOM     20  O   UNL     1       0.149  -6.495   5.802  0.00  0.00    -0.275 OA
ATOM     21  N   UNL     1       0.563  -4.478   6.629  0.00  0.00    -0.270 N 
ATOM     22  C   UNL     1       0.957  -5.013   7.855  0.00  0.00    +0.125 A 
ATOM     23  C   UNL     1       1.312  -4.162   8.895  0.00  0.00    +0.045 A 
ATOM     24  C   UNL     1       1.700  -4.705  10.107  0.00  0.00    +0.020 A 
ATOM     25  C   UNL     1       1.720  -6.088  10.237  0.00  0.00    +0.036 A 
ATOM     26  C   UNL     1       1.353  -6.873   9.161  0.00  0.00    +0.128 A 
ATOM     27  N   UNL     1       0.983  -6.326   8.020  0.00  0.00    -0.239 NA
ATOM     28 BR   UNL     1       2.242  -6.886  11.870  0.00  0.00    -0.049 Br
ATOM     29  H   UNL     1       0.608  -3.521   6.480  0.00  0.00    +0.156 HD
ENDBRANCH  18  19
ENDBRANCH  17  18
ENDBRANCH   4  17
TORSDOF 5
