REMARK  Name = ZINC13568753
REMARK  7 active torsions:
REMARK  status: ('A' for Active; 'I' for Inactive)
REMARK    1  A    between atoms: C_4  and  O_7
REMARK    2  A    between atoms: O_7  and  C_8
REMARK    3  A    between atoms: C_13  and  N_14
REMARK    4  A    between atoms: C_15  and  C_17
REMARK    5  A    between atoms: C_17  and  S_18
REMARK    6  A    between atoms: S_18  and  C_19
REMARK    7  A    between atoms: C_20  and  C_30
REMARK                            x       y       z     vdW  Elec       q    Type
REMARK                         _______ _______ _______ _____ _____    ______ ____
ROOT
ATOM      1  N   UNL     1       5.929  -1.934   0.113  0.00  0.00    -0.282 N 
ATOM      2  C   UNL     1       7.082  -2.631   0.100  0.00  0.00    +0.227 C 
ATOM      3  O   UNL     1       7.061  -3.841   0.188  0.00  0.00    -0.275 OA
ATOM      4  H   UNL     1       5.948  -0.965   0.100  0.00  0.00    +0.155 HD
ENDROOT
BRANCH   1  10
ATOM      5  C   UNL     1       3.596  -2.081  -0.517  0.00  0.00    +0.150 A 
ATOM      6  C   UNL     1       2.386  -2.758  -0.487  0.00  0.00    +0.048 A 
ATOM      7  C   UNL     1       2.279  -3.951   0.202  0.00  0.00    +0.004 A 
ATOM      8  C   UNL     1       3.375  -4.474   0.863  0.00  0.00    +0.002 A 
ATOM      9  C   UNL     1       4.585  -3.806   0.838  0.00  0.00    +0.027 A 
ATOM     10  C   UNL     1       4.702  -2.611   0.144  0.00  0.00    +0.076 A 
BRANCH   5  11
ATOM     11  O   UNL     1       3.704  -0.907  -1.194  0.00  0.00    -0.454 OA
BRANCH  11  15
ATOM     12  C   UNL     1       0.273   0.723  -2.804  0.00  0.00    +0.000 A 
ATOM     13  C   UNL     1       0.422   0.646  -1.431  0.00  0.00    +0.004 A 
ATOM     14  C   UNL     1       1.570   0.101  -0.890  0.00  0.00    +0.046 A 
ATOM     15  C   UNL     1       2.573  -0.371  -1.724  0.00  0.00    +0.129 A 
ATOM     16  C   UNL     1       2.421  -0.293  -3.101  0.00  0.00    +0.046 A 
ATOM     17  C   UNL     1       1.271   0.254  -3.638  0.00  0.00    +0.004 A 
ENDBRANCH  11  15
ENDBRANCH   5  11
ENDBRANCH   1  10
BRANCH   2  18
ATOM     18  C   UNL     1       8.399  -1.908  -0.024  0.00  0.00    +0.171 C 
BRANCH  18  19
ATOM     19  S   UNL     1       9.755  -3.112  -0.011  0.00  0.00    -0.107 S 
BRANCH  19  20
ATOM     20  C   UNL     1      11.205  -2.123  -0.161  0.00  0.00    +0.066 A 
ATOM     21  C   UNL     1      12.534  -2.540  -0.209  0.00  0.00    +0.098 A 
ATOM     22  C   UNL     1      13.565  -1.521  -0.338  0.00  0.00    +0.107 A 
ATOM     23  C   UNL     1      13.088  -0.192  -0.401  0.00  0.00    +0.104 A 
ATOM     24  S   UNL     1      11.325  -0.350  -0.295  0.00  0.00    -0.074 S 
ATOM     25  C   UNL     1      13.946   0.868  -0.522  0.00  0.00    +0.269 A 
ATOM     26  O   UNL     1      13.478   2.134  -0.581  0.00  0.00    -0.266 OA
ATOM     27  N   UNL     1      15.291   0.616  -0.582  0.00  0.00    -0.273 N 
ATOM     28  C   UNL     1      15.727  -0.655  -0.521  0.00  0.00    +0.349 A 
ATOM     29  N   UNL     1      14.908  -1.684  -0.404  0.00  0.00    -0.191 NA
ATOM     30  O   UNL     1      16.928  -0.866  -0.576  0.00  0.00    -0.245 OA
ATOM     31  H   UNL     1      15.923   1.346  -0.669  0.00  0.00    +0.174 HD
BRANCH  21  32
ATOM     32  C   UNL     1      12.875  -3.929  -0.134  0.00  0.00    +0.103 C 
ATOM     33  N   UNL     1      13.146  -5.030  -0.074  0.00  0.00    -0.191 NA
ENDBRANCH  21  32
ENDBRANCH  19  20
ENDBRANCH  18  19
ENDBRANCH   2  18
TORSDOF 7
