REMARK  Name = ZINC05118994
REMARK  7 active torsions:
REMARK  status: ('A' for Active; 'I' for Inactive)
REMARK    1  A    between atoms: C_4  and  O_29
REMARK    2  A    between atoms: C_5  and  C_7
REMARK    3  A    between atoms: N_9  and  N_10
REMARK    4  A    between atoms: N_10  and  C_11
REMARK    5  A    between atoms: N_18  and  C_21
REMARK    6  A    between atoms: C_21  and  C_22
REMARK    7  A    between atoms: C_22  and  C_23
REMARK                            x       y       z     vdW  Elec       q    Type
REMARK                         _______ _______ _______ _____ _____    ______ ____
ROOT
ATOM      1  C   UNL     1       2.473   1.362  -0.015  0.00  0.00    +0.106 C 
ATOM      2  C   UNL     1       1.262   1.985   0.220  0.00  0.00    +0.114 C 
ATOM      3  C   UNL     1       1.185   3.424   0.531  0.00  0.00    +0.256 C 
ATOM      4  O   UNL     1       2.191   4.105   0.591  0.00  0.00    -0.270 OA
ATOM      5  N   UNL     1      -0.032   3.965   0.749  0.00  0.00    -0.263 N 
ATOM      6  C   UNL     1      -1.148   3.226   0.687  0.00  0.00    +0.146 C 
ATOM      7  S   UNL     1      -2.648   3.998   0.978  0.00  0.00    -0.018 S 
ATOM      8  N   UNL     1      -1.153   1.916   0.404  0.00  0.00    -0.249 N 
ATOM      9  C   UNL     1      -0.009   1.241   0.170  0.00  0.00    +0.258 C 
ATOM     10  O   UNL     1      -0.026   0.050  -0.080  0.00  0.00    -0.269 OA
ATOM     11  H   UNL     1      -0.100   4.910   0.955  0.00  0.00    +0.157 HD
ENDROOT
BRANCH   1  12
ATOM     12  N   UNL     1       3.599   2.096  -0.123  0.00  0.00    -0.271 N 
ATOM     13  H   UNL     1       3.549   3.065  -0.117  0.00  0.00    +0.169 HD
BRANCH  12  16
ATOM     14  C   UNL     1       5.966   2.192  -0.353  0.00  0.00    +0.264 C 
ATOM     15  O   UNL     1       5.904   3.407  -0.346  0.00  0.00    -0.269 OA
ATOM     16  N   UNL     1       4.841   1.459  -0.245  0.00  0.00    -0.233 N 
ATOM     17  H   UNL     1       4.891   0.490  -0.251  0.00  0.00    +0.173 HD
BRANCH  14  22
ATOM     18  C   UNL     1       8.575  -0.493  -0.610  0.00  0.00    +0.001 A 
ATOM     19  C   UNL     1       9.733   0.260  -0.721  0.00  0.00    +0.004 A 
ATOM     20  C   UNL     1       9.671   1.640  -0.714  0.00  0.00    +0.046 A 
ATOM     21  C   UNL     1       8.447   2.281  -0.594  0.00  0.00    +0.129 A 
ATOM     22  C   UNL     1       7.274   1.522  -0.481  0.00  0.00    +0.079 A 
ATOM     23  C   UNL     1       7.351   0.127  -0.484  0.00  0.00    +0.017 A 
BRANCH  21  24
ATOM     24  O   UNL     1       8.386   3.636  -0.587  0.00  0.00    -0.506 OA
ATOM     25  H   UNL     1       8.453   4.028   0.294  0.00  0.00    +0.292 HD
ENDBRANCH  21  24
ENDBRANCH  14  22
ENDBRANCH  12  16
ENDBRANCH   1  12
BRANCH   8  26
ATOM     26  C   UNL     1      -2.430   1.200   0.354  0.00  0.00    +0.120 C 
BRANCH  26  27
ATOM     27  C   UNL     1      -2.763   0.652   1.743  0.00  0.00    +0.050 C 
BRANCH  27  28
ATOM     28  C   UNL     1      -4.077  -0.085   1.691  0.00  0.00    -0.072 C 
ATOM     29  C   UNL     1      -4.046  -1.368   1.519  0.00  0.00    -0.028 C 
ATOM     30  C   UNL     1      -5.269  -2.234   1.437  0.00  0.00    +0.027 C 
ATOM     31  C   UNL     1      -6.482  -1.488   1.997  0.00  0.00    +0.004 C 
ATOM     32  C   UNL     1      -6.538  -0.098   1.350  0.00  0.00    +0.005 C 
ATOM     33  C   UNL     1      -5.338   0.713   1.848  0.00  0.00    +0.030 C 
ENDBRANCH  27  28
ENDBRANCH  26  27
ENDBRANCH   8  26
TORSDOF 7
