REMARK  Name = ZINC39598737
REMARK  9 active torsions:
REMARK  status: ('A' for Active; 'I' for Inactive)
REMARK    1  A    between atoms: C_1  and  C_2
REMARK    2  A    between atoms: C_2  and  N_3
REMARK    3  A    between atoms: C_4  and  C_6
REMARK    4  A    between atoms: C_17  and  C_19
REMARK    5  A    between atoms: C_21  and  C_28
REMARK    6  A    between atoms: N_23  and  C_24
REMARK    7  A    between atoms: C_24  and  C_25
REMARK    8  A    between atoms: C_24  and  C_26
REMARK    9  A    between atoms: C_24  and  C_27
REMARK                            x       y       z     vdW  Elec       q    Type
REMARK                         _______ _______ _______ _____ _____    ______ ____
ROOT
ATOM      1  C   UNL     1       1.353  -2.619  -2.294  0.00  0.00    +0.100 C 
ATOM      2  C   UNL     1       2.806  -2.096  -2.350  0.00  0.00    +0.121 C 
ATOM      3  N   UNL     1       3.633  -3.243  -1.907  0.00  0.00    -0.295 N 
ATOM      4  C   UNL     1       2.990  -4.424  -2.530  0.00  0.00    +0.115 C 
ATOM      5  C   UNL     1       1.478  -4.147  -2.416  0.00  0.00    -0.004 C 
ATOM      6  C   UNL     1       0.755  -4.637  -3.667  0.00  0.00    -0.010 C 
ATOM      7  C   UNL     1       0.843  -6.165  -3.736  0.00  0.00    -0.082 C 
ATOM      8  N   UNL     1       0.233  -6.747  -2.534  0.00  0.00    +0.379 N 
ATOM      9  C   UNL     1       0.991  -6.344  -1.343  0.00  0.00    -0.082 C 
ATOM     10  C   UNL     1       0.909  -4.824  -1.173  0.00  0.00    -0.010 C 
ATOM     11  C   UNL     1       4.725  -3.218  -1.117  0.00  0.00    +0.265 C 
ATOM     12  O   UNL     1       5.295  -4.255  -0.834  0.00  0.00    -0.268 OA
ATOM     13  H   UNL     1      -0.719  -6.422  -2.450  0.00  0.00    -0.086 HD
ATOM     14  H   UNL     1       0.237  -7.753  -2.610  0.00  0.00    -0.086 HD
ENDROOT
BRANCH  11  15
ATOM     15  C   UNL     1       5.228  -1.936  -0.597  0.00  0.00    +0.124 A 
ATOM     16  C   UNL     1       4.832  -0.669  -0.988  0.00  0.00    +0.057 A 
ATOM     17  C   UNL     1       5.590   0.211  -0.212  0.00  0.00    +0.061 A 
ATOM     18  N   UNL     1       6.364  -0.503   0.565  0.00  0.00    -0.175 NA
ATOM     19  N   UNL     1       6.174  -1.759   0.371  0.00  0.00    -0.254 N 
ATOM     20  C   UNL     1       5.530   1.716  -0.263  0.00  0.00    +0.067 C 
BRANCH  19  21
ATOM     21  C   UNL     1       6.870  -2.837   1.079  0.00  0.00    +0.056 C 
ATOM     22  C   UNL     1       7.715  -3.637   0.086  0.00  0.00    +0.036 C 
ATOM     23  C   UNL     1       7.779  -2.237   2.155  0.00  0.00    +0.036 C 
ATOM     24  C   UNL     1       5.843  -3.761   1.736  0.00  0.00    +0.036 C 
ENDBRANCH  19  21
ENDBRANCH  11  15
BRANCH   1  26
ATOM     25  N   UNL     1      -0.631  -2.224  -0.870  0.00  0.00    -0.315 N 
ATOM     26  C   UNL     1       0.712  -2.248  -0.981  0.00  0.00    +0.218 C 
ATOM     27  O   UNL     1       1.405  -1.972  -0.025  0.00  0.00    -0.275 OA
ATOM     28  H   UNL     1      -1.185  -2.374  -1.651  0.00  0.00    +0.149 HD
BRANCH  25  30
ATOM     29  C   UNL     1      -2.776  -1.997   0.283  0.00  0.00    +0.024 C 
ATOM     30  C   UNL     1      -1.253  -1.971   0.432  0.00  0.00    +0.101 C 
ENDBRANCH  25  30
ENDBRANCH   1  26
TORSDOF 4
