REMARK  Name = ZINC62382946
REMARK  10 active torsions:
REMARK  status: ('A' for Active; 'I' for Inactive)
REMARK    1  A    between atoms: C_1  and  C_2
REMARK    2  A    between atoms: C_5  and  C_24
REMARK    3  A    between atoms: N_8  and  C_10
REMARK    4  A    between atoms: C_10  and  C_11
REMARK    5  A    between atoms: C_12  and  O_23
REMARK    6  A    between atoms: C_16  and  C_21
REMARK    7  A    between atoms: N_17  and  C_18
REMARK    8  A    between atoms: C_18  and  C_19
REMARK    9  A    between atoms: C_19  and  O_20
REMARK   10  A    between atoms: C_21  and  O_22
REMARK                            x       y       z     vdW  Elec       q    Type
REMARK                         _______ _______ _______ _____ _____    ______ ____
ROOT
ATOM      1  C   UNL     1       0.739  -2.171   3.820  0.00  0.00    +0.048 A 
ATOM      2  C   UNL     1       0.756  -1.009   4.516  0.00  0.00    +0.181 A 
ATOM      3  C   UNL     1      -0.068  -0.879   5.663  0.00  0.00    +0.223 A 
ATOM      4  O   UNL     1      -0.074   0.157   6.312  0.00  0.00    -0.284 OA
ATOM      5  C   UNL     1      -0.881  -1.971   6.041  0.00  0.00    +0.078 A 
ATOM      6  C   UNL     1      -0.852  -3.104   5.303  0.00  0.00    +0.048 A 
ATOM      7  N   UNL     1      -0.059  -3.199   4.209  0.00  0.00    -0.342 N 
ENDROOT
BRANCH   2   8
ATOM      8  O   UNL     1       1.554   0.020   4.121  0.00  0.00    -0.502 OA
ATOM      9  H   UNL     1       1.493   0.803   4.684  0.00  0.00    +0.292 HD
ENDBRANCH   2   8
BRANCH   1  10
ATOM     10  C   UNL     1       1.609  -2.322   2.599  0.00  0.00    -0.021 C 
BRANCH  10  16
ATOM     11  C   UNL     1      -1.254   0.658  -0.025  0.00  0.00    +0.005 C 
ATOM     12  C   UNL     1      -0.692  -0.761   0.078  0.00  0.00    -0.031 C 
ATOM     13  C   UNL     1       0.099  -1.091  -1.191  0.00  0.00    +0.003 C 
ATOM     14  C   UNL     1       0.723  -2.482  -1.044  0.00  0.00    -0.031 C 
ATOM     15  C   UNL     1       1.599  -2.512   0.209  0.00  0.00    -0.075 C 
ATOM     16  N   UNL     1       0.780  -2.215   1.391  0.00  0.00    +0.384 N 
ATOM     17  C   UNL     1       0.236  -0.855   1.291  0.00  0.00    -0.075 C 
ATOM     18  C   UNL     1      -0.386  -3.528  -0.919  0.00  0.00    +0.005 C 
ATOM     19  H   UNL     1       0.020  -2.876   1.447  0.00  0.00    -0.081 HD
ENDBRANCH  10  16
ENDBRANCH   1  10
BRANCH   7  20
ATOM     20  C   UNL     1      -0.059  -4.440   3.430  0.00  0.00    +0.149 C 
BRANCH  20  21
ATOM     21  C   UNL     1       1.084  -5.339   3.905  0.00  0.00    +0.177 C 
BRANCH  21  22
ATOM     22  O   UNL     1       0.860  -5.718   5.264  0.00  0.00    -0.393 OA
ATOM     23  H   UNL     1       1.584  -6.226   5.655  0.00  0.00    +0.209 HD
ENDBRANCH  21  22
ENDBRANCH  20  21
ENDBRANCH   7  20
BRANCH   6  24
ATOM     24  C   UNL     1      -1.717  -4.273   5.700  0.00  0.00    +0.209 C 
BRANCH  24  25
ATOM     25  O   UNL     1      -2.462  -3.938   6.872  0.00  0.00    -0.389 OA
ATOM     26  H   UNL     1      -3.042  -4.645   7.186  0.00  0.00    +0.210 HD
ENDBRANCH  24  25
ENDBRANCH   6  24
TORSDOF 8
