REMARK  Name = ZINC47964140
REMARK  11 active torsions:
REMARK  status: ('A' for Active; 'I' for Inactive)
REMARK    1  A    between atoms: C_1  and  N_2
REMARK    2  A    between atoms: N_2  and  C_3
REMARK    3  A    between atoms: N_2  and  C_4
REMARK    4  A    between atoms: C_4  and  C_6
REMARK    5  A    between atoms: C_4  and  C_21
REMARK    6  A    between atoms: C_6  and  N_7
REMARK    7  A    between atoms: C_8  and  C_10
REMARK    8  A    between atoms: N_12  and  C_13
REMARK    9  A    between atoms: C_14  and  C_18
REMARK   10  A    between atoms: C_26  and  O_27
REMARK   11  A    between atoms: O_27  and  C_28
REMARK                            x       y       z     vdW  Elec       q    Type
REMARK                         _______ _______ _______ _____ _____    ______ ____
ROOT
ATOM      1  N   UNL     1      -1.191  -0.703   2.510  0.00  0.00    -0.309 N 
ATOM      2  C   UNL     1      -1.932  -0.581   3.629  0.00  0.00    +0.299 C 
ATOM      3  O   UNL     1      -1.495   0.029   4.583  0.00  0.00    -0.265 OA
ATOM      4  H   UNL     1      -1.541  -1.190   1.748  0.00  0.00    +0.149 HD
ENDROOT
BRANCH   2   5
ATOM      5  C   UNL     1      -3.292  -1.195   3.695  0.00  0.00    +0.304 C 
ATOM      6  O   UNL     1      -3.729  -1.804   2.741  0.00  0.00    -0.265 OA
ATOM      7  N   UNL     1      -4.032  -1.072   4.814  0.00  0.00    -0.272 N 
ATOM      8  H   UNL     1      -3.683  -0.585   5.577  0.00  0.00    +0.156 HD
BRANCH   7   9
ATOM      9  C   UNL     1      -5.293  -1.642   4.876  0.00  0.00    +0.084 A 
ATOM     10  C   UNL     1      -6.191  -1.613   5.933  0.00  0.00    +0.065 A 
ATOM     11  C   UNL     1      -7.449  -2.295   5.731  0.00  0.00    +0.022 A 
ATOM     12  C   UNL     1      -7.610  -2.885   4.532  0.00  0.00    +0.048 A 
ATOM     13  S   UNL     1      -6.087  -2.519   3.687  0.00  0.00    -0.081 S 
BRANCH  10  14
ATOM     14  C   UNL     1      -5.880  -0.927   7.192  0.00  0.00    +0.244 C 
ATOM     15  O   UNL     1      -4.810  -0.363   7.329  0.00  0.00    -0.270 OA
ATOM     16  N   UNL     1      -6.778  -0.921   8.196  0.00  0.00    -0.325 N 
ATOM     17  H   UNL     1      -7.631  -1.371   8.087  0.00  0.00    +0.145 HD
ATOM     18  H   UNL     1      -6.572  -0.467   9.028  0.00  0.00    +0.145 HD
ENDBRANCH  10  14
ENDBRANCH   7   9
ENDBRANCH   2   5
BRANCH   1  19
ATOM     19  C   UNL     1       0.142  -0.101   2.445  0.00  0.00    +0.094 C 
BRANCH  19  20
ATOM     20  C   UNL     1       0.812  -0.486   1.125  0.00  0.00    -0.017 C 
BRANCH  20  21
ATOM     21  C   UNL     1       1.043  -1.975   1.094  0.00  0.00    -0.018 A 
ATOM     22  C   UNL     1       0.178  -2.794   0.395  0.00  0.00    +0.005 A 
ATOM     23  C   UNL     1       0.388  -4.160   0.367  0.00  0.00    +0.000 A 
ATOM     24  C   UNL     1       1.465  -4.710   1.038  0.00  0.00    +0.004 A 
ATOM     25  C   UNL     1       2.333  -3.896   1.739  0.00  0.00    +0.046 A 
ATOM     26  C   UNL     1       2.126  -2.524   1.764  0.00  0.00    +0.122 A 
BRANCH  26  27
ATOM     27  O   UNL     1       2.982  -1.719   2.448  0.00  0.00    -0.495 OA
ATOM     28  C   UNL     1       4.076  -2.353   3.115  0.00  0.00    +0.277 C 
ENDBRANCH  26  27
ENDBRANCH  20  21
BRANCH  20  30
ATOM     29  C   UNL     1      -0.388   1.325   0.109  0.00  0.00    -0.096 C 
ATOM     30  N   UNL     1      -0.056  -0.102   0.004  0.00  0.00    +0.382 N 
ATOM     31  C   UNL     1       0.642  -0.351  -1.264  0.00  0.00    -0.096 C 
ATOM     32  H   UNL     1      -0.905  -0.647   0.034  0.00  0.00    -0.082 HD
ENDBRANCH  20  30
ENDBRANCH  19  20
ENDBRANCH   1  19
TORSDOF 8
