REMARK  Name = ZINC04200944
REMARK  11 active torsions:
REMARK  status: ('A' for Active; 'I' for Inactive)
REMARK    1  A    between atoms: C_1  and  N_2
REMARK    2  A    between atoms: N_2  and  C_3
REMARK    3  A    between atoms: C_3  and  C_4
REMARK    4  A    between atoms: C_7  and  C_9
REMARK    5  A    between atoms: C_11  and  N_21
REMARK    6  A    between atoms: C_16  and  C_18
REMARK    7  A    between atoms: C_18  and  S_19
REMARK    8  A    between atoms: S_19  and  C_20
REMARK    9  A    between atoms: N_24  and  C_25
REMARK   10  A    between atoms: C_29  and  S_31
REMARK   11  A    between atoms: S_31  and  C_32
REMARK                            x       y       z     vdW  Elec       q    Type
REMARK                         _______ _______ _______ _____ _____    ______ ____
ROOT
ATOM      1  C   UNL     1      -0.226   1.040  -0.214  0.00  0.00    +0.182 C 
ATOM      2  C   UNL     1      -0.909   1.620   1.043  0.00  0.00    +0.105 C 
ATOM      3  C   UNL     1       0.289   2.136   1.883  0.00  0.00    +0.043 C 
ATOM      4  C   UNL     1       1.248   2.644   0.777  0.00  0.00    +0.110 C 
ATOM      5  N   UNL     1       1.093   1.681  -0.329  0.00  0.00    -0.287 N 
ATOM      6  C   UNL     1       2.007   1.430  -1.286  0.00  0.00    +0.226 C 
ATOM      7  O   UNL     1       1.771   0.613  -2.151  0.00  0.00    -0.275 OA
ENDROOT
BRANCH   2   8
ATOM      8  N   UNL     1      -1.636   0.574   1.766  0.00  0.00    -0.294 N 
ATOM      9  C   UNL     1      -2.677   0.901   2.557  0.00  0.00    +0.304 C 
ATOM     10  O   UNL     1      -3.013   2.064   2.670  0.00  0.00    -0.252 OA
ATOM     11  N   UNL     1      -3.346  -0.061   3.223  0.00  0.00    -0.269 N 
ATOM     12  H   UNL     1      -1.368  -0.354   1.676  0.00  0.00    +0.151 HD
ATOM     13  H   UNL     1      -3.129  -0.995   3.074  0.00  0.00    +0.156 HD
BRANCH  11  14
ATOM     14  C   UNL     1      -4.354   0.287   4.129  0.00  0.00    +0.036 A 
ATOM     15  C   UNL     1      -5.459  -0.541   4.292  0.00  0.00    +0.023 A 
ATOM     16  C   UNL     1      -6.454  -0.199   5.187  0.00  0.00    +0.003 A 
ATOM     17  C   UNL     1      -6.356   0.967   5.923  0.00  0.00    +0.015 A 
ATOM     18  C   UNL     1      -5.254   1.799   5.764  0.00  0.00    +0.009 A 
ATOM     19  C   UNL     1      -4.249   1.454   4.870  0.00  0.00    +0.038 A 
BRANCH  18  20
ATOM     20  S   UNL     1      -5.128   3.285   6.703  0.00  0.00    -0.129 S 
ATOM     21  C   UNL     1      -6.637   3.296   7.710  0.00  0.00    +0.090 C 
ENDBRANCH  18  20
ENDBRANCH  11  14
ENDBRANCH   2   8
BRANCH   1  24
ATOM     22  C   UNL     1      -2.492  -0.534  -0.860  0.00  0.00    +0.132 C 
ATOM     23  N   UNL     1      -2.127   0.587  -1.730  0.00  0.00    -0.294 N 
ATOM     24  C   UNL     1      -1.052   1.345  -1.437  0.00  0.00    +0.238 C 
ATOM     25  O   UNL     1      -0.749   2.272  -2.157  0.00  0.00    -0.273 OA
BRANCH  23  26
ATOM     26  C   UNL     1      -2.929   0.883  -2.919  0.00  0.00    +0.202 C 
BRANCH  26  27
ATOM     27  C   UNL     1      -2.384   0.118  -4.097  0.00  0.00    +0.228 C 
ATOM     28  O   UNL     1      -1.419  -0.603  -3.958  0.00  0.00    -0.274 OA
ATOM     29  N   UNL     1      -2.967   0.236  -5.306  0.00  0.00    -0.328 N 
ATOM     30  H   UNL     1      -3.739   0.813  -5.418  0.00  0.00    +0.145 HD
ATOM     31  H   UNL     1      -2.616  -0.256  -6.065  0.00  0.00    +0.145 HD
ENDBRANCH  26  27
ENDBRANCH  23  26
ENDBRANCH   1  24
BRANCH   6  32
ATOM     32  C   UNL     1       3.324   2.164  -1.282  0.00  0.00    +0.164 C 
BRANCH  32  33
ATOM     33  S   UNL     1       4.330   1.609  -2.686  0.00  0.00    -0.155 S 
ATOM     34  C   UNL     1       5.859   2.575  -2.539  0.00  0.00    +0.085 C 
ENDBRANCH  32  33
ENDBRANCH   6  32
TORSDOF 8
