REMARK  Name = ZINC36281915
REMARK  9 active torsions:
REMARK  status: ('A' for Active; 'I' for Inactive)
REMARK    1  A    between atoms: C_1  and  C_2
REMARK    2  A    between atoms: C_5  and  C_8
REMARK    3  A    between atoms: C_8  and  N_9
REMARK    4  A    between atoms: N_14  and  C1*_15
REMARK    5  A    between atoms: C2*_17  and  O2*_27
REMARK    6  A    between atoms: C3*_19  and  O3*_26
REMARK    7  A    between atoms: C4*_21  and  C5*_24
REMARK    8  A    between atoms: C5*_24  and  O5*_25
REMARK    9  A    between atoms: C_29  and  N_34
REMARK                            x       y       z     vdW  Elec       q    Type
REMARK                         _______ _______ _______ _____ _____    ______ ____
ROOT
ATOM      1  N   UNL     1       1.432  -4.756  -0.247  0.00  0.00    -0.312 N 
ATOM      2  C   UNL     1       1.711  -6.109  -0.139  0.00  0.00    +0.178 A 
ATOM      3  N   UNL     1       0.815  -7.060  -0.018  0.00  0.00    -0.322 N 
ATOM      4  C   UNL     1       1.448  -8.248   0.061  0.00  0.00    +0.143 A 
ATOM      5  C   UNL     1       2.822  -7.999  -0.023  0.00  0.00    +0.135 A 
ATOM      6  N   UNL     1       2.967  -6.664  -0.148  0.00  0.00    -0.272 N 
ATOM      7  N   UNL     1       3.720  -9.049   0.018  0.00  0.00    -0.298 N 
ATOM      8  C   UNL     1       3.226 -10.367  -0.411  0.00  0.00    +0.231 C 
ATOM      9  N   UNL     1       1.864 -10.614   0.052  0.00  0.00    -0.280 N 
ATOM     10  C   UNL     1       0.958  -9.620   0.212  0.00  0.00    +0.266 C 
ATOM     11  O   UNL     1      -0.208  -9.855   0.470  0.00  0.00    -0.268 OA
ATOM     12  H   UNL     1       2.157  -4.112  -0.264  0.00  0.00    +0.149 HD
ATOM     13  H   UNL     1       4.634  -8.922   0.316  0.00  0.00    +0.150 HD
ATOM     14  H   UNL     1       1.598 -11.525   0.253  0.00  0.00    +0.152 HD
ATOM     15  H   UNL     1      -0.146  -6.930   0.011  0.00  0.00    +0.169 HD
ENDROOT
BRANCH   6  16
ATOM     16  C1* UNL     1       4.234  -5.938  -0.270  0.00  0.00    +0.255 C 
ATOM     17  C2* UNL     1       4.528  -5.175   1.036  0.00  0.00    +0.195 C 
ATOM     18  C3* UNL     1       5.840  -5.807   1.559  0.00  0.00    +0.178 C 
ATOM     19  C4* UNL     1       5.855  -7.175   0.829  0.00  0.00    +0.177 C 
ATOM     20  O4* UNL     1       5.312  -6.867  -0.476  0.00  0.00    -0.346 OA
BRANCH  18  21
ATOM     21  O3* UNL     1       6.971  -5.017   1.186  0.00  0.00    -0.386 OA
ATOM     22  H3* UNL     1       7.817  -5.373   1.491  0.00  0.00    +0.210 HD
ENDBRANCH  18  21
BRANCH  17  23
ATOM     23  O2* UNL     1       3.468  -5.366   1.976  0.00  0.00    -0.385 OA
ATOM     24  H2* UNL     1       3.601  -4.907   2.817  0.00  0.00    +0.210 HD
ENDBRANCH  17  23
BRANCH  19  25
ATOM     25  C5* UNL     1       7.285  -7.706   0.709  0.00  0.00    +0.190 C 
BRANCH  25  26
ATOM     26  O5* UNL     1       7.260  -9.016   0.139  0.00  0.00    -0.392 OA
ATOM     27  H5* UNL     1       8.134  -9.416   0.033  0.00  0.00    +0.210 HD
ENDBRANCH  25  26
ENDBRANCH  19  25
ENDBRANCH   6  16
BRANCH   8  28
ATOM     28  N   UNL     1       3.250 -10.432  -1.878  0.00  0.00    -0.298 NA
ATOM     29  H   UNL     1       2.917 -11.326  -2.206  0.00  0.00    +0.121 HD
ATOM     30  H   UNL     1       2.717  -9.677  -2.283  0.00  0.00    +0.121 HD
ENDBRANCH   8  28
BRANCH   1  31
ATOM     31  C   UNL     1       0.043  -4.299  -0.335  0.00  0.00    +0.139 C 
BRANCH  31  36
ATOM     32  C   UNL     1      -0.069   1.463  -0.751  0.00  0.00    +0.044 C 
ATOM     33  C   UNL     1      -0.039  -0.039  -0.642  0.00  0.00    -0.050 A 
ATOM     34  C   UNL     1       0.023  -0.814  -1.786  0.00  0.00    +0.003 A 
ATOM     35  C   UNL     1       0.050  -2.192  -1.686  0.00  0.00    +0.005 A 
ATOM     36  C   UNL     1       0.015  -2.796  -0.443  0.00  0.00    -0.030 A 
ATOM     37  C   UNL     1      -0.046  -2.022   0.700  0.00  0.00    +0.005 A 
ATOM     38  C   UNL     1      -0.069  -0.643   0.601  0.00  0.00    +0.003 A 
ENDBRANCH  31  36
ENDBRANCH   1  31
TORSDOF 8
