REMARK  Name = ZINC04624007
REMARK  6 active torsions:
REMARK  status: ('A' for Active; 'I' for Inactive)
REMARK    1  A    between atoms: C_1  and  C_2
REMARK    2  A    between atoms: C_2  and  C_3
REMARK    3  A    between atoms: C_2  and  N_4
REMARK    4  A    between atoms: C_5  and  C_7
REMARK    5  A    between atoms: C_8  and  N_20
REMARK    6  A    between atoms: C_19  and  N_41
REMARK                            x       y       z     vdW  Elec       q    Type
REMARK                         _______ _______ _______ _____ _____    ______ ____
ROOT
ATOM      1  C   UNL     1      -1.776   6.090   0.061  0.00  0.00    +0.097 A 
ATOM      2  C   UNL     1      -0.457   5.694   0.047  0.00  0.00    +0.053 A 
ATOM      3  C   UNL     1      -0.164   4.269   0.033  0.00  0.00    +0.029 A 
ATOM      4  C   UNL     1       1.095   3.624   0.016  0.00  0.00    +0.016 A 
ATOM      5  C   UNL     1       1.151   2.245   0.003  0.00  0.00    -0.042 A 
ATOM      6  C   UNL     1      -0.018   1.504   0.010  0.00  0.00    +0.042 A 
ATOM      7  N   UNL     1      -1.193   2.114   0.030  0.00  0.00    -0.244 NA
ATOM      8  C   UNL     1      -1.296   3.423   0.037  0.00  0.00    +0.111 A 
ATOM      9  S   UNL     1      -2.670   4.548   0.057  0.00  0.00    -0.062 S 
ATOM     10  C   UNL     1       0.002  -0.004   0.002  0.00  0.00    +0.037 C 
ATOM     11  C   UNL     1       1.381  -0.505  -0.430  0.00  0.00    -0.073 C 
ATOM     12  C   UNL     1       2.506   1.586  -0.021  0.00  0.00    -0.042 C 
ATOM     13  C   UNL     1       3.700  -0.497   0.272  0.00  0.00    -0.096 C 
ATOM     14  N   UNL     1       2.392   0.181   0.402  0.00  0.00    +0.381 N 
ATOM     15  H   UNL     1       2.095   0.149   1.385  0.00  0.00    -0.082 HD
ENDROOT
BRANCH   1  17
ATOM     16  N   UNL     1      -3.632   7.604   0.089  0.00  0.00    -0.309 N 
ATOM     17  C   UNL     1      -2.299   7.407   0.076  0.00  0.00    +0.253 C 
ATOM     18  O   UNL     1      -1.542   8.362   0.078  0.00  0.00    -0.270 OA
ATOM     19  H   UNL     1      -4.234   6.843   0.088  0.00  0.00    +0.149 HD
BRANCH  16  21
ATOM     20  C   UNL     1      -5.580   8.963  -0.493  0.00  0.00    +0.027 C 
ATOM     21  C   UNL     1      -4.171   8.966   0.105  0.00  0.00    +0.067 C 
ATOM     22  C   UNL     1      -4.230   9.475   1.547  0.00  0.00    +0.027 C 
ENDBRANCH  16  21
ENDBRANCH   1  17
BRANCH   2  23
ATOM     23  N   UNL     1       0.566   6.631   0.046  0.00  0.00    -0.356 N 
ATOM     24  H   UNL     1       1.491   6.339   0.036  0.00  0.00    +0.142 HD
ATOM     25  H   UNL     1       0.357   7.579   0.056  0.00  0.00    +0.142 HD
ENDBRANCH   2  23
TORSDOF 3
