REMARK  Name = ZINC39984402
REMARK  6 active torsions:
REMARK  status: ('A' for Active; 'I' for Inactive)
REMARK    1  A    between atoms: C_1  and  C_2
REMARK    2  A    between atoms: C_5  and  N_8
REMARK    3  A    between atoms: C_9  and  C_11
REMARK    4  A    between atoms: C_18  and  N_19
REMARK    5  A    between atoms: N_19  and  S_20
REMARK    6  A    between atoms: S_20  and  C_23
REMARK                            x       y       z     vdW  Elec       q    Type
REMARK                         _______ _______ _______ _____ _____    ______ ____
ROOT
ATOM      1  C   UNL     1      -4.000   2.401  -5.999  0.00  0.00    +0.038 A 
ATOM      2  C   UNL     1      -4.363   3.628  -5.426  0.00  0.00    +0.015 A 
ATOM      3  C   UNL     1      -4.952   4.604  -6.159  0.00  0.00    +0.030 A 
ATOM      4  C   UNL     1      -5.223   4.421  -7.538  0.00  0.00    +0.080 A 
ATOM      5  C   UNL     1      -4.847   3.174  -8.094  0.00  0.00    +0.042 A 
ATOM      6  C   UNL     1      -4.247   2.188  -7.360  0.00  0.00    +0.030 A 
ATOM      7  S   UNL     1      -5.346   3.349  -9.790  0.00  0.00    -0.049 S 
ATOM      8  C   UNL     1      -5.999   5.007  -9.661  0.00  0.00    +0.202 A 
ATOM      9  N   UNL     1      -5.797   5.290  -8.392  0.00  0.00    -0.222 NA
ENDROOT
BRANCH   1  11
ATOM     10  N   UNL     1      -3.126   1.569  -3.872  0.00  0.00    -0.281 N 
ATOM     11  C   UNL     1      -3.360   1.353  -5.182  0.00  0.00    +0.246 C 
ATOM     12  O   UNL     1      -3.044   0.294  -5.689  0.00  0.00    -0.270 OA
ATOM     13  H   UNL     1      -3.378   2.414  -3.467  0.00  0.00    +0.152 HD
BRANCH  10  18
ATOM     14  C   UNL     1      -0.013   1.086   0.008  0.00  0.00    +0.025 C 
ATOM     15  C   UNL     1      -0.753   1.593  -1.232  0.00  0.00    +0.088 C 
ATOM     16  C   UNL     1      -0.219   0.941  -2.500  0.00  0.00    +0.094 C 
ATOM     17  N   UNL     1      -1.039   0.460  -3.321  0.00  0.00    -0.262 NA
ATOM     18  C   UNL     1      -2.491   0.528  -3.060  0.00  0.00    +0.251 C 
ATOM     19  S   UNL     1      -2.496   0.982  -1.270  0.00  0.00    -0.107 S 
ENDBRANCH  10  18
ENDBRANCH   1  11
BRANCH   8  20
ATOM     20  N   UNL     1      -6.569   5.790 -10.641  0.00  0.00    -0.070 NA
BRANCH  20  21
ATOM     21  S   UNL     1      -7.107   7.313 -10.276  0.00  0.00    +0.093 S 
ATOM     22  O   UNL     1      -8.201   7.154  -9.382  0.00  0.00    -0.148 OA
ATOM     23  O   UNL     1      -5.959   8.081  -9.945  0.00  0.00    -0.148 OA
BRANCH  21  24
ATOM     24  C   UNL     1      -7.765   8.003 -11.758  0.00  0.00    +0.111 A 
ATOM     25  C   UNL     1      -6.944   8.715 -12.612  0.00  0.00    +0.030 A 
ATOM     26  C   UNL     1      -7.459   9.256 -13.775  0.00  0.00    +0.022 A 
ATOM     27  C   UNL     1      -8.796   9.086 -14.084  0.00  0.00    +0.041 A 
ATOM     28  C   UNL     1      -9.618   8.374 -13.228  0.00  0.00    +0.022 A 
ATOM     29  C   UNL     1      -9.100   7.828 -12.069  0.00  0.00    +0.030 A 
ATOM     30 CL   UNL     1      -9.444   9.766 -15.544  0.00  0.00    -0.084 Cl
ENDBRANCH  21  24
ENDBRANCH  20  21
ENDBRANCH   8  20
TORSDOF 5
