REMARK  Name = ZINC36537078
REMARK  16 active torsions:
REMARK  status: ('A' for Active; 'I' for Inactive)
REMARK    1  A    between atoms: C_1  and  C_2
REMARK    2  A    between atoms: C_2  and  C_3
REMARK    3  A    between atoms: C_2  and  C_4
REMARK    4  A    between atoms: C_2  and  C_5
REMARK    5  A    between atoms: C_5  and  C_6
REMARK    6  A    between atoms: C_6  and  C_7
REMARK    7  A    between atoms: C_6  and  C_8
REMARK    8  A    between atoms: C_6  and  N_9
REMARK    9  A    between atoms: C_10  and  C_12
REMARK   10  A    between atoms: C_12  and  C_14
REMARK   11  A    between atoms: C_12  and  N_23
REMARK   12  A    between atoms: C_17  and  N_20
REMARK   13  A    between atoms: N_23  and  C_24
REMARK   14  A    between atoms: C_25  and  C_27
REMARK   15  A    between atoms: C_27  and  N_28
REMARK   16  A    between atoms: C_29  and  C_31
REMARK                            x       y       z     vdW  Elec       q    Type
REMARK                         _______ _______ _______ _____ _____    ______ ____
ROOT
ATOM      1  C   UNL     1       5.370  -0.496  -4.286  0.00  0.00    +0.192 C 
ENDROOT
BRANCH   1   2
ATOM      2  C   UNL     1       5.336  -1.965  -4.621  0.00  0.00    -0.018 A 
ATOM      3  C   UNL     1       4.873  -2.382  -5.854  0.00  0.00    +0.008 A 
ATOM      4  C   UNL     1       4.841  -3.730  -6.161  0.00  0.00    +0.033 A 
ATOM      5  C   UNL     1       5.273  -4.660  -5.234  0.00  0.00    +0.126 A 
ATOM      6  C   UNL     1       5.737  -4.242  -4.001  0.00  0.00    +0.033 A 
ATOM      7  C   UNL     1       5.773  -2.894  -3.696  0.00  0.00    +0.008 A 
BRANCH   5   8
ATOM      8  N   UNL     1       5.238  -6.103  -5.562  0.00  0.00    +0.056 N 
ATOM      9  O   UNL     1       4.832  -6.468  -6.640  0.00  0.00    -0.126 OA
ATOM     10  O   UNL     1       5.616  -6.916  -4.751  0.00  0.00    -0.126 OA
ENDBRANCH   5   8
ENDBRANCH   1   2
BRANCH   1  12
ATOM     11  N   UNL     1       3.286  -0.568  -2.957  0.00  0.00    -0.308 N 
ATOM     12  C   UNL     1       4.594  -0.251  -3.018  0.00  0.00    +0.238 C 
ATOM     13  O   UNL     1       5.147   0.232  -2.053  0.00  0.00    -0.273 OA
ATOM     14  H   UNL     1       2.843  -0.954  -3.729  0.00  0.00    +0.149 HD
BRANCH  11  15
ATOM     15  C   UNL     1       2.531  -0.330  -1.724  0.00  0.00    +0.030 C 
ATOM     16  C   UNL     1       2.697   1.130  -1.298  0.00  0.00    +0.031 C 
ATOM     17  C   UNL     1       3.058  -1.246  -0.618  0.00  0.00    +0.031 C 
BRANCH  15  18
ATOM     18  C   UNL     1       1.050  -0.625  -1.968  0.00  0.00    +0.031 C 
BRANCH  18  20
ATOM     19  C   UNL     1       1.035  -0.968  -4.442  0.00  0.00    +0.010 C 
ATOM     20  C   UNL     1       0.624  -0.025  -3.309  0.00  0.00    -0.036 C 
ATOM     21  C   UNL     1       1.306   1.331  -3.501  0.00  0.00    +0.010 C 
ATOM     22  C   UNL     1      -0.895   0.161  -3.326  0.00  0.00    +0.010 C 
ENDBRANCH  18  20
ENDBRANCH  15  18
ENDBRANCH  11  15
ENDBRANCH   1  12
BRANCH   1  23
ATOM     23  N   UNL     1       6.759  -0.070  -4.099  0.00  0.00    -0.288 N 
ATOM     24  C   UNL     1       7.599  -0.732  -3.097  0.00  0.00    +0.133 C 
ATOM     25  C   UNL     1       7.265   0.930  -4.847  0.00  0.00    +0.233 C 
ATOM     26  O   UNL     1       6.569   1.478  -5.676  0.00  0.00    -0.274 OA
BRANCH  25  27
ATOM     27  C   UNL     1       8.694   1.368  -4.654  0.00  0.00    +0.200 C 
BRANCH  27  28
ATOM     28  N   UNL     1       8.998   2.462  -5.580  0.00  0.00    -0.303 N 
ATOM     29  C   UNL     1      10.227   3.017  -5.586  0.00  0.00    +0.244 C 
ATOM     30  O   UNL     1      11.082   2.610  -4.824  0.00  0.00    -0.270 OA
ATOM     31  H   UNL     1       8.316   2.787  -6.188  0.00  0.00    +0.150 HD
BRANCH  29  32
ATOM     32  C   UNL     1      10.534   4.121  -6.520  0.00  0.00    +0.037 A 
ATOM     33  C   UNL     1       9.553   4.595  -7.393  0.00  0.00    +0.013 A 
ATOM     34  C   UNL     1       9.847   5.626  -8.261  0.00  0.00    +0.001 A 
ATOM     35  C   UNL     1      11.111   6.189  -8.269  0.00  0.00    +0.000 A 
ATOM     36  C   UNL     1      12.088   5.724  -7.407  0.00  0.00    +0.001 A 
ATOM     37  C   UNL     1      11.806   4.698  -6.529  0.00  0.00    +0.013 A 
ENDBRANCH  29  32
ENDBRANCH  27  28
ENDBRANCH  25  27
ENDBRANCH   1  23
TORSDOF 10
