REMARK  Name = ZINC38999158
REMARK  4 active torsions:
REMARK  status: ('A' for Active; 'I' for Inactive)
REMARK    1  A    between atoms: C_6  and  C_10
REMARK    2  A    between atoms: C_10  and  C_11
REMARK    3  A    between atoms: C_10  and  C_20
REMARK    4  A    between atoms: C_11  and  C_12
REMARK                            x       y       z     vdW  Elec       q    Type
REMARK                         _______ _______ _______ _____ _____    ______ ____
ROOT
ATOM      1  C   UNL     1       3.542  -2.787  -1.302  0.00  0.00    +0.204 C 
ENDROOT
BRANCH   1   7
ATOM      2  C   UNL     1      -0.016   1.344   0.009  0.00  0.00    +0.002 A 
ATOM      3  C   UNL     1       1.158   2.118   0.002  0.00  0.00    +0.002 A 
ATOM      4  C   UNL     1       2.389   1.570  -0.013  0.00  0.00    +0.027 A 
ATOM      5  C   UNL     1       2.533   0.108  -0.022  0.00  0.00    +0.060 A 
ATOM      6  N   UNL     1       3.569  -0.680  -0.036  0.00  0.00    -0.362 N 
ATOM      7  C   UNL     1       3.071  -2.062  -0.039  0.00  0.00    +0.199 C 
ATOM      8  N   UNL     1       1.606  -1.974  -0.024  0.00  0.00    -0.362 N 
ATOM      9  C   UNL     1       1.290  -0.712  -0.014  0.00  0.00    +0.060 A 
ATOM     10  C   UNL     1       0.002  -0.004   0.002  0.00  0.00    +0.027 A 
ATOM     11  H   UNL     1       4.499  -0.405  -0.045  0.00  0.00    +0.162 HD
ATOM     12  H   UNL     1       0.987  -2.721  -0.022  0.00  0.00    +0.162 HD
ENDBRANCH   1   7
BRANCH   1  13
ATOM     13  C   UNL     1       5.048  -2.803  -1.340  0.00  0.00    +0.184 C 
ATOM     14  O   UNL     1       5.681  -2.810  -0.306  0.00  0.00    -0.291 OA
BRANCH  13  15
ATOM     15  C   UNL     1       5.750  -2.809  -2.632  0.00  0.00    +0.019 A 
ATOM     16  C   UNL     1       5.022  -2.794  -3.828  0.00  0.00    +0.014 A 
ATOM     17  C   UNL     1       5.686  -2.799  -5.034  0.00  0.00    +0.039 A 
ATOM     18  C   UNL     1       7.073  -2.820  -5.066  0.00  0.00    +0.123 A 
ATOM     19  C   UNL     1       7.800  -2.835  -3.885  0.00  0.00    +0.039 A 
ATOM     20  C   UNL     1       7.149  -2.824  -2.672  0.00  0.00    +0.014 A 
ATOM     21  F   UNL     1       7.718  -2.825  -6.253  0.00  0.00    -0.205 F 
ENDBRANCH  13  15
ENDBRANCH   1  13
BRANCH   1  22
ATOM     22  C   UNL     1       3.036  -4.169  -1.291  0.00  0.00    +0.078 C 
ATOM     23  N   UNL     1       2.646  -5.236  -1.282  0.00  0.00    -0.196 NA
ENDBRANCH   1  22
TORSDOF 4
