REMARK  Name = ZINC39636141
REMARK  6 active torsions:
REMARK  status: ('A' for Active; 'I' for Inactive)
REMARK    1  A    between atoms: C_1  and  C_2
REMARK    2  A    between atoms: C_3  and  C_8
REMARK    3  A    between atoms: C_4  and  C_7
REMARK    4  A    between atoms: C_12  and  C_21
REMARK    5  A    between atoms: N_23  and  C_24
REMARK    6  A    between atoms: C_30  and  C_32
REMARK                            x       y       z     vdW  Elec       q    Type
REMARK                         _______ _______ _______ _____ _____    ______ ____
ROOT
ATOM      1  C   UNL     1      -0.189  -0.388  -2.635  0.00  0.00    +0.252 C 
ATOM      2  O   UNL     1       0.787  -0.267  -3.349  0.00  0.00    -0.270 OA
ATOM      3  N   UNL     1      -1.418  -0.121  -3.121  0.00  0.00    -0.296 N 
ATOM      4  C   UNL     1      -2.702  -0.101  -2.382  0.00  0.00    +0.121 C 
ATOM      5  C   UNL     1      -3.473   1.101  -2.972  0.00  0.00    +0.100 C 
ATOM      6  C   UNL     1      -2.870   1.306  -4.372  0.00  0.00    -0.004 C 
ATOM      7  C   UNL     1      -1.788   0.226  -4.514  0.00  0.00    +0.115 C 
ATOM      8  C   UNL     1      -2.241   2.692  -4.479  0.00  0.00    -0.010 C 
ATOM      9  C   UNL     1      -1.700   2.893  -5.897  0.00  0.00    -0.082 C 
ATOM     10  N   UNL     1      -2.794   2.754  -6.865  0.00  0.00    +0.379 N 
ATOM     11  C   UNL     1      -3.332   1.389  -6.820  0.00  0.00    -0.082 C 
ATOM     12  C   UNL     1      -3.943   1.124  -5.441  0.00  0.00    -0.010 C 
ATOM     13  H   UNL     1      -3.526   3.410  -6.640  0.00  0.00    -0.086 HD
ATOM     14  H   UNL     1      -2.447   2.946  -7.793  0.00  0.00    -0.086 HD
ENDROOT
BRANCH   1  17
ATOM     15  C   UNL     1       0.537   1.508  -0.113  0.00  0.00    +0.070 C 
ATOM     16  C   UNL     1       0.298   0.020  -0.088  0.00  0.00    +0.093 A 
ATOM     17  C   UNL     1      -0.030  -0.827  -1.236  0.00  0.00    +0.101 A 
ATOM     18  C   UNL     1      -0.159  -2.101  -0.763  0.00  0.00    +0.147 A 
ATOM     19  O   UNL     1       0.062  -2.078   0.554  0.00  0.00    -0.359 OA
ATOM     20  N   UNL     1       0.349  -0.753   0.956  0.00  0.00    -0.083 NA
ATOM     21  C   UNL     1      -0.493  -3.320  -1.583  0.00  0.00    +0.090 C 
ENDBRANCH   1  17
BRANCH   5  22
ATOM     22  C   UNL     1      -3.261   2.328  -2.122  0.00  0.00    +0.218 C 
ATOM     23  O   UNL     1      -2.260   2.430  -1.444  0.00  0.00    -0.275 OA
ATOM     24  N   UNL     1      -4.182   3.312  -2.116  0.00  0.00    -0.312 N 
ATOM     25  H   UNL     1      -5.014   3.200  -2.603  0.00  0.00    +0.149 HD
BRANCH  24  26
ATOM     26  C   UNL     1      -3.927   4.550  -1.376  0.00  0.00    +0.076 C 
ATOM     27  C   UNL     1      -3.199   5.545  -2.281  0.00  0.00    +0.022 C 
ATOM     28  C   UNL     1      -2.933   6.838  -1.508  0.00  0.00    +0.002 C 
ATOM     29  C   UNL     1      -4.263   7.442  -1.051  0.00  0.00    +0.000 C 
ATOM     30  C   UNL     1      -4.991   6.447  -0.146  0.00  0.00    +0.005 C 
ATOM     31  C   UNL     1      -5.257   5.154  -0.919  0.00  0.00    +0.006 C 
ATOM     32  C   UNL     1      -5.985   4.158  -0.014  0.00  0.00    +0.009 C 
ENDBRANCH  24  26
ENDBRANCH   5  22
TORSDOF 3
