REMARK  Name = ZINC67382412
REMARK  11 active torsions:
REMARK  status: ('A' for Active; 'I' for Inactive)
REMARK    1  A    between atoms: C_1  and  C_2
REMARK    2  A    between atoms: C_6  and  C_7
REMARK    3  A    between atoms: N_9  and  N_10
REMARK    4  A    between atoms: N_13  and  C_14
REMARK    5  A    between atoms: C_14  and  C_15
REMARK    6  A    between atoms: C_15  and  C_17
REMARK    7  A    between atoms: C_15  and  N_25
REMARK    8  A    between atoms: C_22  and  O_23
REMARK    9  A    between atoms: O_23  and  C_24
REMARK   10  A    between atoms: N_25  and  C_26
REMARK   11  A    between atoms: N_25  and  C_27
REMARK                            x       y       z     vdW  Elec       q    Type
REMARK                         _______ _______ _______ _____ _____    ______ ____
ROOT
ATOM      1  N   UNL     1      -2.288  -1.589   7.769  0.00  0.00    -0.218 N 
ATOM      2  C   UNL     1      -1.096  -2.072   7.363  0.00  0.00    +0.316 C 
ATOM      3  O   UNL     1      -0.120  -1.347   7.348  0.00  0.00    -0.251 OA
ATOM      4  N   UNL     1      -0.987  -3.358   6.975  0.00  0.00    -0.299 N 
ATOM      5  H   UNL     1      -2.366  -0.664   8.048  0.00  0.00    +0.174 HD
ATOM      6  H   UNL     1      -1.765  -3.936   6.987  0.00  0.00    +0.150 HD
ENDROOT
BRANCH   1   9
ATOM      7  C   UNL     1      -4.604  -1.942   8.192  0.00  0.00    +0.267 C 
ATOM      8  O   UNL     1      -4.703  -0.781   8.542  0.00  0.00    -0.268 OA
ATOM      9  N   UNL     1      -3.412  -2.425   7.786  0.00  0.00    -0.229 N 
ATOM     10  H   UNL     1      -3.333  -3.350   7.507  0.00  0.00    +0.173 HD
BRANCH   7  16
ATOM     11  C   UNL     1      -7.487  -1.152   9.066  0.00  0.00    +0.045 C 
ATOM     12  C   UNL     1      -7.082  -2.522   8.587  0.00  0.00    -0.031 A 
ATOM     13  C   UNL     1      -7.980  -3.558   8.491  0.00  0.00    +0.011 A 
ATOM     14  C   UNL     1      -7.548  -4.766   8.052  0.00  0.00    +0.046 A 
ATOM     15  S   UNL     1      -5.910  -4.535   7.755  0.00  0.00    -0.092 S 
ATOM     16  C   UNL     1      -5.780  -2.817   8.210  0.00  0.00    +0.078 A 
ENDBRANCH   7  16
ENDBRANCH   1   9
BRANCH   4  17
ATOM     17  C   UNL     1       0.308  -3.882   6.535  0.00  0.00    +0.095 C 
BRANCH  17  18
ATOM     18  C   UNL     1       0.187  -5.384   6.268  0.00  0.00    -0.017 C 
BRANCH  18  19
ATOM     19  C   UNL     1      -0.119  -6.100   7.558  0.00  0.00    -0.018 A 
ATOM     20  C   UNL     1      -1.414  -6.486   7.845  0.00  0.00    +0.005 A 
ATOM     21  C   UNL     1      -1.695  -7.143   9.028  0.00  0.00    +0.000 A 
ATOM     22  C   UNL     1      -0.681  -7.416   9.928  0.00  0.00    +0.004 A 
ATOM     23  C   UNL     1       0.616  -7.033   9.645  0.00  0.00    +0.046 A 
ATOM     24  C   UNL     1       0.901  -6.378   8.456  0.00  0.00    +0.122 A 
BRANCH  24  25
ATOM     25  O   UNL     1       2.177  -6.005   8.173  0.00  0.00    -0.495 OA
ATOM     26  C   UNL     1       3.176  -6.324   9.144  0.00  0.00    +0.277 C 
ENDBRANCH  24  25
ENDBRANCH  18  19
BRANCH  18  27
ATOM     27  N   UNL     1      -0.897  -5.624   5.306  0.00  0.00    +0.382 N 
ATOM     28  C   UNL     1      -0.666  -4.821   4.097  0.00  0.00    -0.096 C 
ATOM     29  C   UNL     1      -0.929  -7.048   4.949  0.00  0.00    -0.096 C 
ATOM     30  H   UNL     1      -1.779  -5.361   5.720  0.00  0.00    -0.082 HD
ENDBRANCH  18  27
ENDBRANCH  17  18
ENDBRANCH   4  17
TORSDOF 7
