REMARK  Name = ZINC00622974
REMARK  9 active torsions:
REMARK  status: ('A' for Active; 'I' for Inactive)
REMARK    1  A    between atoms: C_1  and  C_2
REMARK    2  A    between atoms: C_2  and  C_3
REMARK    3  A    between atoms: C_3  and  C_4
REMARK    4  A    between atoms: C_11  and  N_32
REMARK    5  A    between atoms: C_12  and  C_30
REMARK    6  A    between atoms: C_13  and  C_15
REMARK    7  A    between atoms: C_18  and  O_21
REMARK    8  A    between atoms: O_21  and  C_22
REMARK    9  A    between atoms: C_22  and  C_23
REMARK                            x       y       z     vdW  Elec       q    Type
REMARK                         _______ _______ _______ _____ _____    ______ ____
ROOT
ATOM      1  C   UNL     1      -0.776   3.032   0.026  0.00  0.00    +0.071 A 
ATOM      2  C   UNL     1       0.612   3.062   0.013  0.00  0.00    +0.049 A 
ATOM      3  C   UNL     1       1.063   1.771   0.001  0.00  0.00    +0.222 A 
ATOM      4  N   UNL     1      -0.011   0.966   0.007  0.00  0.00    -0.246 N 
ATOM      5  H   UNL     1       0.003  -0.034   0.006  0.00  0.00    +0.192 HD
ATOM      6  N   UNL     1      -1.157   1.777   0.017  0.00  0.00    -0.176 NA
ATOM      7  O   UNL     1       2.382   1.457  -0.015  0.00  0.00    -0.423 OA
ATOM      8  C   UNL     1       3.256   2.444  -0.297  0.00  0.00    +0.200 C 
ATOM      9  C   UNL     1       2.932   3.756  -0.303  0.00  0.00    +0.098 C 
ATOM     10  C   UNL     1       1.542   4.248   0.013  0.00  0.00    +0.101 C 
ENDROOT
BRANCH  10  11
ATOM     11  C   UNL     1       1.530   4.904   1.370  0.00  0.00    -0.034 A 
ATOM     12  C   UNL     1       1.907   4.183   2.488  0.00  0.00    +0.008 A 
ATOM     13  C   UNL     1       1.902   4.783   3.732  0.00  0.00    +0.046 A 
ATOM     14  C   UNL     1       1.509   6.107   3.861  0.00  0.00    +0.121 A 
ATOM     15  C   UNL     1       1.126   6.827   2.738  0.00  0.00    +0.046 A 
ATOM     16  C   UNL     1       1.138   6.223   1.495  0.00  0.00    +0.008 A 
BRANCH  14  17
ATOM     17  O   UNL     1       1.499   6.698   5.084  0.00  0.00    -0.487 OA
BRANCH  17  18
ATOM     18  C   UNL     1       1.905   5.897   6.195  0.00  0.00    +0.264 C 
BRANCH  18  19
ATOM     19  C   UNL     1       1.831   6.715   7.459  0.00  0.00    -0.009 A 
ATOM     20  C   UNL     1       0.663   6.739   8.199  0.00  0.00    +0.007 A 
ATOM     21  C   UNL     1       0.594   7.489   9.358  0.00  0.00    +0.002 A 
ATOM     22  C   UNL     1       1.692   8.216   9.777  0.00  0.00    +0.020 A 
ATOM     23  C   UNL     1       2.860   8.193   9.038  0.00  0.00    +0.041 A 
ATOM     24  C   UNL     1       2.931   7.438   7.880  0.00  0.00    +0.027 A 
ATOM     25 CL   UNL     1       4.240   9.105   9.565  0.00  0.00    -0.084 Cl
ENDBRANCH  18  19
ENDBRANCH  17  18
ENDBRANCH  14  17
ENDBRANCH  10  11
BRANCH   8  26
ATOM     26  N   UNL     1       4.551   2.097  -0.593  0.00  0.00    -0.328 N 
ATOM     27  H   UNL     1       5.203   2.785  -0.799  0.00  0.00    +0.145 HD
ATOM     28  H   UNL     1       4.814   1.163  -0.597  0.00  0.00    +0.145 HD
ENDBRANCH   8  26
BRANCH   9  29
ATOM     29  C   UNL     1       3.947   4.715  -0.622  0.00  0.00    +0.101 C 
ATOM     30  N   UNL     1       4.752   5.476  -0.875  0.00  0.00    -0.191 NA
ENDBRANCH   9  29
BRANCH   1  31
ATOM     31  C   UNL     1      -1.686   4.233   0.041  0.00  0.00    +0.057 C 
BRANCH  31  33
ATOM     32  C   UNL     1      -2.931   5.867  -1.382  0.00  0.00    +0.004 C 
ATOM     33  C   UNL     1      -2.007   4.648  -1.397  0.00  0.00    +0.003 C 
ENDBRANCH  31  33
ENDBRANCH   1  31
TORSDOF 8
