REMARK  Name = ZINC13474047
REMARK  11 active torsions:
REMARK  status: ('A' for Active; 'I' for Inactive)
REMARK    1  A    between atoms: C_1  and  C_2
REMARK    2  A    between atoms: C_4  and  O_21
REMARK    3  A    between atoms: C_6  and  O_9
REMARK    4  A    between atoms: O_9  and  C_10
REMARK    5  A    between atoms: C_12  and  N_18
REMARK    6  A    between atoms: C_15  and  O_16
REMARK    7  A    between atoms: O_16  and  C_17
REMARK    8  A    between atoms: N_18  and  C_19
REMARK    9  A    between atoms: N_18  and  C_20
REMARK   10  A    between atoms: O_21  and  C_22
REMARK   11  A    between atoms: C_26  and  C_28
REMARK                            x       y       z     vdW  Elec       q    Type
REMARK                         _______ _______ _______ _____ _____    ______ ____
ROOT
ATOM      1  C   UNL     1      -8.905   1.881   6.757  0.00  0.00    +0.050 C 
ATOM      2  C   UNL     1      -7.453   1.482   6.725  0.00  0.00    +0.030 A 
ATOM      3  C   UNL     1      -6.585   1.881   7.731  0.00  0.00    +0.191 A 
ATOM      4  C   UNL     1      -5.252   1.494   7.670  0.00  0.00    +0.260 A 
ATOM      5  N   UNL     1      -4.809   0.750   6.669  0.00  0.00    -0.172 NA
ATOM      6  C   UNL     1      -5.608   0.357   5.690  0.00  0.00    +0.260 A 
ATOM      7  C   UNL     1      -6.953   0.707   5.688  0.00  0.00    +0.191 A 
ATOM      8  F   UNL     1      -7.764   0.298   4.688  0.00  0.00    -0.200 F 
ATOM      9  F   UNL     1      -7.031   2.636   8.759  0.00  0.00    -0.200 F 
ENDROOT
BRANCH   6  10
ATOM     10  O   UNL     1      -5.110  -0.401   4.680  0.00  0.00    -0.432 OA
BRANCH  10  11
ATOM     11  C   UNL     1      -3.838  -0.865   4.798  0.00  0.00    +0.174 A 
ATOM     12  C   UNL     1      -3.289  -1.073   6.054  0.00  0.00    +0.073 A 
ATOM     13  C   UNL     1      -1.990  -1.547   6.172  0.00  0.00    +0.033 A 
ATOM     14  C   UNL     1      -1.242  -1.813   5.032  0.00  0.00    +0.027 A 
ATOM     15  C   UNL     1      -1.791  -1.611   3.780  0.00  0.00    +0.051 A 
ATOM     16  C   UNL     1      -3.086  -1.133   3.659  0.00  0.00    +0.162 A 
BRANCH  13  17
ATOM     17  N   UNL     1      -1.434  -1.757   7.438  0.00  0.00    -0.336 N 
ATOM     18  C   UNL     1      -2.170  -1.349   8.638  0.00  0.00    +0.129 C 
ATOM     19  C   UNL     1      -0.117  -2.385   7.566  0.00  0.00    +0.129 C 
ENDBRANCH  13  17
BRANCH  16  20
ATOM     20  O   UNL     1      -3.623  -0.931   2.425  0.00  0.00    -0.491 OA
ATOM     21  C   UNL     1      -2.794  -1.226   1.300  0.00  0.00    +0.277 C 
ENDBRANCH  16  20
ENDBRANCH  10  11
ENDBRANCH   6  10
BRANCH   4  22
ATOM     22  O   UNL     1      -4.396   1.880   8.650  0.00  0.00    -0.436 OA
BRANCH  22  23
ATOM     23  C   UNL     1      -3.070   1.640   8.470  0.00  0.00    +0.131 A 
ATOM     24  C   UNL     1      -2.516   1.725   7.199  0.00  0.00    +0.046 A 
ATOM     25  C   UNL     1      -1.168   1.482   7.011  0.00  0.00    +0.004 A 
ATOM     26  C   UNL     1      -0.365   1.153   8.084  0.00  0.00    +0.011 A 
ATOM     27  C   UNL     1      -0.913   1.065   9.364  0.00  0.00    +0.016 A 
ATOM     28  C   UNL     1      -2.271   1.316   9.554  0.00  0.00    +0.057 A 
BRANCH  27  29
ATOM     29  C   UNL     1      -0.054   0.713  10.517  0.00  0.00    +0.094 C 
ATOM     30  N   UNL     1       1.289   0.471  10.328  0.00  0.00    -0.345 N 
ATOM     31  H   UNL     1      -0.087   0.407  12.530  0.00  0.00    +0.157 HD
ATOM     32  H   UNL     1       1.672   0.531   9.438  0.00  0.00    +0.144 HD
ATOM     33  H   UNL     1       1.851   0.240  11.083  0.00  0.00    +0.144 HD
ATOM     34  N   UNL     1      -0.637   0.646  11.704  0.00  0.00    -0.387 N 
ATOM     35  H   UNL     1      -1.642   0.836  11.794  0.00  0.00    +0.157 HD
ENDBRANCH  27  29
ENDBRANCH  22  23
ENDBRANCH   4  22
TORSDOF 7
