REMARK  Name = ZINC12371321
REMARK  15 active torsions:
REMARK  status: ('A' for Active; 'I' for Inactive)
REMARK    1  A    between atoms: C_1  and  O_2
REMARK    2  A    between atoms: O_2  and  C_3
REMARK    3  A    between atoms: C_6  and  C_11
REMARK    4  A    between atoms: C_8  and  O_9
REMARK    5  A    between atoms: O_9  and  C_10
REMARK    6  A    between atoms: C_11  and  C_12
REMARK    7  A    between atoms: C_12  and  N_62
REMARK    8  A    between atoms: C_13  and  C_14
REMARK    9  A    between atoms: C_13  and  N_62
REMARK   10  A    between atoms: C_17  and  C_20
REMARK   11  A    between atoms: C_20  and  C_21
REMARK   12  A    between atoms: C_25  and  O_29
REMARK   13  A    between atoms: C_26  and  O_27
REMARK   14  A    between atoms: O_27  and  C_28
REMARK   15  A    between atoms: O_29  and  C_30
REMARK                            x       y       z     vdW  Elec       q    Type
REMARK                         _______ _______ _______ _____ _____    ______ ____
ROOT
ATOM      1  C   UNL     1       6.069  -4.774   2.694  0.00  0.00    +0.044 C 
ATOM      2  N   UNL     1       6.686  -5.118   1.631  0.00  0.00    -0.096 NA
ATOM      3  O   UNL     1       7.903  -5.790   1.888  0.00  0.00    -0.390 OA
ATOM      4  C   UNL     1       7.871  -6.238   3.259  0.00  0.00    +0.214 C 
ATOM      5  C   UNL     1       6.885  -5.223   3.891  0.00  0.00    +0.099 C 
ENDROOT
BRANCH   1   6
ATOM      6  C   UNL     1       4.755  -4.038   2.750  0.00  0.00    -0.027 C 
BRANCH   6   7
ATOM      7  N   UNL     1       4.288  -3.777   1.376  0.00  0.00    +0.383 N 
ATOM      8  H   UNL     1       4.986  -3.207   0.884  0.00  0.00    -0.085 HD
ATOM      9  H   UNL     1       4.167  -4.670   0.883  0.00  0.00    -0.085 HD
BRANCH   7  10
ATOM     10  C   UNL     1       3.001  -3.057   1.400  0.00  0.00    -0.077 C 
BRANCH  10  11
ATOM     11  C   UNL     1       2.543  -2.800  -0.037  0.00  0.00    +0.016 C 
BRANCH  11  15
ATOM     12  C   UNL     1      -1.192  -0.718   0.015  0.00  0.00    +0.161 A 
ATOM     13  C   UNL     1      -1.168  -2.103   0.002  0.00  0.00    +0.049 A 
ATOM     14  C   UNL     1       0.041  -2.773  -0.013  0.00  0.00    +0.007 A 
ATOM     15  C   UNL     1       1.227  -2.064  -0.021  0.00  0.00    -0.045 A 
ATOM     16  C   UNL     1       1.210  -0.682  -0.013  0.00  0.00    +0.053 A 
ATOM     17  C   UNL     1       0.002  -0.004   0.002  0.00  0.00    +0.162 A 
BRANCH  12  19
ATOM     18  C   UNL     1      -3.567  -0.855   0.049  0.00  0.00    +0.277 C 
ATOM     19  O   UNL     1      -2.381  -0.057   0.036  0.00  0.00    -0.491 OA
ENDBRANCH  12  19
BRANCH  17  20
ATOM     20  O   UNL     1      -0.016   1.356   0.009  0.00  0.00    -0.491 OA
ATOM     21  C   UNL     1       1.248   2.022   0.001  0.00  0.00    +0.277 C 
ENDBRANCH  17  20
ENDBRANCH  11  15
ENDBRANCH  10  11
ENDBRANCH   7  10
ENDBRANCH   6   7
ENDBRANCH   1   6
BRANCH   4  22
ATOM     22  C   UNL     1       9.254  -6.129   3.905  0.00  0.00    +0.086 C 
BRANCH  22  23
ATOM     23  C   UNL     1      10.196  -7.100   3.242  0.00  0.00    +0.005 A 
ATOM     24  C   UNL     1      10.400  -8.351   3.795  0.00  0.00    +0.057 A 
ATOM     25  C   UNL     1      11.265  -9.248   3.190  0.00  0.00    +0.170 A 
ATOM     26  C   UNL     1      11.930  -8.890   2.021  0.00  0.00    +0.211 A 
ATOM     27  C   UNL     1      11.724  -7.635   1.465  0.00  0.00    +0.208 A 
ATOM     28  C   UNL     1      10.852  -6.741   2.075  0.00  0.00    +0.169 A 
ATOM     29  O   UNL     1      12.716  -9.936   1.627  0.00  0.00    -0.449 OA
ATOM     30  C   UNL     1      12.213 -11.083   2.338  0.00  0.00    +0.467 C 
ATOM     31  O   UNL     1      11.633 -10.519   3.530  0.00  0.00    -0.452 OA
BRANCH  28  32
ATOM     32  O   UNL     1      10.645  -5.512   1.529  0.00  0.00    -0.491 OA
ATOM     33  C   UNL     1      11.511  -4.458   1.956  0.00  0.00    +0.277 C 
ENDBRANCH  28  32
BRANCH  27  34
ATOM     34  O   UNL     1      12.374  -7.281   0.323  0.00  0.00    -0.488 OA
ATOM     35  C   UNL     1      11.720  -7.577  -0.913  0.00  0.00    +0.277 C 
ENDBRANCH  27  34
ENDBRANCH  22  23
ENDBRANCH   4  22
TORSDOF 11
