REMARK  Name = ZINC20907691
REMARK  10 active torsions:
REMARK  status: ('A' for Active; 'I' for Inactive)
REMARK    1  A    between atoms: C_1  and  C_2
REMARK    2  A    between atoms: C_2  and  C_3
REMARK    3  A    between atoms: C_6  and  C_8
REMARK    4  A    between atoms: C_8  and  N_9
REMARK    5  A    between atoms: C_15  and  C_17
REMARK    6  A    between atoms: C_17  and  S_18
REMARK    7  A    between atoms: S_18  and  C_19
REMARK    8  A    between atoms: N_24  and  N_25
REMARK    9  A    between atoms: C_26  and  C_27
REMARK   10  A    between atoms: C_36  and  O_37
REMARK                            x       y       z     vdW  Elec       q    Type
REMARK                         _______ _______ _______ _____ _____    ______ ____
ROOT
ATOM      1  C   UNL     1      -3.234  11.553   0.094  0.00  0.00    +0.211 A 
ATOM      2  N   UNL     1      -3.664  10.256   0.091  0.00  0.00    -0.186 NA
ATOM      3  C   UNL     1      -2.563   9.445   0.076  0.00  0.00    +0.232 A 
ATOM      4  N   UNL     1      -1.498  10.209   0.076  0.00  0.00    -0.245 N 
ATOM      5  N   UNL     1      -1.922  11.544   0.083  0.00  0.00    -0.144 NA
ATOM      6  N   UNL     1      -2.573   8.059   0.069  0.00  0.00    -0.205 N 
ATOM      7  H   UNL     1      -3.529   7.515   0.075  0.00  0.00    +0.177 HD
ATOM      8  H   UNL     1      -0.496   9.755   0.071  0.00  0.00    +0.192 HD
ENDROOT
BRANCH   6   9
ATOM      9  N   UNL     1      -1.364   7.350   0.054  0.00  0.00    -0.187 NA
ATOM     10  C   UNL     1      -1.373   6.050   0.047  0.00  0.00    +0.142 C 
BRANCH  10  11
ATOM     11  C   UNL     1      -0.105   5.307   0.032  0.00  0.00    +0.044 A 
ATOM     12  C   UNL     1      -0.096   3.845   0.024  0.00  0.00    -0.006 A 
ATOM     13  C   UNL     1      -1.286   3.107   0.031  0.00  0.00    +0.009 A 
ATOM     14  C   UNL     1      -1.234   1.745   0.017  0.00  0.00    +0.001 A 
ATOM     15  C   UNL     1      -0.013   1.076   0.008  0.00  0.00    +0.001 A 
ATOM     16  C   UNL     1       1.163   1.762   0.000  0.00  0.00    +0.008 A 
ATOM     17  C   UNL     1       1.148   3.168   0.008  0.00  0.00    -0.017 A 
ATOM     18  C   UNL     1       2.341   3.910   0.000  0.00  0.00    +0.012 A 
ATOM     19  C   UNL     1       2.315   5.270   0.008  0.00  0.00    +0.046 A 
ATOM     20  C   UNL     1       1.116   5.981   0.023  0.00  0.00    +0.126 A 
BRANCH  20  21
ATOM     21  O   UNL     1       1.137   7.339   0.031  0.00  0.00    -0.506 OA
ATOM     22  H   UNL     1       2.098   7.874   0.025  0.00  0.00    +0.292 HD
ENDBRANCH  20  21
ENDBRANCH  10  11
ENDBRANCH   6   9
BRANCH   1  23
ATOM     23  S   UNL     1      -4.260  12.985   0.111  0.00  0.00    -0.075 S 
BRANCH  23  24
ATOM     24  C   UNL     1      -3.085  14.367   0.109  0.00  0.00    +0.173 C 
BRANCH  24  31
ATOM     25  N   UNL     1      -1.884  19.103  -0.867  0.00  0.00    -0.291 NA
ATOM     26  C   UNL     1      -3.344  18.998  -0.994  0.00  0.00    +0.104 C 
ATOM     27  C   UNL     1      -3.891  18.122   0.138  0.00  0.00    +0.123 C 
ATOM     28  N   UNL     1      -3.171  16.839   0.124  0.00  0.00    -0.298 N 
ATOM     29  C   UNL     1      -1.701  16.866   0.118  0.00  0.00    +0.123 C 
ATOM     30  C   UNL     1      -1.240  17.791  -1.019  0.00  0.00    +0.104 C 
ATOM     31  C   UNL     1      -3.842  15.670   0.123  0.00  0.00    +0.226 C 
ATOM     32  O   UNL     1      -5.055  15.666   0.133  0.00  0.00    -0.275 OA
BRANCH  25  33
ATOM     33  C   UNL     1      -1.340  20.072  -1.828  0.00  0.00    +0.182 C 
BRANCH  33  37
ATOM     34  C   UNL     1       2.250  20.275  -1.407  0.00  0.00    +0.217 A 
ATOM     35  N   UNL     1       2.128  19.382  -2.348  0.00  0.00    -0.112 NA
ATOM     36  N   UNL     1       0.880  19.203  -2.607  0.00  0.00    -0.111 NA
ATOM     37  C   UNL     1       0.164  19.975  -1.841  0.00  0.00    +0.231 A 
ATOM     38  O   UNL     1       1.012  20.675  -1.069  0.00  0.00    -0.423 OA
BRANCH  34  40
ATOM     39  C   UNL     1       4.037  21.983  -1.607  0.00  0.00    +0.013 C 
ATOM     40  C   UNL     1       3.542  20.773  -0.812  0.00  0.00    +0.094 C 
ENDBRANCH  34  40
ENDBRANCH  33  37
ENDBRANCH  25  33
ENDBRANCH  24  31
ENDBRANCH  23  24
ENDBRANCH   1  23
TORSDOF 9
