REMARK  Name = ZINC43875976
REMARK  6 active torsions:
REMARK  status: ('A' for Active; 'I' for Inactive)
REMARK    1  A    between atoms: C_1  and  C_2
REMARK    2  A    between atoms: C_2  and  C_4
REMARK    3  A    between atoms: C_2  and  N_13
REMARK    4  A    between atoms: N_16  and  N_17
REMARK    5  A    between atoms: N_17  and  C_18
REMARK    6  A    between atoms: C_18  and  C_25
REMARK                            x       y       z     vdW  Elec       q    Type
REMARK                         _______ _______ _______ _____ _____    ______ ____
ROOT
ATOM      1  N   UNL     1       0.711  -0.489   1.189  0.00  0.00    -0.289 N 
ATOM      2  C   UNL     1       0.051  -0.633   2.355  0.00  0.00    +0.314 C 
ATOM      3  O   UNL     1      -1.132  -0.361   2.423  0.00  0.00    -0.252 OA
ATOM      4  N   UNL     1       0.703  -1.080   3.447  0.00  0.00    -0.234 N 
ATOM      5  H   UNL     1       1.654  -0.707   1.135  0.00  0.00    +0.151 HD
ATOM      6  H   UNL     1       0.229  -1.184   4.287  0.00  0.00    +0.171 HD
ENDROOT
BRANCH   1   8
ATOM      7  C   UNL     1      -0.019   1.526   0.010  0.00  0.00    +0.036 C 
ATOM      8  C   UNL     1       0.002  -0.004   0.002  0.00  0.00    +0.137 C 
BRANCH   8   9
ATOM      9  C   UNL     1       0.707  -0.490  -1.238  0.00  0.00    +0.126 A 
ATOM     10  C   UNL     1       0.096  -0.923  -2.349  0.00  0.00    +0.055 A 
ATOM     11  C   UNL     1       1.163  -1.291  -3.287  0.00  0.00    +0.020 A 
ATOM     12  C   UNL     1       1.188  -1.799  -4.585  0.00  0.00    +0.011 A 
ATOM     13  C   UNL     1       2.387  -2.040  -5.196  0.00  0.00    +0.001 A 
ATOM     14  C   UNL     1       3.578  -1.783  -4.531  0.00  0.00    +0.004 A 
ATOM     15  C   UNL     1       3.573  -1.281  -3.248  0.00  0.00    +0.047 A 
ATOM     16  C   UNL     1       2.365  -1.028  -2.609  0.00  0.00    +0.135 A 
ATOM     17  O   UNL     1       2.042  -0.547  -1.392  0.00  0.00    -0.458 OA
ENDBRANCH   8   9
ENDBRANCH   1   8
BRANCH   4  18
ATOM     18  N   UNL     1       2.032  -1.386   3.372  0.00  0.00    -0.232 NA
ATOM     19  H   UNL     1       2.566  -0.599   3.035  0.00  0.00    +0.145 HD
BRANCH  18  20
ATOM     20  C   UNL     1       2.540  -1.851   4.669  0.00  0.00    +0.054 C 
ATOM     21  C   UNL     1       2.251  -0.781   5.720  0.00  0.00    +0.047 C 
ATOM     22  C   UNL     1       3.308  -0.844   6.858  0.00  0.00    +0.168 C 
ATOM     23  S   UNL     1       4.821  -1.178   5.854  0.00  0.00    -0.029 S 
ATOM     24  O   UNL     1       5.295   0.042   5.302  0.00  0.00    -0.174 OA
ATOM     25  O   UNL     1       5.706  -2.001   6.603  0.00  0.00    -0.174 OA
ATOM     26  C   UNL     1       4.038  -2.181   4.524  0.00  0.00    +0.189 C 
ATOM     27  C   UNL     1       1.792  -3.129   5.057  0.00  0.00    +0.031 C 
ENDBRANCH  18  20
ENDBRANCH   4  18
TORSDOF 4
