REMARK  Name = ZINC44807448
REMARK  9 active torsions:
REMARK  status: ('A' for Active; 'I' for Inactive)
REMARK    1  A    between atoms: C_1  and  C_2
REMARK    2  A    between atoms: C_2  and  C_4
REMARK    3  A    between atoms: C_2  and  N_13
REMARK    4  A    between atoms: N_9  and  C_10
REMARK    5  A    between atoms: C_10  and  C_11
REMARK    6  A    between atoms: C_10  and  C_12
REMARK    7  A    between atoms: N_13  and  C_14
REMARK    8  A    between atoms: C_17  and  O_20
REMARK    9  A    between atoms: O_20  and  C_21
REMARK                            x       y       z     vdW  Elec       q    Type
REMARK                         _______ _______ _______ _____ _____    ______ ____
ROOT
ATOM      1  N   UNL     1      -1.404  -0.443   0.022  0.00  0.00    -0.333 N 
ATOM      2  H   UNL     1      -1.761  -0.821   0.841  0.00  0.00    +0.147 HD
ENDROOT
BRANCH   1   3
ATOM      3  C   UNL     1      -2.100  -0.597  -1.181  0.00  0.00    +0.028 A 
ATOM      4  C   UNL     1      -1.587  -0.060  -2.355  0.00  0.00    +0.026 A 
ATOM      5  C   UNL     1      -2.275  -0.213  -3.542  0.00  0.00    +0.047 A 
ATOM      6  C   UNL     1      -3.478  -0.902  -3.564  0.00  0.00    +0.121 A 
ATOM      7  C   UNL     1      -3.992  -1.438  -2.392  0.00  0.00    +0.047 A 
ATOM      8  C   UNL     1      -3.303  -1.291  -1.204  0.00  0.00    +0.026 A 
BRANCH   6   9
ATOM      9  O   UNL     1      -4.155  -1.052  -4.734  0.00  0.00    -0.489 OA
BRANCH   9  10
ATOM     10  C   UNL     1      -3.512  -0.582  -5.920  0.00  0.00    +0.173 C 
ATOM     11  C   UNL     1      -3.822   0.914  -6.132  0.00  0.00    +0.044 C 
ATOM     12  C   UNL     1      -3.970   1.058  -7.667  0.00  0.00    +0.004 C 
ATOM     13  C   UNL     1      -4.693  -0.252  -8.065  0.00  0.00    +0.004 C 
ATOM     14  C   UNL     1      -4.066  -1.324  -7.149  0.00  0.00    +0.044 C 
ENDBRANCH   9  10
ENDBRANCH   6   9
ENDBRANCH   1   3
BRANCH   1  16
ATOM     15  C   UNL     1      -0.414   1.788   0.186  0.00  0.00    +0.038 C 
ATOM     16  C   UNL     1      -0.135   0.290   0.046  0.00  0.00    +0.154 C 
BRANCH  16  17
ATOM     17  C   UNL     1       0.693  -0.178   1.215  0.00  0.00    +0.240 C 
ATOM     18  O   UNL     1       0.266  -1.039   1.955  0.00  0.00    -0.273 OA
ATOM     19  N   UNL     1       1.909   0.360   1.438  0.00  0.00    -0.239 N 
ATOM     20  C   UNL     1       2.650  -0.059   2.483  0.00  0.00    +0.306 C 
ATOM     21  O   UNL     1       2.222  -0.921   3.224  0.00  0.00    -0.252 OA
ATOM     22  N   UNL     1       3.865   0.479   2.705  0.00  0.00    -0.297 N 
ATOM     23  H   UNL     1       2.250   1.048   0.846  0.00  0.00    +0.159 HD
ATOM     24  H   UNL     1       4.207   1.167   2.113  0.00  0.00    +0.151 HD
BRANCH  22  25
ATOM     25  C   UNL     1       4.671   0.024   3.841  0.00  0.00    +0.068 C 
ATOM     26  C   UNL     1       5.459  -1.224   3.441  0.00  0.00    +0.027 C 
ATOM     27  C   UNL     1       5.644   1.131   4.253  0.00  0.00    +0.027 C 
ENDBRANCH  22  25
ENDBRANCH  16  17
ENDBRANCH   1  16
TORSDOF 6
