REMARK  Name = ZINC52756808
REMARK  7 active torsions:
REMARK  status: ('A' for Active; 'I' for Inactive)
REMARK    1  A    between atoms: C_1  and  C_2
REMARK    2  A    between atoms: C_3  and  N_20
REMARK    3  A    between atoms: C_4  and  C_8
REMARK    4  A    between atoms: C_14  and  C_16
REMARK    5  A    between atoms: C_16  and  C_17
REMARK    6  A    between atoms: C_17  and  C_18
REMARK    7  A    between atoms: C_18  and  O_19
REMARK                            x       y       z     vdW  Elec       q    Type
REMARK                         _______ _______ _______ _____ _____    ______ ____
ROOT
ATOM      1  C   UNL     1       0.181  -3.408  -1.551  0.00  0.00    +0.269 C 
ATOM      2  O   UNL     1       0.228  -3.452  -2.766  0.00  0.00    -0.268 OA
ATOM      3  N   UNL     1       0.099  -4.548  -0.838  0.00  0.00    -0.293 N 
ATOM      4  C   UNL     1       0.138  -4.647   0.632  0.00  0.00    +0.108 C 
ATOM      5  C   UNL     1       0.627  -6.088   0.920  0.00  0.00    +0.021 C 
ATOM      6  C   UNL     1      -0.072  -6.887  -0.212  0.00  0.00    +0.024 C 
ATOM      7  C   UNL     1      -0.052  -5.900  -1.398  0.00  0.00    +0.077 C 
ENDROOT
BRANCH   1  11
ATOM      8  C   UNL     1       0.375   1.564  -0.560  0.00  0.00    +0.067 C 
ATOM      9  C   UNL     1       0.299   0.063  -0.443  0.00  0.00    +0.054 A 
ATOM     10  C   UNL     1       0.299  -0.828  -1.469  0.00  0.00    +0.078 A 
ATOM     11  C   UNL     1       0.215  -2.106  -0.859  0.00  0.00    +0.168 A 
ATOM     12  N   UNL     1       0.171  -1.910   0.445  0.00  0.00    -0.167 NA
ATOM     13  N   UNL     1       0.224  -0.654   0.709  0.00  0.00    -0.279 N 
ATOM     14  H   UNL     1       0.210  -0.273   1.600  0.00  0.00    +0.189 HD
BRANCH  10  15
ATOM     15  N   UNL     1       0.369  -0.545  -2.841  0.00  0.00    -0.355 N 
ATOM     16  H   UNL     1       0.424   0.375  -3.144  0.00  0.00    +0.142 HD
ATOM     17  H   UNL     1       0.361  -1.268  -3.487  0.00  0.00    +0.142 HD
ENDBRANCH  10  15
ENDBRANCH   1  11
BRANCH   7  18
ATOM     18  C   UNL     1      -1.363  -5.996  -2.181  0.00  0.00    +0.025 C 
BRANCH  18  19
ATOM     19  C   UNL     1      -1.446  -7.359  -2.871  0.00  0.00    +0.030 C 
BRANCH  19  20
ATOM     20  C   UNL     1      -2.723  -7.429  -3.710  0.00  0.00    +0.156 C 
BRANCH  20  21
ATOM     21  O   UNL     1      -2.801  -8.702  -4.354  0.00  0.00    -0.395 OA
ATOM     22  H   UNL     1      -3.587  -8.817  -4.905  0.00  0.00    +0.209 HD
ENDBRANCH  20  21
ENDBRANCH  19  20
ENDBRANCH  18  19
ENDBRANCH   7  18
TORSDOF 6
