REMARK  Name = ZINC26372041
REMARK  13 active torsions:
REMARK  status: ('A' for Active; 'I' for Inactive)
REMARK    1  A    between atoms: C_1  and  C_2
REMARK    2  A    between atoms: C_2  and  C_3
REMARK    3  A    between atoms: C_2  and  C_4
REMARK    4  A    between atoms: C_4  and  N_5
REMARK    5  A    between atoms: C_6  and  N_32
REMARK    6  A    between atoms: C_7  and  N_14
REMARK    7  A    between atoms: N_14  and  C_15
REMARK    8  A    between atoms: C_15  and  C_16
REMARK    9  A    between atoms: C_16  and  C_17
REMARK   10  A    between atoms: C_16  and  C_18
REMARK   11  A    between atoms: C_19  and  C_21
REMARK   12  A    between atoms: C_21  and  S_22
REMARK   13  A    between atoms: S_22  and  C_23
REMARK                            x       y       z     vdW  Elec       q    Type
REMARK                         _______ _______ _______ _____ _____    ______ ____
ROOT
ATOM      1  N   UNL     1       6.934   6.646  -0.196  0.00  0.00    -0.263 N 
ATOM      2  C   UNL     1       6.040   5.647  -0.344  0.00  0.00    +0.230 C 
ATOM      3  O   UNL     1       6.388   4.585  -0.817  0.00  0.00    -0.274 OA
ENDROOT
BRANCH   1   6
ATOM      4  N   UNL     1      10.347   5.284  -0.136  0.00  0.00    -0.280 N 
ATOM      5  C   UNL     1       9.023   5.476   0.185  0.00  0.00    +0.127 A 
ATOM      6  C   UNL     1       8.294   6.426  -0.501  0.00  0.00    +0.140 A 
ATOM      7  C   UNL     1       8.929   7.168  -1.514  0.00  0.00    +0.277 A 
ATOM      8  O   UNL     1       8.308   8.010  -2.140  0.00  0.00    -0.266 OA
ATOM      9  N   UNL     1      10.230   6.945  -1.785  0.00  0.00    -0.273 N 
ATOM     10  H   UNL     1      10.736   7.527  -2.570  0.00  0.00    +0.173 HD
ATOM     11  C   UNL     1      10.925   6.015  -1.106  0.00  0.00    +0.331 A 
ATOM     12  O   UNL     1      12.096   5.831  -1.375  0.00  0.00    -0.246 OA
BRANCH   5  13
ATOM     13  N   UNL     1       8.433   4.730   1.177  0.00  0.00    -0.343 N 
ATOM     14  H   UNL     1       7.374   4.888   1.428  0.00  0.00    +0.144 HD
ATOM     15  H   UNL     1       9.020   3.974   1.720  0.00  0.00    +0.144 HD
ENDBRANCH   5  13
BRANCH   4  16
ATOM     16  C   UNL     1      11.132   4.279   0.584  0.00  0.00    +0.131 C 
BRANCH  16  18
ATOM     17  C   UNL     1      11.944   1.916   0.539  0.00  0.00    +0.009 C 
ATOM     18  C   UNL     1      11.026   2.935  -0.140  0.00  0.00    +0.003 C 
ATOM     19  C   UNL     1       9.581   2.437  -0.082  0.00  0.00    +0.009 C 
ENDBRANCH  16  18
ENDBRANCH   4  16
ENDBRANCH   1   6
BRANCH   1  20
ATOM     20  C   UNL     1       6.494   7.959   0.283  0.00  0.00    +0.117 C 
BRANCH  20  21
ATOM     21  C   UNL     1       6.482   7.966   1.813  0.00  0.00    +0.001 C 
ATOM     22  C   UNL     1       7.912   7.815   2.335  0.00  0.00    +0.009 C 
ATOM     23  C   UNL     1       5.894   9.288   2.311  0.00  0.00    +0.009 C 
ENDBRANCH  20  21
ENDBRANCH   1  20
BRANCH   2  24
ATOM     24  C   UNL     1       4.607   5.850   0.078  0.00  0.00    +0.173 C 
BRANCH  24  25
ATOM     25  S   UNL     1       3.661   4.336  -0.246  0.00  0.00    -0.078 S 
BRANCH  25  26
ATOM     26  C   UNL     1       2.030   4.729   0.293  0.00  0.00    +0.174 A 
ATOM     27  N   UNL     1       1.653   5.879   0.805  0.00  0.00    -0.229 NA
ATOM     28  C   UNL     1       0.350   5.838   1.105  0.00  0.00    +0.139 A 
ATOM     29  C   UNL     1      -0.120   4.591   0.764  0.00  0.00    +0.067 A 
ATOM     30  N   UNL     1       0.961   3.891   0.246  0.00  0.00    -0.295 N 
ATOM     31  C   UNL     1       0.797   2.597  -0.187  0.00  0.00    +0.094 A 
ATOM     32  C   UNL     1      -0.407   2.000  -0.113  0.00  0.00    +0.018 A 
ATOM     33  C   UNL     1      -1.522   2.692   0.404  0.00  0.00    +0.003 A 
ATOM     34  C   UNL     1      -1.384   3.969   0.843  0.00  0.00    +0.028 A 
ENDBRANCH  25  26
ENDBRANCH  24  25
ENDBRANCH   2  24
TORSDOF 9
