REMARK  Name = ZINC47884420
REMARK  9 active torsions:
REMARK  status: ('A' for Active; 'I' for Inactive)
REMARK    1  A    between atoms: C_1  and  N_2
REMARK    2  A    between atoms: C_5  and  C_18
REMARK    3  A    between atoms: C_6  and  N_17
REMARK    4  A    between atoms: N_7  and  C_10
REMARK    5  A    between atoms: C_10  and  C_11
REMARK    6  A    between atoms: C_18  and  C_20
REMARK    7  A    between atoms: C_20  and  S_21
REMARK    8  A    between atoms: S_21  and  C_22
REMARK    9  A    between atoms: C_25  and  O_28
REMARK                            x       y       z     vdW  Elec       q    Type
REMARK                         _______ _______ _______ _____ _____    ______ ____
ROOT
ATOM      1  C   UNL     1       0.035   1.442   0.344  0.00  0.00    +0.157 C 
ATOM      2  N   UNL     1       0.028  -0.012   0.165  0.00  0.00    -0.263 N 
ATOM      3  C   UNL     1       0.004  -0.530  -1.080  0.00  0.00    +0.269 A 
ATOM      4  O   UNL     1      -0.011   0.198  -2.055  0.00  0.00    -0.267 OA
ATOM      5  C   UNL     1      -0.003  -1.991  -1.234  0.00  0.00    +0.120 A 
ATOM      6  C   UNL     1       0.016  -2.775  -0.068  0.00  0.00    +0.116 A 
ATOM      7  N   UNL     1       0.039  -2.151   1.147  0.00  0.00    -0.277 N 
ATOM      8  C   UNL     1       0.050  -0.812   1.244  0.00  0.00    +0.333 A 
ATOM      9  O   UNL     1       0.076  -0.305   2.348  0.00  0.00    -0.246 OA
ENDROOT
BRANCH   6  10
ATOM     10  N   UNL     1       0.011  -4.133  -0.148  0.00  0.00    -0.344 N 
ATOM     11  H   UNL     1       0.077  -4.568  -1.012  0.00  0.00    +0.144 HD
ATOM     12  H   UNL     1      -0.059  -4.666   0.660  0.00  0.00    +0.144 HD
ENDBRANCH   6  10
BRANCH   5  13
ATOM     13  C   UNL     1      -0.027  -2.588  -2.513  0.00  0.00    +0.182 C 
ATOM     14  O   UNL     1       0.076  -3.793  -2.622  0.00  0.00    -0.291 OA
BRANCH  13  15
ATOM     15  C   UNL     1      -0.181  -1.730  -3.742  0.00  0.00    +0.154 C 
BRANCH  15  16
ATOM     16  S   UNL     1      -0.177  -2.783  -5.219  0.00  0.00    -0.117 S 
BRANCH  16  17
ATOM     17  C   UNL     1      -0.363  -1.648  -6.553  0.00  0.00    +0.009 A 
ATOM     18  C   UNL     1      -0.465  -0.286  -6.298  0.00  0.00    +0.018 A 
ATOM     19  C   UNL     1      -0.611   0.603  -7.345  0.00  0.00    +0.046 A 
ATOM     20  C   UNL     1      -0.655   0.137  -8.650  0.00  0.00    +0.117 A 
ATOM     21  C   UNL     1      -0.553  -1.222  -8.906  0.00  0.00    +0.046 A 
ATOM     22  C   UNL     1      -0.402  -2.113  -7.862  0.00  0.00    +0.018 A 
BRANCH  20  23
ATOM     23  O   UNL     1      -0.799   1.014  -9.680  0.00  0.00    -0.507 OA
ATOM     24  H   UNL     1       0.037   1.344 -10.035  0.00  0.00    +0.292 HD
ENDBRANCH  20  23
ENDBRANCH  16  17
ENDBRANCH  15  16
ENDBRANCH  13  15
ENDBRANCH   5  13
BRANCH   7  25
ATOM     25  C   UNL     1       0.059  -2.959   2.369  0.00  0.00    +0.163 C 
BRANCH  25  26
ATOM     26  C   UNL     1       1.486  -3.240   2.762  0.00  0.00    -0.028 A 
ATOM     27  C   UNL     1       2.128  -4.364   2.278  0.00  0.00    +0.005 A 
ATOM     28  C   UNL     1       3.438  -4.622   2.639  0.00  0.00    +0.000 A 
ATOM     29  C   UNL     1       4.105  -3.755   3.484  0.00  0.00    +0.000 A 
ATOM     30  C   UNL     1       3.463  -2.630   3.968  0.00  0.00    +0.000 A 
ATOM     31  C   UNL     1       2.155  -2.370   3.603  0.00  0.00    +0.005 A 
ENDBRANCH  25  26
ENDBRANCH   7  25
TORSDOF 8
