REMARK  Name = ZINC64215473
REMARK  9 active torsions:
REMARK  status: ('A' for Active; 'I' for Inactive)
REMARK    1  A    between atoms: C_1  and  C_2
REMARK    2  A    between atoms: C_2  and  C_4
REMARK    3  A    between atoms: C_2  and  N_32
REMARK    4  A    between atoms: N_6  and  C_7
REMARK    5  A    between atoms: C_7  and  C_8
REMARK    6  A    between atoms: C_8  and  C_10
REMARK    7  A    between atoms: C_8  and  C_16
REMARK    8  A    between atoms: C_24  and  C_26
REMARK    9  A    between atoms: C_33  and  C_35
REMARK                            x       y       z     vdW  Elec       q    Type
REMARK                         _______ _______ _______ _____ _____    ______ ____
ROOT
ATOM      1  C   UNL     1       0.177  -0.130  -4.901  0.00  0.00    +0.065 C 
ENDROOT
BRANCH   1   2
ATOM      2  C   UNL     1       0.882  -0.616  -6.141  0.00  0.00    -0.025 C 
ATOM      3  C   UNL     1       2.046  -1.302  -6.198  0.00  0.00    +0.000 A 
ATOM      4  C   UNL     1       2.970  -1.781  -5.162  0.00  0.00    +0.010 A 
ATOM      5  C   UNL     1       4.082  -2.454  -5.536  0.00  0.00    +0.001 A 
ATOM      6  C   UNL     1       4.374  -2.704  -6.884  0.00  0.00    +0.002 A 
ATOM      7  C   UNL     1       3.574  -2.295  -7.891  0.00  0.00    +0.026 A 
ATOM      8  C   UNL     1       2.378  -1.579  -7.614  0.00  0.00    +0.043 A 
ATOM      9  N   UNL     1       1.454  -1.084  -8.401  0.00  0.00    -0.374 N 
ATOM     10  C   UNL     1       0.428  -0.441  -7.572  0.00  0.00    +0.137 C 
ATOM     11  H   UNL     1       1.447  -1.138  -9.370  0.00  0.00    +0.161 HD
BRANCH  10  12
ATOM     12  C   UNL     1       0.333   1.024  -7.912  0.00  0.00    -0.021 A 
ATOM     13  C   UNL     1       1.474   1.733  -8.239  0.00  0.00    +0.006 A 
ATOM     14  C   UNL     1       1.386   3.077  -8.551  0.00  0.00    +0.000 A 
ATOM     15  C   UNL     1       0.158   3.711  -8.536  0.00  0.00    +0.000 A 
ATOM     16  C   UNL     1      -0.983   3.002  -8.211  0.00  0.00    +0.000 A 
ATOM     17  C   UNL     1      -0.896   1.657  -7.903  0.00  0.00    +0.006 A 
ENDBRANCH  10  12
ENDBRANCH   1   2
BRANCH   1  18
ATOM     18  C   UNL     1       0.333   1.365  -4.787  0.00  0.00    -0.039 A 
ATOM     19  C   UNL     1       1.594   1.923  -4.700  0.00  0.00    +0.004 A 
ATOM     20  C   UNL     1       1.737   3.295  -4.596  0.00  0.00    +0.000 A 
ATOM     21  C   UNL     1       0.619   4.107  -4.580  0.00  0.00    +0.000 A 
ATOM     22  C   UNL     1      -0.643   3.548  -4.668  0.00  0.00    +0.000 A 
ATOM     23  C   UNL     1      -0.786   2.178  -4.776  0.00  0.00    +0.004 A 
ENDBRANCH   1  18
BRANCH   1  24
ATOM     24  C   UNL     1       0.788  -0.801  -3.669  0.00  0.00    +0.116 C 
BRANCH  24  27
ATOM     25  C   UNL     1       0.359  -0.934  -1.275  0.00  0.00    +0.233 C 
ATOM     26  O   UNL     1       1.328  -1.655  -1.170  0.00  0.00    -0.274 OA
ATOM     27  N   UNL     1       0.004  -0.453  -2.482  0.00  0.00    -0.313 N 
ATOM     28  H   UNL     1      -0.772   0.124  -2.566  0.00  0.00    +0.149 HD
BRANCH  25  30
ATOM     29  C   UNL     1      -0.440   0.943   0.136  0.00  0.00    +0.038 C 
ATOM     30  C   UNL     1      -0.449  -0.576  -0.054  0.00  0.00    +0.156 C 
BRANCH  30  31
ATOM     31  N   UNL     1       0.137  -1.219   1.125  0.00  0.00    -0.301 N 
ATOM     32  C   UNL     1      -0.630  -1.478   2.202  0.00  0.00    +0.255 C 
ATOM     33  O   UNL     1      -1.806  -1.180   2.196  0.00  0.00    -0.272 OA
ATOM     34  H   UNL     1       1.077  -1.457   1.130  0.00  0.00    +0.150 HD
BRANCH  32  35
ATOM     35  C   UNL     1      -0.028  -2.140   3.415  0.00  0.00    +0.261 C 
ATOM     36  C   UNL     1       0.370  -3.604   3.107  0.00  0.00    +0.084 C 
ATOM     37  C   UNL     1       0.003  -4.302   4.406  0.00  0.00    +0.015 C 
ATOM     38  C   UNL     1      -0.772  -3.484   5.085  0.00  0.00    +0.184 C 
ATOM     39  O   UNL     1      -1.014  -2.314   4.451  0.00  0.00    -0.487 OA
ENDBRANCH  32  35
ENDBRANCH  30  31
ENDBRANCH  25  30
ENDBRANCH  24  27
ENDBRANCH   1  24
TORSDOF 8
