REMARK  Name = ZINC61823948
REMARK  6 active torsions:
REMARK  status: ('A' for Active; 'I' for Inactive)
REMARK    1  A    between atoms: C_1  and  C_2
REMARK    2  A    between atoms: C_2  and  C_3
REMARK    3  A    between atoms: C_3  and  C_4
REMARK    4  A    between atoms: C_4  and  C_6
REMARK    5  A    between atoms: C_4  and  C_10
REMARK    6  A    between atoms: N_7  and  O_8
REMARK                            x       y       z     vdW  Elec       q    Type
REMARK                         _______ _______ _______ _____ _____    ______ ____
ROOT
ATOM      1  C   UNL     1       1.334  -2.514  -2.561  0.00  0.00    +0.226 C 
ATOM      2  O   UNL     1       1.705  -1.717  -3.396  0.00  0.00    -0.275 OA
ATOM      3  N   UNL     1       1.454  -3.837  -2.793  0.00  0.00    -0.301 N 
ATOM      4  C   UNL     1       1.004  -4.816  -1.794  0.00  0.00    +0.108 C 
ATOM      5  C   UNL     1       2.158  -5.775  -1.488  0.00  0.00    +0.026 C 
ATOM      6  C   UNL     1       2.661  -6.395  -2.793  0.00  0.00    -0.026 C 
ATOM      7  C   UNL     1       3.794  -7.377  -2.487  0.00  0.00    +0.007 C 
ATOM      8  C   UNL     1       3.276  -8.482  -1.564  0.00  0.00    +0.001 C 
ATOM      9  C   UNL     1       2.128  -9.225  -2.252  0.00  0.00    +0.000 C 
ATOM     10  C   UNL     1       0.996  -8.242  -2.557  0.00  0.00    +0.001 C 
ATOM     11  C   UNL     1       1.514  -7.138  -3.480  0.00  0.00    +0.007 C 
ATOM     12  C   UNL     1       3.181  -5.292  -3.718  0.00  0.00    +0.026 C 
ATOM     13  C   UNL     1       2.032  -4.327  -4.051  0.00  0.00    +0.108 C 
ENDROOT
BRANCH   1  14
ATOM     14  C   UNL     1       0.739  -2.027  -1.265  0.00  0.00    +0.141 C 
BRANCH  14  15
ATOM     15  C   UNL     1       1.572  -2.525  -0.112  0.00  0.00    +0.144 C 
ATOM     16  N   UNL     1       2.818  -2.814  -0.292  0.00  0.00    -0.076 NA
ATOM     17  N   UNL     1       1.004  -2.671   1.135  0.00  0.00    -0.343 N 
ATOM     18  H   UNL     1       0.069  -2.454   1.270  0.00  0.00    +0.144 HD
ATOM     19  H   UNL     1       1.540  -2.991   1.877  0.00  0.00    +0.144 HD
BRANCH  16  20
ATOM     20  O   UNL     1       3.600  -3.281   0.791  0.00  0.00    -0.408 OA
ATOM     21  H   UNL     1       4.520  -3.471   0.559  0.00  0.00    +0.328 HD
ENDBRANCH  16  20
ENDBRANCH  14  15
BRANCH  14  22
ATOM     22  C   UNL     1       0.718  -0.497  -1.257  0.00  0.00    +0.020 C 
BRANCH  22  24
ATOM     23  C   UNL     1      -0.019   1.526   0.010  0.00  0.00    +0.004 C 
ATOM     24  C   UNL     1       0.002  -0.004   0.002  0.00  0.00    -0.002 C 
ENDBRANCH  22  24
ENDBRANCH  14  22
ENDBRANCH   1  14
TORSDOF 5
