REMARK  Name = ZINC08566479
REMARK  9 active torsions:
REMARK  status: ('A' for Active; 'I' for Inactive)
REMARK    1  A    between atoms: C_1  and  O_2
REMARK    2  A    between atoms: O_2  and  C_3
REMARK    3  A    between atoms: C_5  and  C_15
REMARK    4  A    between atoms: C_8  and  C_9
REMARK    5  A    between atoms: C_18  and  C_29
REMARK    6  A    between atoms: C_24  and  N_28
REMARK    7  A    between atoms: C_25  and  C_26
REMARK    8  A    between atoms: C_29  and  O_30
REMARK    9  A    between atoms: O_30  and  C_31
REMARK                            x       y       z     vdW  Elec       q    Type
REMARK                         _______ _______ _______ _____ _____    ______ ____
ROOT
ATOM      1  C   UNL     1       2.400   0.382  -4.229  0.00  0.00    +0.102 C 
ATOM      2  C   UNL     1       3.870   0.070  -4.343  0.00  0.00    +0.053 A 
ATOM      3  C   UNL     1       4.909   0.407  -3.486  0.00  0.00    +0.108 A 
ATOM      4  N   UNL     1       6.022  -0.076  -3.986  0.00  0.00    -0.172 NA
ATOM      5  N   UNL     1       5.718  -0.741  -5.184  0.00  0.00    -0.246 N 
ATOM      6  H   UNL     1       6.351  -1.193  -5.763  0.00  0.00    +0.192 HD
ATOM      7  C   UNL     1       4.395  -0.639  -5.387  0.00  0.00    +0.223 A 
ATOM      8  O   UNL     1       3.635  -1.115  -6.404  0.00  0.00    -0.423 OA
ATOM      9  C   UNL     1       2.376  -0.645  -6.517  0.00  0.00    +0.200 C 
ATOM     10  C   UNL     1       1.745   0.057  -5.548  0.00  0.00    +0.098 C 
ENDROOT
BRANCH   1  13
ATOM     11  C   UNL     1       0.606  -0.607  -1.055  0.00  0.00    +0.128 A 
ATOM     12  C   UNL     1       1.173   0.159  -2.062  0.00  0.00    +0.050 A 
ATOM     13  C   UNL     1       1.786  -0.456  -3.137  0.00  0.00    -0.031 A 
ATOM     14  C   UNL     1       1.838  -1.836  -3.216  0.00  0.00    +0.005 A 
ATOM     15  C   UNL     1       1.277  -2.611  -2.220  0.00  0.00    +0.012 A 
ATOM     16  C   UNL     1       0.662  -2.002  -1.129  0.00  0.00    +0.024 A 
BRANCH  16  17
ATOM     17  C   UNL     1       0.064  -2.829  -0.053  0.00  0.00    -0.014 A 
ATOM     18  C   UNL     1       0.363  -2.565   1.282  0.00  0.00    +0.008 A 
ATOM     19  C   UNL     1      -0.196  -3.338   2.278  0.00  0.00    +0.001 A 
ATOM     20  C   UNL     1      -1.054  -4.374   1.954  0.00  0.00    +0.000 A 
ATOM     21  C   UNL     1      -1.355  -4.641   0.631  0.00  0.00    +0.001 A 
ATOM     22  C   UNL     1      -0.805  -3.871  -0.374  0.00  0.00    +0.008 A 
ENDBRANCH  16  17
BRANCH  11  24
ATOM     23  C   UNL     1      -0.017   1.425   0.010  0.00  0.00    +0.277 C 
ATOM     24  O   UNL     1       0.002  -0.004   0.002  0.00  0.00    -0.494 OA
ENDBRANCH  11  24
ENDBRANCH   1  13
BRANCH   9  25
ATOM     25  N   UNL     1       1.694  -0.894  -7.682  0.00  0.00    -0.328 N 
ATOM     26  H   UNL     1       2.120  -1.395  -8.395  0.00  0.00    +0.145 HD
ATOM     27  H   UNL     1       0.787  -0.568  -7.793  0.00  0.00    +0.145 HD
ENDBRANCH   9  25
BRANCH  10  28
ATOM     28  C   UNL     1       0.407   0.510  -5.784  0.00  0.00    +0.101 C 
ATOM     29  N   UNL     1      -0.655   0.869  -5.971  0.00  0.00    -0.191 NA
ENDBRANCH  10  28
BRANCH   3  30
ATOM     30  C   UNL     1       4.781   1.192  -2.207  0.00  0.00    +0.286 C 
BRANCH  30  31
ATOM     31  O   UNL     1       4.549   0.295  -1.119  0.00  0.00    -0.486 OA
BRANCH  31  32
ATOM     32  C   UNL     1       4.410   0.846   0.116  0.00  0.00    +0.121 A 
ATOM     33  C   UNL     1       4.489   2.222   0.276  0.00  0.00    +0.045 A 
ATOM     34  C   UNL     1       4.346   2.779   1.532  0.00  0.00    +0.004 A 
ATOM     35  C   UNL     1       4.125   1.967   2.629  0.00  0.00    +0.000 A 
ATOM     36  C   UNL     1       4.047   0.596   2.472  0.00  0.00    +0.004 A 
ATOM     37  C   UNL     1       4.182   0.034   1.218  0.00  0.00    +0.045 A 
ENDBRANCH  31  32
ENDBRANCH  30  31
ENDBRANCH   3  30
TORSDOF 8
