REMARK  Name = ZINC65373518
REMARK  3 active torsions:
REMARK  status: ('A' for Active; 'I' for Inactive)
REMARK    1  A    between atoms: N_14  and  C_15
REMARK    2  A    between atoms: C_15  and  C_16
REMARK    3  A    between atoms: C_16  and  C_17
REMARK                            x       y       z     vdW  Elec       q    Type
REMARK                         _______ _______ _______ _____ _____    ______ ____
ROOT
ATOM      1  C   UNL     1      -0.016   1.354   0.009  0.00  0.00    +0.203 A 
ATOM      2  N   UNL     1       1.092   2.045   0.003  0.00  0.00    -0.230 NA
ATOM      3  C   UNL     1       2.276   1.439  -0.012  0.00  0.00    +0.116 A 
ATOM      4  C   UNL     1       2.396   0.039  -0.021  0.00  0.00    +0.076 A 
ATOM      5  C   UNL     1       3.759  -0.483  -0.038  0.00  0.00    -0.020 A 
ATOM      6  C   UNL     1       4.764   0.420  -0.042  0.00  0.00    +0.010 A 
ATOM      7  S   UNL     1       3.961   1.998  -0.026  0.00  0.00    -0.072 S 
ATOM      8  C   UNL     1       6.231   0.124  -0.057  0.00  0.00    +0.124 C 
ATOM      9  N   UNL     1       6.419  -1.298   0.291  0.00  0.00    -0.311 NA
ATOM     10  C   UNL     1       5.530  -2.149  -0.512  0.00  0.00    +0.086 C 
ATOM     11  C   UNL     1       4.080  -1.976  -0.052  0.00  0.00    +0.052 C 
ATOM     12  C   UNL     1       1.161  -0.689  -0.013  0.00  0.00    +0.262 A 
ATOM     13  O   UNL     1       1.160  -1.908  -0.019  0.00  0.00    -0.267 OA
ATOM     14  N   UNL     1       0.002  -0.004   0.002  0.00  0.00    -0.298 N 
ATOM     15  H   UNL     1       7.383  -1.573   0.178  0.00  0.00    +0.122 HD
ENDROOT
BRANCH  14  16
ATOM     16  C   UNL     1      -1.265  -0.739   0.010  0.00  0.00    +0.133 C 
BRANCH  16  17
ATOM     17  C   UNL     1      -1.720  -0.987  -1.429  0.00  0.00    +0.086 C 
BRANCH  17  18
ATOM     18  C   UNL     1      -3.024  -1.743  -1.421  0.00  0.00    +0.105 A 
ATOM     19  N   UNL     1      -4.263  -1.294  -1.412  0.00  0.00    -0.145 NA
ATOM     20  N   UNL     1      -5.258  -2.068  -1.406  0.00  0.00    -0.126 NA
ATOM     21  C   UNL     1      -5.118  -3.387  -1.408  0.00  0.00    +0.179 A 
ATOM     22  S   UNL     1      -3.331  -3.507  -1.427  0.00  0.00    -0.036 S 
ATOM     23  N   UNL     1      -6.079  -4.387  -1.402  0.00  0.00    -0.336 N 
ATOM     24  H   UNL     1      -7.021  -4.155  -1.396  0.00  0.00    +0.144 HD
ATOM     25  H   UNL     1      -5.810  -5.319  -1.404  0.00  0.00    +0.144 HD
ENDBRANCH  17  18
ENDBRANCH  16  17
ENDBRANCH  14  16
TORSDOF 3
