REMARK  Name = ZINC17004567
REMARK  7 active torsions:
REMARK  status: ('A' for Active; 'I' for Inactive)
REMARK    1  A    between atoms: C_1  and  C_2
REMARK    2  A    between atoms: C_2  and  C_4
REMARK    3  A    between atoms: C_2  and  O_31
REMARK    4  A    between atoms: C_4  and  O_30
REMARK    5  A    between atoms: C_9  and  C_29
REMARK    6  A    between atoms: C_21  and  C_28
REMARK    7  A    between atoms: C_24  and  O_27
REMARK                            x       y       z     vdW  Elec       q    Type
REMARK                         _______ _______ _______ _____ _____    ______ ____
ROOT
ATOM      1  C   UNL     1       8.813   4.668  -0.596  0.00  0.00    +0.098 C 
ATOM      2  C   UNL     1       8.559   5.596   0.617  0.00  0.00    +0.038 C 
ATOM      3  C   UNL     1       7.028   5.580   0.868  0.00  0.00    +0.007 C 
ATOM      4  C   UNL     1       6.455   5.188  -0.500  0.00  0.00    +0.002 C 
ATOM      5  C   UNL     1       7.448   4.086  -0.958  0.00  0.00    +0.009 C 
ATOM      6  C   UNL     1       7.211   3.855  -2.442  0.00  0.00    +0.084 C 
ATOM      7  C   UNL     1       5.757   3.429  -2.582  0.00  0.00    +0.138 C 
ATOM      8  O   UNL     1       5.472   2.448  -3.228  0.00  0.00    -0.297 OA
ATOM      9  C   UNL     1       4.673   4.236  -1.912  0.00  0.00    +0.065 C 
ATOM     10  C   UNL     1       5.078   4.558  -0.468  0.00  0.00    +0.003 C 
ATOM     11  C   UNL     1       4.079   5.513   0.177  0.00  0.00    +0.005 C 
ATOM     12  C   UNL     1       2.647   5.107  -0.194  0.00  0.00    +0.004 C 
ATOM     13  C   UNL     1       2.657   3.632  -0.576  0.00  0.00    -0.002 C 
ATOM     14  C   UNL     1       3.361   3.471  -1.928  0.00  0.00    -0.019 C 
ATOM     15  C   UNL     1       3.545   1.981  -2.201  0.00  0.00    +0.010 C 
ATOM     16  C   UNL     1       2.150   1.346  -2.309  0.00  0.00    +0.032 C 
ATOM     17  C   UNL     1       1.376   1.551  -1.007  0.00  0.00    +0.115 C 
ATOM     18  C   UNL     1       1.254   3.044  -0.683  0.00  0.00    +0.035 C 
ATOM     19  C   UNL     1       2.464   4.051  -3.023  0.00  0.00    +0.012 C 
ATOM     20  C   UNL     1       7.212   2.788  -0.183  0.00  0.00    +0.015 C 
ENDROOT
BRANCH   1  22
ATOM     21  C   UNL     1      11.179   4.133   0.001  0.00  0.00    +0.040 C 
ATOM     22  C   UNL     1       9.781   3.548  -0.211  0.00  0.00    +0.144 C 
BRANCH  22  23
ATOM     23  O   UNL     1       9.336   2.928   0.997  0.00  0.00    -0.389 OA
ATOM     24  H   UNL     1       9.904   2.206   1.301  0.00  0.00    +0.210 HD
ENDBRANCH  22  23
ENDBRANCH   1  22
BRANCH  17  25
ATOM     25  O   UNL     1       0.069   0.989  -1.143  0.00  0.00    -0.392 OA
ATOM     26  H   UNL     1       0.066   0.044  -1.348  0.00  0.00    +0.210 HD
ENDBRANCH  17  25
BRANCH   1  27
ATOM     27  O   UNL     1       9.336   5.420  -1.693  0.00  0.00    -0.385 OA
ATOM     28  H   UNL     1      10.202   5.815  -1.522  0.00  0.00    +0.210 HD
ENDBRANCH   1  27
TORSDOF 4
