REMARK  Name = ZINC43553931
REMARK  12 active torsions:
REMARK  status: ('A' for Active; 'I' for Inactive)
REMARK    1  A    between atoms: C_1  and  C_2
REMARK    2  A    between atoms: C_5  and  O_30
REMARK    3  A    between atoms: C_7  and  C_27
REMARK    4  A    between atoms: C_7  and  C_28
REMARK    5  A    between atoms: C_12  and  O_26
REMARK    6  A    between atoms: C_14  and  C_16
REMARK    7  A    between atoms: C_16  and  C_17
REMARK    8  A    between atoms: N_19  and  C_20
REMARK    9  A    between atoms: C_20  and  C_21
REMARK   10  A    between atoms: C_28  and  O_29
REMARK   11  A    between atoms: O_30  and  C_31
REMARK   12  A    between atoms: N_33  and  C_34
REMARK                            x       y       z     vdW  Elec       q    Type
REMARK                         _______ _______ _______ _____ _____    ______ ____
ROOT
ATOM      1  C   UNL     1       0.461   1.544  -0.086  0.00  0.00    +0.012 C 
ATOM      2  C   UNL     1       0.435   0.003  -0.097  0.00  0.00    -0.023 C 
ATOM      3  C   UNL     1      -1.018  -0.462  -0.076  0.00  0.00    +0.011 C 
ATOM      4  C   UNL     1      -1.696   0.010   1.212  0.00  0.00    +0.046 C 
ATOM      5  C   UNL     1      -0.992  -0.583   2.424  0.00  0.00    +0.186 C 
ATOM      6  C   UNL     1       0.501  -0.280   2.439  0.00  0.00    +0.031 C 
ATOM      7  C   UNL     1       1.182  -0.565   1.107  0.00  0.00    +0.007 C 
ATOM      8  C   UNL     1       1.368  -2.077   0.938  0.00  0.00    +0.007 C 
ATOM      9  C   UNL     1       2.128  -2.394  -0.352  0.00  0.00    +0.032 C 
ATOM     10  C   UNL     1       1.323  -1.889  -1.549  0.00  0.00    +0.119 C 
ATOM     11  C   UNL     1       1.124  -0.390  -1.406  0.00  0.00    +0.032 C 
ATOM     12  C   UNL     1       0.731   1.165   2.901  0.00  0.00    +0.017 C 
ENDROOT
BRANCH  10  13
ATOM     13  O   UNL     1       0.079  -2.576  -1.641  0.00  0.00    -0.391 OA
ATOM     14  H   UNL     1       0.166  -3.533  -1.751  0.00  0.00    +0.210 HD
ENDBRANCH  10  13
BRANCH  11  15
ATOM     15  C   UNL     1       0.349   0.157  -2.606  0.00  0.00    +0.102 C 
BRANCH  15  16
ATOM     16  C   UNL     1       1.111  -0.137  -3.872  0.00  0.00    +0.214 C 
ATOM     17  O   UNL     1       2.170  -0.726  -3.820  0.00  0.00    -0.276 OA
ATOM     18  N   UNL     1       0.616   0.255  -5.063  0.00  0.00    -0.311 N 
ATOM     19  H   UNL     1      -0.231   0.726  -5.105  0.00  0.00    +0.149 HD
BRANCH  18  20
ATOM     20  C   UNL     1       1.357  -0.031  -6.294  0.00  0.00    +0.146 C 
BRANCH  20  21
ATOM     21  C   UNL     1       0.593   0.508  -7.476  0.00  0.00    +0.007 A 
ATOM     22  C   UNL     1       0.671   1.730  -8.058  0.00  0.00    +0.013 A 
ATOM     23  C   UNL     1      -0.135   2.006  -9.146  0.00  0.00    +0.008 A 
ATOM     24  C   UNL     1      -0.979   1.048  -9.600  0.00  0.00    +0.045 A 
ATOM     25  S   UNL     1      -0.643  -0.300  -8.479  0.00  0.00    -0.100 S 
ENDBRANCH  20  21
ENDBRANCH  18  20
ENDBRANCH  15  16
ENDBRANCH  11  15
BRANCH   6  26
ATOM     26  C   UNL     1       1.129  -1.163   3.543  0.00  0.00    +0.166 C 
BRANCH  26  27
ATOM     27  O   UNL     1       0.536  -0.843   4.803  0.00  0.00    -0.394 OA
ATOM     28  H   UNL     1       0.882  -1.360   5.544  0.00  0.00    +0.209 HD
ENDBRANCH  26  27
ENDBRANCH   6  26
BRANCH   5  29
ATOM     29  O   UNL     1      -1.204  -1.997   2.465  0.00  0.00    -0.446 OA
BRANCH  29  30
ATOM     30  C   UNL     1      -2.285  -2.433   3.140  0.00  0.00    +0.405 C 
ATOM     31  O   UNL     1      -3.027  -1.637   3.679  0.00  0.00    -0.226 OA
ATOM     32  N   UNL     1      -2.542  -3.754   3.218  0.00  0.00    -0.251 N 
ATOM     33  H   UNL     1      -1.915  -4.394   2.846  0.00  0.00    +0.158 HD
BRANCH  32  34
ATOM     34  C   UNL     1      -3.716  -4.203   3.835  0.00  0.00    +0.039 A 
ATOM     35  C   UNL     1      -4.370  -5.329   3.351  0.00  0.00    +0.023 A 
ATOM     36  C   UNL     1      -5.527  -5.770   3.961  0.00  0.00    +0.005 A 
ATOM     37  C   UNL     1      -6.036  -5.093   5.054  0.00  0.00    +0.038 A 
ATOM     38  C   UNL     1      -5.388  -3.970   5.540  0.00  0.00    +0.125 A 
ATOM     39  C   UNL     1      -4.225  -3.527   4.935  0.00  0.00    +0.061 A 
ATOM     40  F   UNL     1      -5.888  -3.311   6.607  0.00  0.00    -0.205 F 
ENDBRANCH  32  34
ENDBRANCH  29  30
ENDBRANCH   5  29
TORSDOF 10
