REMARK  Name = ZINC02622426
REMARK  6 active torsions:
REMARK  status: ('A' for Active; 'I' for Inactive)
REMARK    1  A    between atoms: C_1  and  C_2
REMARK    2  A    between atoms: C_2  and  C_4
REMARK    3  A    between atoms: C_2  and  S_17
REMARK    4  A    between atoms: N_6  and  C_7
REMARK    5  A    between atoms: C_9  and  N_14
REMARK    6  A    between atoms: S_17  and  C_18
REMARK                            x       y       z     vdW  Elec       q    Type
REMARK                         _______ _______ _______ _____ _____    ______ ____
ROOT
ATOM      1  C   UNL     1      -1.154   1.681   0.018  0.00  0.00    +0.230 C 
ATOM      2  O   UNL     1      -1.113   2.890  -0.064  0.00  0.00    -0.274 OA
ATOM      3  N   UNL     1      -0.011   0.966   0.007  0.00  0.00    -0.283 N 
ATOM      4  H   UNL     1      -0.045  -0.003  -0.011  0.00  0.00    +0.155 HD
ENDROOT
BRANCH   3   5
ATOM      5  C   UNL     1       1.225   1.622   0.017  0.00  0.00    +0.054 A 
ATOM      6  C   UNL     1       1.328   2.905   0.539  0.00  0.00    +0.057 A 
ATOM      7  C   UNL     1       2.550   3.550   0.547  0.00  0.00    +0.128 A 
ATOM      8  C   UNL     1       3.670   2.920   0.035  0.00  0.00    +0.034 A 
ATOM      9  C   UNL     1       3.571   1.643  -0.486  0.00  0.00    +0.024 A 
ATOM     10  C   UNL     1       2.353   0.990  -0.492  0.00  0.00    +0.062 A 
ATOM     11 CL   UNL     1       2.232  -0.616  -1.140  0.00  0.00    -0.082 Cl
BRANCH   7  12
ATOM     12  N   UNL     1       2.660   4.916   1.104  0.00  0.00    +0.056 N 
ATOM     13  O   UNL     1       1.674   5.471   1.556  0.00  0.00    -0.126 OA
ATOM     14  O   UNL     1       3.736   5.486   1.111  0.00  0.00    -0.126 OA
ENDBRANCH   7  12
ENDBRANCH   3   5
BRANCH   1  16
ATOM     15  C   UNL     1      -2.800   0.722   1.606  0.00  0.00    +0.029 C 
ATOM     16  C   UNL     1      -2.482   0.977   0.131  0.00  0.00    +0.136 C 
BRANCH  16  17
ATOM     17  S   UNL     1      -3.779   2.015  -0.597  0.00  0.00    -0.084 S 
BRANCH  17  18
ATOM     18  C   UNL     1      -5.223   1.006  -0.523  0.00  0.00    +0.161 A 
ATOM     19  N   UNL     1      -5.362  -0.221  -0.061  0.00  0.00    -0.133 NA
ATOM     20  N   UNL     1      -6.596  -0.829  -0.095  0.00  0.00    -0.125 NA
ATOM     21  C   UNL     1      -7.630  -0.187  -0.600  0.00  0.00    +0.180 A 
ATOM     22  S   UNL     1      -6.886   1.370  -1.062  0.00  0.00    -0.025 S 
ATOM     23  N   UNL     1      -8.948  -0.608  -0.737  0.00  0.00    -0.336 N 
ATOM     24  H   UNL     1      -9.607  -0.018  -1.133  0.00  0.00    +0.144 HD
ATOM     25  H   UNL     1      -9.207  -1.493  -0.436  0.00  0.00    +0.144 HD
ENDBRANCH  17  18
ENDBRANCH  16  17
ENDBRANCH   1  16
TORSDOF 5
