REMARK  Name = ZINC39639515
REMARK  8 active torsions:
REMARK  status: ('A' for Active; 'I' for Inactive)
REMARK    1  A    between atoms: C_1  and  C_2
REMARK    2  A    between atoms: C_2  and  C_3
REMARK    3  A    between atoms: C_3  and  C_4
REMARK    4  A    between atoms: C_3  and  C_6
REMARK    5  A    between atoms: C_4  and  C_5
REMARK    6  A    between atoms: C_10  and  C_19
REMARK    7  A    between atoms: N_21  and  C_22
REMARK    8  A    between atoms: C_22  and  C_23
REMARK                            x       y       z     vdW  Elec       q    Type
REMARK                         _______ _______ _______ _____ _____    ______ ____
ROOT
ATOM      1  C   UNL     1       1.215  -2.025   1.281  0.00  0.00    +0.219 C 
ATOM      2  O   UNL     1       0.951  -2.805   2.171  0.00  0.00    -0.275 OA
ATOM      3  N   UNL     1       1.752  -2.472   0.129  0.00  0.00    -0.300 N 
ATOM      4  C   UNL     1       2.145  -1.678  -1.059  0.00  0.00    +0.121 C 
ATOM      5  C   UNL     1       3.463  -2.325  -1.542  0.00  0.00    +0.100 C 
ATOM      6  C   UNL     1       3.415  -3.764  -1.001  0.00  0.00    -0.004 C 
ATOM      7  C   UNL     1       2.090  -3.870  -0.234  0.00  0.00    +0.115 C 
ATOM      8  C   UNL     1       4.587  -4.011  -0.055  0.00  0.00    -0.010 C 
ATOM      9  C   UNL     1       4.550  -5.465   0.425  0.00  0.00    -0.082 C 
ATOM     10  N   UNL     1       4.630  -6.366  -0.731  0.00  0.00    +0.379 N 
ATOM     11  C   UNL     1       3.452  -6.187  -1.588  0.00  0.00    -0.082 C 
ATOM     12  C   UNL     1       3.441  -4.763  -2.153  0.00  0.00    -0.010 C 
ATOM     13  H   UNL     1       5.463  -6.160  -1.260  0.00  0.00    -0.086 HD
ATOM     14  H   UNL     1       4.667  -7.322  -0.409  0.00  0.00    -0.086 HD
ENDROOT
BRANCH   5  15
ATOM     15  C   UNL     1       3.523  -2.330  -3.048  0.00  0.00    +0.218 C 
ATOM     16  O   UNL     1       2.497  -2.313  -3.696  0.00  0.00    -0.275 OA
ATOM     17  N   UNL     1       4.715  -2.354  -3.675  0.00  0.00    -0.311 N 
ATOM     18  H   UNL     1       5.535  -2.368  -3.157  0.00  0.00    +0.149 HD
BRANCH  17  19
ATOM     19  C   UNL     1       4.774  -2.360  -5.139  0.00  0.00    +0.142 C 
BRANCH  19  20
ATOM     20  C   UNL     1       6.213  -2.388  -5.584  0.00  0.00    +0.005 A 
ATOM     21  C   UNL     1       6.836  -1.220  -5.985  0.00  0.00    +0.009 A 
ATOM     22  C   UNL     1       8.156  -1.245  -6.393  0.00  0.00    +0.016 A 
ATOM     23  C   UNL     1       8.856  -2.439  -6.401  0.00  0.00    +0.021 A 
ATOM     24  C   UNL     1       8.235  -3.608  -6.001  0.00  0.00    +0.054 A 
ATOM     25  C   UNL     1       6.914  -3.582  -5.587  0.00  0.00    +0.129 A 
ATOM     26  F   UNL     1       6.307  -4.722  -5.190  0.00  0.00    -0.205 F 
ATOM     27 BR   UNL     1      10.662  -2.472  -6.960  0.00  0.00    -0.050 Br
ENDBRANCH  19  20
ENDBRANCH  17  19
ENDBRANCH   5  15
BRANCH   1  28
ATOM     28  C   UNL     1       0.943  -0.554   1.464  0.00  0.00    +0.075 C 
BRANCH  28  30
ATOM     29  C   UNL     1      -0.206   1.438   0.487  0.00  0.00    +0.004 C 
ATOM     30  C   UNL     1      -0.038  -0.080   0.390  0.00  0.00    +0.009 C 
ENDBRANCH  28  30
BRANCH  28  31
ATOM     31  C   UNL     1       0.338  -0.316   2.849  0.00  0.00    +0.009 C 
ATOM     32  C   UNL     1       1.379  -0.636   3.923  0.00  0.00    +0.004 C 
ENDBRANCH  28  31
ENDBRANCH   1  28
TORSDOF 6
