REMARK  Name = ZINC19847912
REMARK  4 active torsions:
REMARK  status: ('A' for Active; 'I' for Inactive)
REMARK    1  A    between atoms: C_8  and  S_10
REMARK    2  A    between atoms: S_10  and  C_11
REMARK    3  A    between atoms: C_11  and  C_12
REMARK    4  A    between atoms: N_13  and  O_14
REMARK                            x       y       z     vdW  Elec       q    Type
REMARK                         _______ _______ _______ _____ _____    ______ ____
ROOT
ATOM      1  C   UNL     1      -8.194  -2.526   0.025  0.00  0.00    +0.002 A 
ATOM      2  C   UNL     1      -9.093  -1.470   0.035  0.00  0.00    +0.004 A 
ATOM      3  C   UNL     1      -8.642  -0.166   0.041  0.00  0.00    +0.048 A 
ATOM      4  C   UNL     1      -7.281   0.094   0.037  0.00  0.00    +0.156 A 
ATOM      5  C   UNL     1      -6.367  -0.971   0.026  0.00  0.00    +0.110 A 
ATOM      6  C   UNL     1      -6.838  -2.285   0.021  0.00  0.00    +0.031 A 
ATOM      7  N   UNL     1      -5.124  -0.418   0.018  0.00  0.00    -0.203 NA
ATOM      8  C   UNL     1      -5.244   0.886   0.032  0.00  0.00    +0.258 A 
ATOM      9  O   UNL     1      -6.545   1.229   0.040  0.00  0.00    -0.431 OA
ENDROOT
BRANCH   8  10
ATOM     10  S   UNL     1      -3.899   2.024   0.032  0.00  0.00    -0.059 S 
BRANCH  10  11
ATOM     11  C   UNL     1      -2.508   0.867   0.019  0.00  0.00    +0.153 C 
BRANCH  11  12
ATOM     12  C   UNL     1      -1.213   1.638   0.017  0.00  0.00    +0.142 C 
ATOM     13  N   UNL     1      -1.230   2.930   0.024  0.00  0.00    -0.076 NA
ATOM     14  N   UNL     1      -0.011   0.966   0.007  0.00  0.00    -0.343 N 
ATOM     15  H   UNL     1       0.934   1.529   0.006  0.00  0.00    +0.144 HD
ATOM     16  H   UNL     1       0.004  -0.134   0.001  0.00  0.00    +0.144 HD
BRANCH  13  17
ATOM     17  O   UNL     1      -0.014   3.654   0.022  0.00  0.00    -0.408 OA
ATOM     18  H   UNL     1      -0.029   4.754   0.028  0.00  0.00    +0.328 HD
ENDBRANCH  13  17
ENDBRANCH  11  12
ENDBRANCH  10  11
ENDBRANCH   8  10
TORSDOF 4
