REMARK  Name = ZINC12551974
REMARK  8 active torsions:
REMARK  status: ('A' for Active; 'I' for Inactive)
REMARK    1  A    between atoms: C_1  and  C_2
REMARK    2  A    between atoms: C_4  and  C_27
REMARK    3  A    between atoms: C_5  and  S_9
REMARK    4  A    between atoms: C_6  and  C_8
REMARK    5  A    between atoms: S_9  and  N_12
REMARK    6  A    between atoms: N_12  and  C_13
REMARK    7  A    between atoms: C_15  and  C_24
REMARK    8  A    between atoms: C_18  and  N_19
REMARK                            x       y       z     vdW  Elec       q    Type
REMARK                         _______ _______ _______ _____ _____    ______ ____
ROOT
ATOM      1  C   UNL     1       4.413  -0.186  -1.268  0.00  0.00    +0.070 A 
ATOM      2  C   UNL     1       4.978   0.923  -0.668  0.00  0.00    +0.039 A 
ATOM      3  C   UNL     1       5.593   1.902  -1.455  0.00  0.00    +0.038 A 
ATOM      4  C   UNL     1       5.633   1.755  -2.844  0.00  0.00    +0.015 A 
ATOM      5  C   UNL     1       5.068   0.647  -3.438  0.00  0.00    +0.026 A 
ATOM      6  C   UNL     1       4.461  -0.330  -2.657  0.00  0.00    +0.052 A 
ENDROOT
BRANCH   6   7
ATOM      7  N   UNL     1       3.896  -1.451  -3.261  0.00  0.00    -0.328 N 
ATOM      8  C   UNL     1       4.131  -1.441  -4.727  0.00  0.00    +0.105 C 
ATOM      9  C   UNL     1       3.934  -2.925  -5.128  0.00  0.00    +0.020 C 
ATOM     10  C   UNL     1       4.550  -3.690  -3.934  0.00  0.00    +0.020 C 
ATOM     11  C   UNL     1       4.522  -2.694  -2.760  0.00  0.00    +0.105 C 
ENDBRANCH   6   7
BRANCH   3  12
ATOM     12  C   UNL     1       6.197   3.088  -0.820  0.00  0.00    +0.242 C 
ATOM     13  O   UNL     1       6.162   3.216   0.389  0.00  0.00    -0.270 OA
ATOM     14  N   UNL     1       6.789   4.031  -1.580  0.00  0.00    -0.325 N 
ATOM     15  H   UNL     1       6.818   3.930  -2.544  0.00  0.00    +0.145 HD
ATOM     16  H   UNL     1       7.187   4.811  -1.162  0.00  0.00    +0.145 HD
ENDBRANCH   3  12
BRANCH   1  17
ATOM     17  N   UNL     1       3.797  -1.169  -0.483  0.00  0.00    -0.214 N 
ATOM     18  H   UNL     1       4.292  -1.962  -0.222  0.00  0.00    +0.174 HD
BRANCH  17  19
ATOM     19  S   UNL     1       2.224  -0.978  -0.001  0.00  0.00    +0.073 S 
ATOM     20  O   UNL     1       2.115   0.342   0.514  0.00  0.00    -0.150 OA
ATOM     21  O   UNL     1       1.893  -2.126   0.769  0.00  0.00    -0.150 OA
BRANCH  19  26
ATOM     22  C   UNL     1      -1.206  -1.183  -4.960  0.00  0.00    +0.044 C 
ATOM     23  C   UNL     1      -0.345  -1.133  -3.724  0.00  0.00    -0.050 A 
ATOM     24  C   UNL     1      -0.013  -2.301  -3.065  0.00  0.00    +0.008 A 
ATOM     25  C   UNL     1       0.772  -2.254  -1.928  0.00  0.00    -0.023 A 
ATOM     26  C   UNL     1       1.224  -1.038  -1.450  0.00  0.00    +0.114 A 
ATOM     27  C   UNL     1       0.892   0.130  -2.110  0.00  0.00    -0.023 A 
ATOM     28  C   UNL     1       0.108   0.083  -3.247  0.00  0.00    +0.008 A 
ATOM     29  C   UNL     1       1.386   1.456  -1.589  0.00  0.00    +0.046 C 
ATOM     30  C   UNL     1       1.134  -3.528  -1.209  0.00  0.00    +0.046 C 
ENDBRANCH  19  26
ENDBRANCH  17  19
ENDBRANCH   1  17
TORSDOF 5
