REMARK  Name = ZINC51635116
REMARK  5 active torsions:
REMARK  status: ('A' for Active; 'I' for Inactive)
REMARK    1  A    between atoms: C_4  and  C_17
REMARK    2  A    between atoms: C_6  and  N_7
REMARK    3  A    between atoms: N_7  and  S_8
REMARK    4  A    between atoms: S_8  and  C_11
REMARK    5  A    between atoms: C_17  and  N_18
REMARK                            x       y       z     vdW  Elec       q    Type
REMARK                         _______ _______ _______ _____ _____    ______ ____
ROOT
ATOM      1  C   UNL     1      -0.017   1.384   0.010  0.00  0.00    +0.029 A 
ATOM      2  C   UNL     1       1.171   2.090   0.002  0.00  0.00    +0.040 A 
ATOM      3  C   UNL     1       2.379   1.414  -0.013  0.00  0.00    +0.125 A 
ATOM      4  C   UNL     1       2.400   0.030  -0.021  0.00  0.00    -0.028 A 
ATOM      5  C   UNL     1       1.215  -0.680  -0.014  0.00  0.00    +0.031 A 
ATOM      6  C   UNL     1       0.002  -0.004   0.002  0.00  0.00    +0.075 A 
ATOM      7  F   UNL     1       3.539   2.107  -0.020  0.00  0.00    -0.205 F 
ENDROOT
BRANCH   6   8
ATOM      8  N   UNL     1      -1.198  -0.721   0.010  0.00  0.00    -0.098 NA
BRANCH   8   9
ATOM      9  S   UNL     1      -2.644   0.086   0.029  0.00  0.00    +0.095 S 
ATOM     10  O   UNL     1      -2.718   0.759   1.278  0.00  0.00    -0.148 OA
ATOM     11  O   UNL     1      -2.743   0.772  -1.212  0.00  0.00    -0.148 OA
BRANCH   9  12
ATOM     12  C   UNL     1      -3.920  -1.129   0.035  0.00  0.00    +0.147 A 
ATOM     13  C   UNL     1      -4.503  -1.677  -1.056  0.00  0.00    +0.133 A 
ATOM     14  N   UNL     1      -5.428  -2.562  -0.628  0.00  0.00    -0.283 N 
ATOM     15  H   UNL     1      -6.002  -3.104  -1.191  0.00  0.00    +0.188 HD
ATOM     16  N   UNL     1      -5.412  -2.558   0.772  0.00  0.00    -0.180 NA
ATOM     17  C   UNL     1      -4.504  -1.704   1.169  0.00  0.00    +0.163 A 
ENDBRANCH   9  12
ENDBRANCH   8   9
ENDBRANCH   6   8
BRANCH   4  18
ATOM     18  C   UNL     1       3.717  -0.703  -0.038  0.00  0.00    -0.048 C 
BRANCH  18  19
ATOM     19  N   UNL     1       4.306  -0.620  -1.381  0.00  0.00    +0.381 N 
ATOM     20  H   UNL     1       5.187  -1.111  -1.393  0.00  0.00    -0.090 HD
ATOM     21  H   UNL     1       3.678  -1.041  -2.050  0.00  0.00    -0.090 HD
ATOM     22  H   UNL     1       4.456   0.347  -1.623  0.00  0.00    -0.090 HD
ENDBRANCH  18  19
ENDBRANCH   4  18
TORSDOF 5
