REMARK  Name = ZINC12488109
REMARK  11 active torsions:
REMARK  status: ('A' for Active; 'I' for Inactive)
REMARK    1  A    between atoms: C_1  and  C_2
REMARK    2  A    between atoms: C_5  and  N_9
REMARK    3  A    between atoms: C_6  and  C_8
REMARK    4  A    between atoms: C_10  and  C_12
REMARK    5  A    between atoms: C_12  and  C_13
REMARK    6  A    between atoms: C_13  and  C_14
REMARK    7  A    between atoms: N_16  and  N_17
REMARK    8  A    between atoms: C_18  and  C_20
REMARK    9  A    between atoms: C_20  and  O_21
REMARK   10  A    between atoms: O_21  and  C_22
REMARK   11  A    between atoms: C_26  and  C_28
REMARK                            x       y       z     vdW  Elec       q    Type
REMARK                         _______ _______ _______ _____ _____    ______ ____
ROOT
ATOM      1  C   UNL     1      -3.182  -3.668   0.041  0.00  0.00    +0.230 C 
ATOM      2  O   UNL     1      -2.249  -4.444   0.035  0.00  0.00    -0.274 OA
ATOM      3  N   UNL     1      -2.953  -2.340   0.049  0.00  0.00    -0.234 N 
ATOM      4  H   UNL     1      -3.699  -1.719   0.054  0.00  0.00    +0.173 HD
ENDROOT
BRANCH   3   5
ATOM      5  N   UNL     1      -1.639  -1.855   0.050  0.00  0.00    -0.232 N 
ATOM      6  C   UNL     1      -1.410  -0.527   0.059  0.00  0.00    +0.267 C 
ATOM      7  O   UNL     1      -2.342   0.249   0.065  0.00  0.00    -0.271 OA
ATOM      8  H   UNL     1      -0.893  -2.476   0.045  0.00  0.00    +0.173 HD
BRANCH   6   9
ATOM      9  C   UNL     1       0.004  -0.006   0.060  0.00  0.00    +0.326 C 
BRANCH   9  10
ATOM     10  O   UNL     1      -0.015   1.423   0.069  0.00  0.00    -0.483 OA
BRANCH  10  11
ATOM     11  C   UNL     1       1.188   2.056   0.071  0.00  0.00    +0.122 A 
ATOM     12  C   UNL     1       2.362   1.317   0.070  0.00  0.00    +0.047 A 
ATOM     13  C   UNL     1       3.583   1.962   0.067  0.00  0.00    +0.019 A 
ATOM     14  C   UNL     1       3.636   3.345   0.076  0.00  0.00    +0.021 A 
ATOM     15  C   UNL     1       2.466   4.084   0.082  0.00  0.00    -0.033 A 
ATOM     16  C   UNL     1       1.243   3.442   0.080  0.00  0.00    +0.050 A 
ATOM     17  C   UNL     1       2.527   5.590   0.091  0.00  0.00    +0.045 C 
ATOM     18 BR   UNL     1       5.309   4.226   0.078  0.00  0.00    -0.050 Br
ENDBRANCH  10  11
ENDBRANCH   9  10
ENDBRANCH   6   9
ENDBRANCH   3   5
BRANCH   1  19
ATOM     19  C   UNL     1      -4.596  -4.189   0.040  0.00  0.00    +0.106 C 
BRANCH  19  20
ATOM     20  C   UNL     1      -4.575  -5.719   0.030  0.00  0.00    +0.105 C 
BRANCH  20  22
ATOM     21  N   UNL     1      -6.218  -7.569   0.021  0.00  0.00    -0.285 N 
ATOM     22  C   UNL     1      -5.989  -6.240   0.029  0.00  0.00    +0.218 C 
ATOM     23  O   UNL     1      -6.921  -5.465   0.035  0.00  0.00    -0.275 OA
ATOM     24  H   UNL     1      -5.476  -8.188  -0.065  0.00  0.00    +0.155 HD
BRANCH  21  29
ATOM     25  C   UNL     1     -11.518  -9.538   0.489  0.00  0.00    +0.044 C 
ATOM     26  C   UNL     1     -10.110  -9.015   0.365  0.00  0.00    -0.050 A 
ATOM     27  C   UNL     1      -9.790  -7.767   0.868  0.00  0.00    +0.005 A 
ATOM     28  C   UNL     1      -8.501  -7.285   0.756  0.00  0.00    +0.024 A 
ATOM     29  C   UNL     1      -7.525  -8.054   0.136  0.00  0.00    +0.036 A 
ATOM     30  C   UNL     1      -7.850  -9.304  -0.373  0.00  0.00    -0.029 A 
ATOM     31  C   UNL     1      -9.140  -9.783  -0.253  0.00  0.00    +0.008 A 
ATOM     32  C   UNL     1      -6.796 -10.140  -1.052  0.00  0.00    +0.045 C 
ENDBRANCH  21  29
ENDBRANCH  20  22
ENDBRANCH  19  20
ENDBRANCH   1  19
TORSDOF 8
