REMARK  Name = ZINC35675975
REMARK  5 active torsions:
REMARK  status: ('A' for Active; 'I' for Inactive)
REMARK    1  A    between atoms: C_3  and  O_11
REMARK    2  A    between atoms: C_6  and  N_7
REMARK    3  A    between atoms: O_11  and  C_12
REMARK    4  A    between atoms: C_12  and  C_13
REMARK    5  A    between atoms: C_13  and  C_14
REMARK                            x       y       z     vdW  Elec       q    Type
REMARK                         _______ _______ _______ _____ _____    ______ ____
ROOT
ATOM      1  C   UNL     1      -0.016   1.355   0.009  0.00  0.00    +0.028 A 
ATOM      2  C   UNL     1       1.152   2.120   0.002  0.00  0.00    +0.050 A 
ATOM      3  C   UNL     1       2.389   1.560  -0.013  0.00  0.00    +0.152 A 
ATOM      4  C   UNL     1       2.523   0.102  -0.022  0.00  0.00    +0.177 A 
ATOM      5  C   UNL     1       1.288  -0.709  -0.014  0.00  0.00    +0.158 A 
ATOM      6  C   UNL     1       0.002  -0.004   0.002  0.00  0.00    +0.056 A 
ATOM      7  N   UNL     1       1.630  -1.973  -0.024  0.00  0.00    -0.047 NA
ATOM      8  O   UNL     1       3.046  -2.043  -0.038  0.00  0.00    -0.241 OA
ATOM      9  N   UNL     1       3.547  -0.717  -0.036  0.00  0.00    -0.045 NA
ENDROOT
BRANCH   6  10
ATOM     10  N   UNL     1      -1.194  -0.724   0.009  0.00  0.00    -0.356 N 
ATOM     11  H   UNL     1      -2.043  -0.254   0.020  0.00  0.00    +0.142 HD
ATOM     12  H   UNL     1      -1.177  -1.694   0.004  0.00  0.00    +0.142 HD
ENDBRANCH   6  10
BRANCH   3  13
ATOM     13  O   UNL     1       3.497   2.349  -0.020  0.00  0.00    -0.484 OA
BRANCH  13  14
ATOM     14  C   UNL     1       3.287   3.762  -0.011  0.00  0.00    +0.310 C 
BRANCH  14  15
ATOM     15  C   UNL     1       4.639   4.479  -0.021  0.00  0.00    +0.341 C 
ATOM     16  F   UNL     1       4.433   5.862  -0.012  0.00  0.00    -0.196 F 
ATOM     17  F   UNL     1       5.371   4.108   1.112  0.00  0.00    -0.196 F 
BRANCH  15  18
ATOM     18  C   UNL     1       5.414   4.086  -1.280  0.00  0.00    +0.413 C 
ATOM     19  F   UNL     1       6.651   4.741  -1.289  0.00  0.00    -0.203 F 
ATOM     20  F   UNL     1       5.620   2.702  -1.289  0.00  0.00    -0.203 F 
ENDBRANCH  15  18
ENDBRANCH  14  15
ENDBRANCH  13  14
ENDBRANCH   3  13
TORSDOF 5
