REMARK  Name = ZINC39024827
REMARK  4 active torsions:
REMARK  status: ('A' for Active; 'I' for Inactive)
REMARK    1  A    between atoms: C_1  and  C_2
REMARK    2  A    between atoms: C_2  and  C_4
REMARK    3  A    between atoms: C_2  and  N_17
REMARK    4  A    between atoms: C_4  and  N_6
REMARK                            x       y       z     vdW  Elec       q    Type
REMARK                         _______ _______ _______ _____ _____    ______ ____
ROOT
ATOM      1  C   UNL     1      -0.009   1.543   0.017  0.00  0.00    +0.038 C 
ATOM      2  C   UNL     1      -0.002   0.013   0.010  0.00  0.00    +0.170 C 
ENDROOT
BRANCH   2   3
ATOM      3  N   UNL     1      -1.381  -0.481   0.027  0.00  0.00    -0.212 N 
ATOM      4  C   UNL     1      -1.823  -1.258  -0.982  0.00  0.00    +0.236 C 
ATOM      5  O   UNL     1      -1.063  -1.595  -1.865  0.00  0.00    -0.274 OA
ATOM      6  C   UNL     1      -3.249  -1.704  -1.012  0.00  0.00    +0.144 C 
ATOM      7  C   UNL     1      -3.426  -3.091  -1.535  0.00  0.00    -0.008 C 
ATOM      8  C   UNL     1      -4.381  -3.892  -1.058  0.00  0.00    -0.003 C 
ATOM      9  C   UNL     1      -5.257  -3.466  -0.032  0.00  0.00    +0.001 C 
ATOM     10  C   UNL     1      -5.021  -2.317   0.655  0.00  0.00    +0.022 C 
ATOM     11  C   UNL     1      -3.896  -1.548   0.331  0.00  0.00    +0.051 C 
ATOM     12  N   UNL     1      -3.377  -0.744   1.233  0.00  0.00    -0.166 NA
ATOM     13  C   UNL     1      -2.189  -0.159   1.052  0.00  0.00    +0.333 C 
ATOM     14  O   UNL     1      -1.829   0.697   1.838  0.00  0.00    -0.250 OA
ENDBRANCH   2   3
BRANCH   2  15
ATOM     15  C   UNL     1       0.727  -0.491   1.229  0.00  0.00    +0.259 C 
ATOM     16  O   UNL     1       0.150  -1.196   2.034  0.00  0.00    -0.272 OA
BRANCH  15  17
ATOM     17  N   UNL     1       2.001  -0.166   1.423  0.00  0.00    -0.155 NA
ATOM     18  C   UNL     1       2.615  -0.523   2.549  0.00  0.00    +0.164 A 
ATOM     19  N   UNL     1       2.135  -1.309   3.545  0.00  0.00    -0.335 N 
ATOM     20  H   UNL     1       1.242  -1.683   3.483  0.00  0.00    +0.168 HD
ATOM     21  C   UNL     1       2.921  -1.576   4.650  0.00  0.00    +0.055 A 
ATOM     22  C   UNL     1       2.627  -2.352   5.780  0.00  0.00    +0.027 A 
ATOM     23  C   UNL     1       3.551  -2.501   6.787  0.00  0.00    +0.002 A 
ATOM     24  C   UNL     1       4.793  -1.891   6.717  0.00  0.00    +0.001 A 
ATOM     25  C   UNL     1       5.108  -1.120   5.612  0.00  0.00    +0.017 A 
ATOM     26  C   UNL     1       4.185  -0.971   4.604  0.00  0.00    +0.039 A 
ATOM     27  S   UNL     1       4.163  -0.109   3.054  0.00  0.00    -0.052 S 
ENDBRANCH  15  17
ENDBRANCH   2  15
TORSDOF 3
