REMARK  Name = ZINC14475973
REMARK  7 active torsions:
REMARK  status: ('A' for Active; 'I' for Inactive)
REMARK    1  A    between atoms: C_1  and  C_2
REMARK    2  A    between atoms: C_2  and  C_4
REMARK    3  A    between atoms: C_2  and  N_10
REMARK    4  A    between atoms: C_11  and  C_13
REMARK    5  A    between atoms: C_20  and  C_29
REMARK    6  A    between atoms: C_31  and  N_36
REMARK    7  A    between atoms: C_34  and  O_35
REMARK                            x       y       z     vdW  Elec       q    Type
REMARK                         _______ _______ _______ _____ _____    ______ ____
ROOT
ATOM      1  C   UNL     1       0.696  -1.084  -3.571  0.00  0.00    +0.058 A 
ATOM      2  C   UNL     1       2.075  -1.303  -3.550  0.00  0.00    +0.015 A 
ATOM      3  C   UNL     1       2.720  -1.746  -4.684  0.00  0.00    +0.001 A 
ATOM      4  C   UNL     1       2.005  -1.967  -5.851  0.00  0.00    +0.006 A 
ATOM      5  C   UNL     1       0.646  -1.752  -5.893  0.00  0.00    -0.019 A 
ATOM      6  C   UNL     1      -0.033  -1.321  -4.747  0.00  0.00    +0.044 A 
ATOM      7  N   UNL     1      -1.413  -1.139  -4.741  0.00  0.00    -0.336 N 
ATOM      8  C   UNL     1      -2.224  -1.364  -5.957  0.00  0.00    +0.108 C 
ATOM      9  C   UNL     1      -1.551  -2.510  -6.692  0.00  0.00    +0.029 C 
ATOM     10  C   UNL     1      -0.152  -1.953  -7.122  0.00  0.00    +0.049 C 
ATOM     11  C   UNL     1       0.269  -2.896  -8.189  0.00  0.00    -0.023 C 
ATOM     12  C   UNL     1      -0.818  -3.385  -8.774  0.00  0.00    -0.030 C 
ATOM     13  C   UNL     1      -2.091  -2.861  -8.085  0.00  0.00    +0.033 C 
ATOM     14  H   UNL     1      -1.852  -0.858  -3.923  0.00  0.00    +0.147 HD
ENDROOT
BRANCH   8  15
ATOM     15  C   UNL     1      -2.231  -0.125  -6.815  0.00  0.00    +0.017 A 
ATOM     16  C   UNL     1      -1.189   0.779  -6.733  0.00  0.00    +0.041 A 
ATOM     17  C   UNL     1      -1.195   1.916  -7.519  0.00  0.00    +0.127 A 
ATOM     18  C   UNL     1      -2.243   2.152  -8.390  0.00  0.00    +0.036 A 
ATOM     19  C   UNL     1      -3.287   1.251  -8.476  0.00  0.00    +0.048 A 
ATOM     20  C   UNL     1      -3.281   0.106  -7.692  0.00  0.00    +0.122 A 
BRANCH  17  21
ATOM     21  N   UNL     1      -0.078   2.883  -7.429  0.00  0.00    +0.056 N 
ATOM     22  O   UNL     1       0.839   2.678  -6.668  0.00  0.00    -0.126 OA
ATOM     23  O   UNL     1      -0.082   3.877  -8.116  0.00  0.00    -0.126 OA
ENDBRANCH  17  21
BRANCH  20  24
ATOM     24  O   UNL     1      -4.304  -0.783  -7.778  0.00  0.00    -0.506 OA
ATOM     25  H   UNL     1      -5.034  -0.605  -7.169  0.00  0.00    +0.292 HD
ENDBRANCH  20  24
ENDBRANCH   8  15
BRANCH   1  27
ATOM     26  N   UNL     1       0.680  -0.507  -1.196  0.00  0.00    -0.305 N 
ATOM     27  C   UNL     1       0.006  -0.608  -2.358  0.00  0.00    +0.246 C 
ATOM     28  O   UNL     1      -1.171  -0.307  -2.407  0.00  0.00    -0.270 OA
ATOM     29  H   UNL     1       1.619  -0.747  -1.157  0.00  0.00    +0.150 HD
BRANCH  26  31
ATOM     30  C   UNL     1       0.008   1.495   0.038  0.00  0.00    +0.033 C 
ATOM     31  C   UNL     1      -0.006  -0.034   0.009  0.00  0.00    +0.100 C 
BRANCH  31  32
ATOM     32  C   UNL     1       0.701  -0.566   1.230  0.00  0.00    -0.027 A 
ATOM     33  C   UNL     1       2.082  -0.608   1.266  0.00  0.00    +0.005 A 
ATOM     34  C   UNL     1       2.730  -1.095   2.385  0.00  0.00    +0.000 A 
ATOM     35  C   UNL     1       1.997  -1.540   3.470  0.00  0.00    +0.000 A 
ATOM     36  C   UNL     1       0.616  -1.497   3.434  0.00  0.00    +0.000 A 
ATOM     37  C   UNL     1      -0.032  -1.005   2.316  0.00  0.00    +0.005 A 
ENDBRANCH  31  32
ENDBRANCH  26  31
ENDBRANCH   1  27
TORSDOF 6
