REMARK  Name = ZINC39532678
REMARK  11 active torsions:
REMARK  status: ('A' for Active; 'I' for Inactive)
REMARK    1  A    between atoms: C_1  and  C_2
REMARK    2  A    between atoms: C_2  and  C_3
REMARK    3  A    between atoms: C_3  and  C_4
REMARK    4  A    between atoms: C_7  and  C_10
REMARK    5  A    between atoms: C_10  and  C_12
REMARK    6  A    between atoms: C_10  and  N_23
REMARK    7  A    between atoms: C_12  and  N_13
REMARK    8  A    between atoms: N_13  and  S_14
REMARK    9  A    between atoms: S_14  and  C_17
REMARK   10  A    between atoms: C_27  and  C_30
REMARK   11  A    between atoms: C_35  and  O_36
REMARK                            x       y       z     vdW  Elec       q    Type
REMARK                         _______ _______ _______ _____ _____    ______ ____
ROOT
ATOM      1  C   UNL     1       0.797  -6.276  -1.289  0.00  0.00    +0.102 C 
ENDROOT
BRANCH   1   2
ATOM      2  N   UNL     1      -0.532  -6.786  -0.926  0.00  0.00    -0.297 NA
ATOM      3  C   UNL     1      -1.537  -6.396  -1.925  0.00  0.00    +0.066 C 
ATOM      4  C   UNL     1      -2.892  -6.996  -1.543  0.00  0.00    -0.066 C 
ATOM      5  N   UNL     1      -3.284  -6.511  -0.213  0.00  0.00    +0.385 N 
ATOM      6  C   UNL     1      -2.284  -6.929   0.777  0.00  0.00    -0.023 C 
ATOM      7  C   UNL     1      -0.924  -6.328   0.414  0.00  0.00    +0.074 C 
ATOM      8  H   UNL     1      -3.343  -5.503  -0.227  0.00  0.00    -0.085 HD
ATOM      9  H   UNL     1      -4.184  -6.896   0.033  0.00  0.00    -0.085 HD
BRANCH   6  10
ATOM     10  C   UNL     1      -2.698  -6.445   2.144  0.00  0.00    -0.019 A 
ATOM     11  C   UNL     1      -3.607  -5.412   2.265  0.00  0.00    +0.005 A 
ATOM     12  C   UNL     1      -3.987  -4.968   3.518  0.00  0.00    +0.000 A 
ATOM     13  C   UNL     1      -3.458  -5.556   4.652  0.00  0.00    +0.004 A 
ATOM     14  C   UNL     1      -2.549  -6.590   4.536  0.00  0.00    +0.045 A 
ATOM     15  C   UNL     1      -2.170  -7.041   3.280  0.00  0.00    +0.118 A 
BRANCH  15  16
ATOM     16  O   UNL     1      -1.280  -8.061   3.163  0.00  0.00    -0.507 OA
ATOM     17  H   UNL     1      -0.357  -7.776   3.124  0.00  0.00    +0.292 HD
ENDBRANCH  15  16
ENDBRANCH   6  10
ENDBRANCH   1   2
BRANCH   1  21
ATOM     18  C   UNL     1       0.642  -2.020  -1.627  0.00  0.00    -0.047 A 
ATOM     19  C   UNL     1       0.029  -2.812  -2.580  0.00  0.00    +0.004 A 
ATOM     20  C   UNL     1       0.079  -4.189  -2.470  0.00  0.00    +0.005 A 
ATOM     21  C   UNL     1       0.743  -4.774  -1.409  0.00  0.00    -0.029 A 
ATOM     22  C   UNL     1       1.357  -3.983  -0.456  0.00  0.00    +0.005 A 
ATOM     23  C   UNL     1       1.310  -2.606  -0.567  0.00  0.00    +0.004 A 
BRANCH  18  24
ATOM     24  C   UNL     1       0.587  -0.519  -1.745  0.00  0.00    +0.035 C 
BRANCH  24  26
ATOM     25  C   UNL     1       1.729   1.496  -2.683  0.00  0.00    +0.004 C 
ATOM     26  C   UNL     1       1.784  -0.028  -2.562  0.00  0.00    +0.001 C 
ENDBRANCH  24  26
ENDBRANCH  18  24
ENDBRANCH   1  21
BRANCH   1  27
ATOM     27  C   UNL     1       1.227  -6.879  -2.628  0.00  0.00    +0.129 C 
BRANCH  27  28
ATOM     28  N   UNL     1       1.164  -8.340  -2.548  0.00  0.00    -0.188 NA
ATOM     29  H   UNL     1       1.096  -8.776  -1.684  0.00  0.00    +0.148 HD
BRANCH  28  30
ATOM     30  S   UNL     1       1.210  -9.248  -3.932  0.00  0.00    +0.058 S 
ATOM     31  O   UNL     1       1.160 -10.609  -3.527  0.00  0.00    -0.153 OA
ATOM     32  O   UNL     1       0.258  -8.682  -4.821  0.00  0.00    -0.153 OA
BRANCH  30  33
ATOM     33  C   UNL     1       2.793  -8.999  -4.665  0.00  0.00    +0.105 A 
ATOM     34  C   UNL     1       2.982  -7.972  -5.571  0.00  0.00    +0.028 A 
ATOM     35  C   UNL     1       4.223  -7.777  -6.146  0.00  0.00    +0.002 A 
ATOM     36  C   UNL     1       5.277  -8.609  -5.816  0.00  0.00    +0.000 A 
ATOM     37  C   UNL     1       5.088  -9.636  -4.910  0.00  0.00    +0.002 A 
ATOM     38  C   UNL     1       3.848  -9.828  -4.331  0.00  0.00    +0.028 A 
ENDBRANCH  30  33
ENDBRANCH  28  30
ENDBRANCH  27  28
ENDBRANCH   1  27
TORSDOF 10
