REMARK  Name = ZINC59501520
REMARK  7 active torsions:
REMARK  status: ('A' for Active; 'I' for Inactive)
REMARK    1  A    between atoms: C_1  and  C_2
REMARK    2  A    between atoms: C_7  and  C_8
REMARK    3  A    between atoms: N_10  and  C_12
REMARK    4  A    between atoms: C_16  and  C_18
REMARK    5  A    between atoms: N_20  and  N_21
REMARK    6  A    between atoms: C_22  and  C_23
REMARK    7  A    between atoms: C_26  and  N_29
REMARK                            x       y       z     vdW  Elec       q    Type
REMARK                         _______ _______ _______ _____ _____    ______ ____
ROOT
ATOM      1  C   UNL     1       0.068  -5.612  -2.479  0.00  0.00    +0.031 A 
ATOM      2  C   UNL     1       0.082  -6.820  -1.791  0.00  0.00    +0.023 A 
ATOM      3  C   UNL     1       0.095  -8.016  -2.485  0.00  0.00    +0.003 A 
ATOM      4  C   UNL     1       0.094  -8.019  -3.865  0.00  0.00    +0.013 A 
ATOM      5  C   UNL     1       0.080  -6.811  -4.565  0.00  0.00    +0.040 A 
ATOM      6  C   UNL     1       0.061  -5.604  -3.865  0.00  0.00    +0.036 A 
ENDROOT
BRANCH   1  16
ATOM      7  C   UNL     1      -0.018   1.503   0.010  0.00  0.00    +0.044 C 
ATOM      8  C   UNL     1       0.002  -0.004   0.002  0.00  0.00    -0.047 A 
ATOM      9  C   UNL     1       0.006  -0.689  -1.198  0.00  0.00    +0.009 A 
ATOM     10  C   UNL     1       0.025  -2.073  -1.208  0.00  0.00    -0.025 A 
ATOM     11  C   UNL     1       0.040  -2.770  -0.016  0.00  0.00    -0.025 A 
ATOM     12  C   UNL     1       0.037  -2.084   1.186  0.00  0.00    +0.009 A 
ATOM     13  C   UNL     1       0.023  -0.702   1.195  0.00  0.00    -0.047 A 
ATOM     14  C   UNL     1       0.025   0.044   2.505  0.00  0.00    +0.044 C 
ATOM     15  C   UNL     1       0.059  -4.247  -0.316  0.00  0.00    +0.141 C 
ATOM     16  N   UNL     1       0.054  -4.407  -1.774  0.00  0.00    -0.321 N 
ATOM     17  C   UNL     1       0.033  -3.058  -2.349  0.00  0.00    +0.141 C 
ENDBRANCH   1  16
BRANCH   5  18
ATOM     18  C   UNL     1       0.080  -6.811  -6.043  0.00  0.00    +0.263 C 
ATOM     19  O   UNL     1       0.068  -5.759  -6.651  0.00  0.00    -0.268 OA
ATOM     20  N   UNL     1       0.093  -7.979  -6.717  0.00  0.00    -0.203 N 
ATOM     21  H   UNL     1       0.103  -8.819  -6.232  0.00  0.00    +0.178 HD
BRANCH  20  22
ATOM     22  N   UNL     1       0.093  -7.979  -8.118  0.00  0.00    -0.187 NA
ATOM     23  C   UNL     1       0.106  -9.103  -8.767  0.00  0.00    +0.138 C 
BRANCH  23  24
ATOM     24  C   UNL     1       0.106  -9.103 -10.242  0.00  0.00    -0.005 A 
ATOM     25  C   UNL     1       0.098  -7.895 -10.943  0.00  0.00    +0.012 A 
ATOM     26  C   UNL     1       0.098  -7.903 -12.323  0.00  0.00    +0.033 A 
ATOM     27  C   UNL     1       0.105  -9.104 -13.011  0.00  0.00    +0.126 A 
ATOM     28  C   UNL     1       0.113 -10.304 -12.322  0.00  0.00    +0.033 A 
ATOM     29  C   UNL     1       0.119 -10.311 -10.943  0.00  0.00    +0.012 A 
BRANCH  27  30
ATOM     30  N   UNL     1       0.104  -9.104 -14.491  0.00  0.00    +0.056 N 
ATOM     31  O   UNL     1       0.097  -8.057 -15.096  0.00  0.00    -0.126 OA
ATOM     32  O   UNL     1       0.111 -10.151 -15.096  0.00  0.00    -0.126 OA
ENDBRANCH  27  30
ENDBRANCH  23  24
ENDBRANCH  20  22
ENDBRANCH   5  18
TORSDOF 5
