REMARK  Name = ZINC64613003
REMARK  5 active torsions:
REMARK  status: ('A' for Active; 'I' for Inactive)
REMARK    1  A    between atoms: C_6  and  C_7
REMARK    2  A    between atoms: C_10  and  C_13
REMARK    3  A    between atoms: C_15  and  S_19
REMARK    4  A    between atoms: S_19  and  N_22
REMARK    5  A    between atoms: N_25  and  C_28
REMARK                            x       y       z     vdW  Elec       q    Type
REMARK                         _______ _______ _______ _____ _____    ______ ____
ROOT
ATOM      1  C   UNL     1      -3.054  -3.288  -1.213  0.00  0.00    +0.099 C 
ATOM      2  C   UNL     1      -3.642  -4.479  -1.191  0.00  0.00    +0.035 C 
ATOM      3  C   UNL     1      -3.797  -4.872  -2.648  0.00  0.00    +0.214 C 
ATOM      4  C   UNL     1      -3.194  -3.690  -3.382  0.00  0.00    +0.116 C 
ATOM      5  N   UNL     1      -2.814  -2.857  -2.474  0.00  0.00    -0.257 NA
ENDROOT
BRANCH   1   9
ATOM      6  C   UNL     1      -1.219  -0.805   0.021  0.00  0.00    +0.239 C 
ATOM      7  N   UNL     1      -2.380  -0.238   0.026  0.00  0.00    -0.145 NA
ATOM      8  N   UNL     1      -3.395  -1.205   0.027  0.00  0.00    -0.223 N 
ATOM      9  C   UNL     1      -2.699  -2.504   0.024  0.00  0.00    +0.327 C 
ATOM     10  O   UNL     1      -1.307  -2.157   0.014  0.00  0.00    -0.446 OA
ATOM     11  H   UNL     1      -4.353  -1.052   0.031  0.00  0.00    +0.172 HD
BRANCH   6  17
ATOM     12  C   UNL     1       0.059   1.332   0.025  0.00  0.00    +0.016 A 
ATOM     13  C   UNL     1       1.255   2.019   0.022  0.00  0.00    +0.039 A 
ATOM     14  C   UNL     1       2.455   1.326   0.011  0.00  0.00    +0.123 A 
ATOM     15  C   UNL     1       2.461  -0.060   0.004  0.00  0.00    +0.039 A 
ATOM     16  C   UNL     1       1.271  -0.757   0.007  0.00  0.00    +0.016 A 
ATOM     17  C   UNL     1       0.059  -0.064   0.018  0.00  0.00    +0.038 A 
ATOM     18  F   UNL     1       3.624   2.004   0.008  0.00  0.00    -0.205 F 
ENDBRANCH   6  17
ENDBRANCH   1   9
BRANCH   3  19
ATOM     19  S   UNL     1      -5.548  -5.074  -3.076  0.00  0.00    +0.043 S 
ATOM     20  O   UNL     1      -6.090  -6.202  -2.403  0.00  0.00    -0.157 OA
ATOM     21  O   UNL     1      -6.211  -3.818  -3.033  0.00  0.00    -0.157 OA
BRANCH  19  22
ATOM     22  N   UNL     1      -5.549  -5.497  -4.677  0.00  0.00    -0.177 NA
ATOM     23  C   UNL     1      -5.606  -4.466  -5.723  0.00  0.00    +0.128 C 
ATOM     24  C   UNL     1      -4.413  -4.661  -6.668  0.00  0.00    +0.122 C 
ATOM     25  N   UNL     1      -4.357  -6.074  -7.068  0.00  0.00    -0.327 N 
ATOM     26  C   UNL     1      -4.301  -7.105  -6.022  0.00  0.00    +0.122 C 
ATOM     27  C   UNL     1      -5.487  -6.910  -5.078  0.00  0.00    +0.128 C 
BRANCH  25  28
ATOM     28  C   UNL     1      -4.358  -6.431  -8.419  0.00  0.00    +0.030 A 
ATOM     29  C   UNL     1      -4.527  -5.458  -9.396  0.00  0.00    +0.024 A 
ATOM     30  C   UNL     1      -4.527  -5.814 -10.730  0.00  0.00    +0.022 A 
ATOM     31  C   UNL     1      -4.359  -7.138 -11.095  0.00  0.00    +0.041 A 
ATOM     32  C   UNL     1      -4.189  -8.109 -10.124  0.00  0.00    +0.022 A 
ATOM     33  C   UNL     1      -4.183  -7.759  -8.788  0.00  0.00    +0.024 A 
ATOM     34 CL   UNL     1      -4.360  -7.581 -12.773  0.00  0.00    -0.084 Cl
ENDBRANCH  25  28
ENDBRANCH  19  22
ENDBRANCH   3  19
TORSDOF 5
