REMARK  Name = ZINC08762943
REMARK  10 active torsions:
REMARK  status: ('A' for Active; 'I' for Inactive)
REMARK    1  A    between atoms: C_1  and  C_2
REMARK    2  A    between atoms: C_8  and  C_39
REMARK    3  A    between atoms: C_9  and  O_38
REMARK    4  A    between atoms: C_19  and  C_21
REMARK    5  A    between atoms: C_21  and  N_22
REMARK    6  A    between atoms: C_27  and  O_36
REMARK    7  A    between atoms: C_28  and  O_34
REMARK    8  A    between atoms: C_31  and  C_33
REMARK    9  A    between atoms: O_34  and  C_35
REMARK   10  A    between atoms: O_36  and  C_37
REMARK                            x       y       z     vdW  Elec       q    Type
REMARK                         _______ _______ _______ _____ _____    ______ ____
ROOT
ATOM      1  C   UNL     1      -0.019   1.526   0.010  0.00  0.00    +0.008 C 
ATOM      2  C   UNL     1       0.002  -0.004   0.002  0.00  0.00    -0.001 C 
ATOM      3  C   UNL     1       0.695  -0.482  -1.274  0.00  0.00    +0.008 C 
ATOM      4  C   UNL     1       0.625  -2.013  -1.312  0.00  0.00    +0.027 C 
ATOM      5  C   UNL     1       1.249  -2.550  -0.056  0.00  0.00    -0.027 C 
ATOM      6  C   UNL     1       1.296  -1.880   1.058  0.00  0.00    -0.061 C 
ATOM      7  C   UNL     1       0.743  -0.495   1.243  0.00  0.00    +0.018 C 
ATOM      8  C   UNL     1      -0.203  -0.493   2.439  0.00  0.00    +0.132 C 
ATOM      9  C   UNL     1       0.269  -1.233   3.654  0.00  0.00    +0.071 C 
ATOM     10  C   UNL     1       0.935  -2.595   3.411  0.00  0.00    +0.187 C 
ATOM     11  C   UNL     1       1.945  -2.531   2.262  0.00  0.00    +0.076 C 
ATOM     12  O   UNL     1       1.725  -2.772   4.620  0.00  0.00    -0.460 OA
ATOM     13  C   UNL     1       2.276  -1.575   4.915  0.00  0.00    +0.309 C 
ATOM     14  O   UNL     1       3.375  -1.390   5.378  0.00  0.00    -0.251 OA
ATOM     15  C   UNL     1       1.262  -0.496   4.558  0.00  0.00    +0.090 C 
ATOM     16  C   UNL     1       1.901   0.475   1.494  0.00  0.00    +0.018 C 
ENDROOT
BRANCH   8  17
ATOM     17  O   UNL     1      -1.463  -1.054   2.043  0.00  0.00    -0.391 OA
ATOM     18  H   UNL     1      -2.119  -1.087   2.752  0.00  0.00    +0.210 HD
ENDBRANCH   8  17
BRANCH  15  19
ATOM     19  C   UNL     1       0.561   0.005   5.828  0.00  0.00    -0.063 C 
BRANCH  19  20
ATOM     20  N   UNL     1       1.500   0.810   6.621  0.00  0.00    +0.385 N 
ATOM     21  C   UNL     1       1.854   2.029   5.878  0.00  0.00    -0.073 C 
ATOM     22  C   UNL     1       3.048   2.690   6.567  0.00  0.00    +0.017 C 
ATOM     23  C   UNL     1       2.767   2.844   8.040  0.00  0.00    -0.044 A 
ATOM     24  C   UNL     1       3.553   3.716   8.778  0.00  0.00    +0.053 A 
ATOM     25  C   UNL     1       3.330   3.882  10.133  0.00  0.00    +0.162 A 
ATOM     26  C   UNL     1       2.310   3.169  10.756  0.00  0.00    +0.162 A 
ATOM     27  C   UNL     1       1.527   2.301  10.015  0.00  0.00    +0.051 A 
ATOM     28  C   UNL     1       1.754   2.139   8.656  0.00  0.00    -0.054 A 
ATOM     29  C   UNL     1       0.871   1.189   7.889  0.00  0.00    -0.040 C 
ATOM     30  C   UNL     1       0.632  -0.067   8.730  0.00  0.00    -0.008 C 
ATOM     31  H   UNL     1       2.333   0.271   6.806  0.00  0.00    -0.081 HD
BRANCH  26  32
ATOM     32  O   UNL     1       2.083   3.324  12.088  0.00  0.00    -0.491 OA
ATOM     33  C   UNL     1       1.020   2.559  12.659  0.00  0.00    +0.277 C 
ENDBRANCH  26  32
BRANCH  25  34
ATOM     34  O   UNL     1       4.103   4.738  10.853  0.00  0.00    -0.491 OA
ATOM     35  C   UNL     1       5.131   5.435  10.146  0.00  0.00    +0.277 C 
ENDBRANCH  25  34
ENDBRANCH  19  20
ENDBRANCH  15  19
TORSDOF 5
