REMARK  Name = ZINC16990021
REMARK  5 active torsions:
REMARK  status: ('A' for Active; 'I' for Inactive)
REMARK    1  A    between atoms: C_1  and  C_2
REMARK    2  A    between atoms: C_6  and  C_9
REMARK    3  A    between atoms: C_7  and  O_8
REMARK    4  A    between atoms: N_11  and  N_12
REMARK    5  A    between atoms: C_17  and  C_20
REMARK                            x       y       z     vdW  Elec       q    Type
REMARK                         _______ _______ _______ _____ _____    ______ ____
ROOT
ATOM      1  C   UNL     1       1.147   1.655   0.003  0.00  0.00    +0.267 C 
ATOM      2  O   UNL     1       1.131   2.871   0.007  0.00  0.00    -0.268 OA
ATOM      3  N   UNL     1      -0.011   0.966   0.010  0.00  0.00    -0.203 N 
ATOM      4  H   UNL     1       0.002  -0.004   0.007  0.00  0.00    +0.178 HD
ENDROOT
BRANCH   3   5
ATOM      5  N   UNL     1      -1.234   1.650   0.017  0.00  0.00    -0.189 NA
ATOM      6  C   UNL     1      -2.332   0.999  -0.078  0.00  0.00    +0.037 C 
ATOM      7  C   UNL     1      -3.656   1.723  -0.183  0.00  0.00    +0.052 C 
ATOM      8  C   UNL     1      -4.421   1.167  -1.388  0.00  0.00    +0.006 C 
ATOM      9  C   UNL     1      -4.542  -0.352  -1.257  0.00  0.00    +0.004 C 
ATOM     10  C   UNL     1      -3.152  -0.989  -1.298  0.00  0.00    -0.009 C 
ATOM     11  C   UNL     1      -2.338  -0.514  -0.095  0.00  0.00    +0.055 C 
ATOM     12  C   UNL     1      -3.286  -2.512  -1.256  0.00  0.00    +0.008 C 
ENDBRANCH   3   5
BRANCH   1  18
ATOM     13  C   UNL     1       6.146   1.721  -0.038  0.00  0.00    +0.047 C 
ATOM     14  C   UNL     1       4.845   0.960  -0.030  0.00  0.00    -0.008 A 
ATOM     15  C   UNL     1       4.854  -0.421  -0.035  0.00  0.00    +0.007 A 
ATOM     16  C   UNL     1       3.663  -1.129  -0.027  0.00  0.00    +0.001 A 
ATOM     17  C   UNL     1       2.457  -0.462  -0.015  0.00  0.00    +0.017 A 
ATOM     18  C   UNL     1       2.434   0.935  -0.010  0.00  0.00    +0.080 A 
ATOM     19  C   UNL     1       3.641   1.648  -0.024  0.00  0.00    +0.132 A 
BRANCH  19  20
ATOM     20  O   UNL     1       3.631   3.005  -0.025  0.00  0.00    -0.506 OA
ATOM     21  H   UNL     1       3.638   3.398   0.859  0.00  0.00    +0.292 HD
ENDBRANCH  19  20
ENDBRANCH   1  18
TORSDOF 3
