REMARK  Name = ZINC04132879
REMARK  18 active torsions:
REMARK  status: ('A' for Active; 'I' for Inactive)
REMARK    1  A    between atoms: C_1  and  C_2
REMARK    2  A    between atoms: C_2  and  N_66
REMARK    3  A    between atoms: C_3  and  C_4
REMARK    4  A    between atoms: C_3  and  N_66
REMARK    5  A    between atoms: C_5  and  C_6
REMARK    6  A    between atoms: C_5  and  N_66
REMARK    7  A    between atoms: C_6  and  C_7
REMARK    8  A    between atoms: C_7  and  N_8
REMARK    9  A    between atoms: N_8  and  C_9
REMARK   10  A    between atoms: C_9  and  N_11
REMARK   11  A    between atoms: N_11  and  C_12
REMARK   12  A    between atoms: N_11  and  C_16
REMARK   13  A    between atoms: C_12  and  C_13
REMARK   14  A    between atoms: C_13  and  C_14
REMARK   15  A    between atoms: C_14  and  O_15
REMARK   16  A    between atoms: C_16  and  C_17
REMARK   17  A    between atoms: C_20  and  C_30
REMARK   18  A    between atoms: C_23  and  C_29
REMARK                            x       y       z     vdW  Elec       q    Type
REMARK                         _______ _______ _______ _____ _____    ______ ____
ROOT
ATOM      1  N   UNL     1       1.311   4.085   1.395  0.00  0.00    -0.308 N 
ENDROOT
BRANCH   1   2
ATOM      2  C   UNL     1       0.214   4.334   2.138  0.00  0.00    +0.133 C 
ATOM      3  S   UNL     1      -1.344   4.096   1.469  0.00  0.00    -0.019 S 
BRANCH   2   4
ATOM      4  N   UNL     1       0.344   4.770   3.406  0.00  0.00    -0.326 N 
ATOM      5  H   UNL     1       1.227   4.904   3.785  0.00  0.00    +0.148 HD
BRANCH   4   6
ATOM      6  C   UNL     1      -0.849   5.040   4.213  0.00  0.00    +0.101 C 
BRANCH   6   7
ATOM      7  C   UNL     1      -0.425   5.519   5.604  0.00  0.00    +0.000 C 
BRANCH   7   8
ATOM      8  C   UNL     1      -1.671   5.802   6.447  0.00  0.00    -0.077 C 
BRANCH   8   9
ATOM      9  N   UNL     1      -1.246   6.125   7.825  0.00  0.00    +0.379 N 
ATOM     10  H   UNL     1      -0.496   5.481   8.102  0.00  0.00    -0.082 HD
BRANCH   9  12
ATOM     11  C   UNL     1      -0.100   7.744   9.256  0.00  0.00    -0.017 C 
ATOM     12  C   UNL     1      -0.736   7.511   7.884  0.00  0.00    -0.082 C 
ENDBRANCH   9  12
BRANCH   9  13
ATOM     13  C   UNL     1      -2.384   5.965   8.755  0.00  0.00    -0.082 C 
ATOM     14  C   UNL     1      -2.591   4.474   9.025  0.00  0.00    -0.017 C 
ENDBRANCH   9  13
ENDBRANCH   8   9
ENDBRANCH   7   8
ENDBRANCH   6   7
ENDBRANCH   4   6
ENDBRANCH   2   4
ENDBRANCH   1   2
BRANCH   1  15
ATOM     15  C   UNL     1       2.644   4.288   1.967  0.00  0.00    +0.109 C 
BRANCH  15  16
ATOM     16  C   UNL     1       3.101   5.723   1.698  0.00  0.00    +0.047 C 
BRANCH  16  17
ATOM     17  C   UNL     1       4.494   5.936   2.295  0.00  0.00    +0.157 C 
BRANCH  17  18
ATOM     18  O   UNL     1       4.920   7.276   2.044  0.00  0.00    -0.395 OA
ATOM     19  H   UNL     1       5.798   7.482   2.396  0.00  0.00    +0.209 HD
ENDBRANCH  17  18
ENDBRANCH  16  17
ENDBRANCH  15  16
ENDBRANCH   1  15
BRANCH   1  20
ATOM     20  C   UNL     1       1.170   3.611   0.016  0.00  0.00    +0.147 C 
BRANCH  20  21
ATOM     21  C   UNL     1       1.129   2.105   0.004  0.00  0.00    +0.035 A 
ATOM     22  C   UNL     1      -0.065   1.462   0.005  0.00  0.00    +0.020 A 
ATOM     23  C   UNL     1      -0.071  -0.003  -0.006  0.00  0.00    +0.002 A 
ATOM     24  C   UNL     1      -1.271  -0.722  -0.006  0.00  0.00    -0.041 A 
ATOM     25  C   UNL     1      -1.242  -2.087  -0.016  0.00  0.00    +0.004 A 
ATOM     26  C   UNL     1      -0.032  -2.768  -0.029  0.00  0.00    +0.005 A 
ATOM     27  C   UNL     1       1.162  -2.081  -0.030  0.00  0.00    -0.026 A 
ATOM     28  C   UNL     1       1.158  -0.689  -0.018  0.00  0.00    +0.052 A 
ATOM     29  N   UNL     1       2.337   0.024  -0.019  0.00  0.00    -0.322 N 
ATOM     30  H   UNL     1       3.209  -0.466  -0.028  0.00  0.00    +0.169 HD
ATOM     31  C   UNL     1       2.333   1.368  -0.009  0.00  0.00    +0.254 A 
ATOM     32  O   UNL     1       3.395   1.966  -0.011  0.00  0.00    -0.268 OA
ATOM     33  C   UNL     1       2.468  -2.833  -0.042  0.00  0.00    +0.046 C 
ATOM     34  C   UNL     1      -2.590   0.007   0.007  0.00  0.00    +0.044 C 
ENDBRANCH  20  21
ENDBRANCH   1  20
TORSDOF 14
