REMARK  Name = ZINC20135796
REMARK  7 active torsions:
REMARK  status: ('A' for Active; 'I' for Inactive)
REMARK    1  A    between atoms: C_1  and  C_2
REMARK    2  A    between atoms: C_3  and  N_9
REMARK    3  A    between atoms: C_4  and  C_8
REMARK    4  A    between atoms: N_5  and  C_7
REMARK    5  A    between atoms: N_9  and  C_10
REMARK    6  A    between atoms: C_10  and  C_12
REMARK    7  A    between atoms: C_10  and  C_13
REMARK                            x       y       z     vdW  Elec       q    Type
REMARK                         _______ _______ _______ _____ _____    ______ ____
ROOT
ATOM      1  C   UNL     1       2.337   0.965  -0.261  0.00  0.00    +0.098 C 
ATOM      2  C   UNL     1       2.648   0.796   1.228  0.00  0.00    +0.033 C 
ENDROOT
BRANCH   1   3
ATOM      3  C   UNL     1       1.036   1.709  -0.420  0.00  0.00    -0.026 A 
ATOM      4  C   UNL     1       1.010   3.087  -0.292  0.00  0.00    +0.007 A 
ATOM      5  C   UNL     1      -0.177   3.778  -0.436  0.00  0.00    +0.028 A 
ATOM      6  C   UNL     1      -1.348   3.088  -0.711  0.00  0.00    +0.067 A 
ATOM      7  C   UNL     1      -1.320   1.698  -0.846  0.00  0.00    +0.067 A 
ATOM      8  C   UNL     1      -0.124   1.013  -0.694  0.00  0.00    +0.033 A 
ATOM      9  N   UNL     1      -2.624   1.295  -1.124  0.00  0.00    -0.306 N 
ATOM     10  H   UNL     1      -2.851   0.228  -1.268  0.00  0.00    +0.170 HD
ATOM     11  C   UNL     1      -3.408   2.389  -1.161  0.00  0.00    +0.325 A 
ATOM     12  O   UNL     1      -4.605   2.387  -1.380  0.00  0.00    -0.247 OA
ATOM     13  N   UNL     1      -2.668   3.485  -0.908  0.00  0.00    -0.306 N 
ATOM     14  H   UNL     1      -2.938   4.550  -0.841  0.00  0.00    +0.170 HD
ENDBRANCH   1   3
BRANCH   1  15
ATOM     15  N   UNL     1       3.418   1.725  -0.904  0.00  0.00    -0.334 N 
ATOM     16  H   UNL     1       3.334   2.816  -1.012  0.00  0.00    +0.147 HD
BRANCH  15  19
ATOM     17  C   UNL     1       6.025   1.234   0.727  0.00  0.00    +0.069 C 
ATOM     18  C   UNL     1       5.649   0.627  -0.600  0.00  0.00    +0.081 A 
ATOM     19  C   UNL     1       4.463   0.872  -1.307  0.00  0.00    +0.071 A 
ATOM     20  C   UNL     1       4.499   0.137  -2.447  0.00  0.00    +0.057 A 
ATOM     21  N   UNL     1       5.676  -0.543  -2.460  0.00  0.00    -0.270 N 
ATOM     22  N   UNL     1       6.373  -0.218  -1.289  0.00  0.00    -0.175 NA
ATOM     23  C   UNL     1       6.133  -1.458  -3.509  0.00  0.00    +0.172 C 
ATOM     24  C   UNL     1       3.430   0.086  -3.508  0.00  0.00    +0.067 C 
ENDBRANCH  15  19
ENDBRANCH   1  15
TORSDOF 3
