REMARK  Name = ZINC50816284
REMARK  7 active torsions:
REMARK  status: ('A' for Active; 'I' for Inactive)
REMARK    1  A    between atoms: C_1  and  N_2
REMARK    2  A    between atoms: N_2  and  C_3
REMARK    3  A    between atoms: C_6  and  C_12
REMARK    4  A    between atoms: C_8  and  N_9
REMARK    5  A    between atoms: C_12  and  N_13
REMARK    6  A    between atoms: N_13  and  C_14
REMARK    7  A    between atoms: N_13  and  C_15
REMARK                            x       y       z     vdW  Elec       q    Type
REMARK                         _______ _______ _______ _____ _____    ______ ____
ROOT
ATOM      1  C   UNL     1      -1.198  -0.764   0.266  0.00  0.00    +0.057 A 
ATOM      2  C   UNL     1      -2.408  -0.090   0.379  0.00  0.00    +0.025 A 
ATOM      3  C   UNL     1      -3.592  -0.755   0.131  0.00  0.00    +0.007 A 
ATOM      4  C   UNL     1      -3.575  -2.090  -0.231  0.00  0.00    -0.028 A 
ATOM      5  C   UNL     1      -2.373  -2.763  -0.344  0.00  0.00    +0.039 A 
ATOM      6  C   UNL     1      -1.184  -2.103  -0.103  0.00  0.00    +0.147 A 
ENDROOT
BRANCH   1   8
ATOM      7  C   UNL     1      -0.003   1.348   0.772  0.00  0.00    +0.125 C 
ATOM      8  N   UNL     1       0.002  -0.095   0.516  0.00  0.00    -0.345 N 
ATOM      9  H   UNL     1       0.839  -0.585   0.520  0.00  0.00    +0.146 HD
ENDBRANCH   1   8
BRANCH   6  10
ATOM     10  N   UNL     1       0.102  -2.823  -0.230  0.00  0.00    +0.058 N 
ATOM     11  O   UNL     1       1.069  -2.258  -0.686  0.00  0.00    -0.126 OA
ATOM     12  O   UNL     1       0.187  -3.977   0.121  0.00  0.00    -0.126 OA
ENDBRANCH   6  10
BRANCH   4  13
ATOM     13  C   UNL     1      -4.870  -2.812  -0.501  0.00  0.00    +0.140 C 
BRANCH  13  14
ATOM     14  N   UNL     1      -5.213  -2.684  -1.920  0.00  0.00    -0.326 N 
ATOM     15  C   UNL     1      -4.739  -3.684  -2.881  0.00  0.00    +0.129 C 
BRANCH  14  16
ATOM     16  C   UNL     1      -5.993  -1.609  -2.357  0.00  0.00    +0.065 A 
ATOM     17  C   UNL     1      -5.385  -0.428  -2.762  0.00  0.00    +0.026 A 
ATOM     18  C   UNL     1      -6.158   0.632  -3.194  0.00  0.00    +0.002 A 
ATOM     19  C   UNL     1      -7.536   0.520  -3.223  0.00  0.00    +0.003 A 
ATOM     20  C   UNL     1      -8.146  -0.653  -2.819  0.00  0.00    +0.040 A 
ATOM     21  C   UNL     1      -7.379  -1.721  -2.392  0.00  0.00    +0.144 A 
ATOM     22  F   UNL     1      -7.974  -2.870  -2.003  0.00  0.00    -0.204 F 
ENDBRANCH  14  16
ENDBRANCH  13  14
ENDBRANCH   4  13
TORSDOF 5
