REMARK  Name = ZINC43563053
REMARK  8 active torsions:
REMARK  status: ('A' for Active; 'I' for Inactive)
REMARK    1  A    between atoms: C_1  and  C_2
REMARK    2  A    between atoms: C_5  and  C_8
REMARK    3  A    between atoms: C_10  and  C_13
REMARK    4  A    between atoms: C_13  and  N_14
REMARK    5  A    between atoms: C_17  and  C_22
REMARK    6  A    between atoms: C_22  and  C_23
REMARK    7  A    between atoms: C_23  and  S_24
REMARK    8  A    between atoms: S_24  and  C_25
REMARK                            x       y       z     vdW  Elec       q    Type
REMARK                         _______ _______ _______ _____ _____    ______ ____
ROOT
ATOM      1  C   UNL     1       0.101  -7.514   1.536  0.00  0.00    +0.176 C 
ENDROOT
BRANCH   1   2
ATOM      2  N   UNL     1       1.481  -7.817   1.923  0.00  0.00    -0.218 N 
ATOM      3  C   UNL     1       2.302  -8.628   1.227  0.00  0.00    +0.244 C 
ATOM      4  O   UNL     1       2.047  -9.224   0.202  0.00  0.00    -0.273 OA
ATOM      5  C   UNL     1       3.610  -8.642   1.993  0.00  0.00    +0.162 C 
ATOM      6  N   UNL     1       3.350  -7.753   3.138  0.00  0.00    -0.288 N 
ATOM      7  C   UNL     1       2.084  -7.316   3.007  0.00  0.00    +0.309 C 
ATOM      8  O   UNL     1       1.548  -6.556   3.788  0.00  0.00    -0.252 OA
ATOM      9  H   UNL     1       3.972  -7.524   3.847  0.00  0.00    +0.151 HD
BRANCH   5  10
ATOM     10  C   UNL     1       4.746  -8.092   1.127  0.00  0.00    +0.042 C 
BRANCH  10  11
ATOM     11  C   UNL     1       6.072  -8.233   1.877  0.00  0.00    +0.071 C 
BRANCH  11  12
ATOM     12  S   UNL     1       7.419  -7.581   0.851  0.00  0.00    -0.164 S 
ATOM     13  C   UNL     1       8.901  -7.818   1.870  0.00  0.00    +0.084 C 
ENDBRANCH  11  12
ENDBRANCH  10  11
ENDBRANCH   5  10
ENDBRANCH   1   2
BRANCH   1  16
ATOM     14  C   UNL     1       0.058  -4.251  -0.021  0.00  0.00    +0.227 A 
ATOM     15  N   UNL     1       0.068  -5.023   1.040  0.00  0.00    -0.212 NA
ATOM     16  C   UNL     1       0.085  -6.303   0.639  0.00  0.00    +0.098 A 
ATOM     17  C   UNL     1       0.085  -6.314  -0.707  0.00  0.00    +0.222 A 
ATOM     18  O   UNL     1       0.062  -5.030  -1.117  0.00  0.00    -0.443 OA
BRANCH  14  23
ATOM     19  C   UNL     1      -0.018   1.503   0.010  0.00  0.00    +0.044 C 
ATOM     20  C   UNL     1       0.002  -0.004   0.002  0.00  0.00    -0.050 A 
ATOM     21  C   UNL     1       0.006  -0.686  -1.202  0.00  0.00    +0.004 A 
ATOM     22  C   UNL     1       0.024  -2.066  -1.216  0.00  0.00    +0.013 A 
ATOM     23  C   UNL     1       0.039  -2.773  -0.013  0.00  0.00    +0.037 A 
ATOM     24  C   UNL     1       0.036  -2.079   1.198  0.00  0.00    +0.013 A 
ATOM     25  C   UNL     1       0.023  -0.699   1.198  0.00  0.00    +0.004 A 
ENDBRANCH  14  23
ENDBRANCH   1  16
TORSDOF 6
