REMARK  Name = ZINC03417724
REMARK  9 active torsions:
REMARK  status: ('A' for Active; 'I' for Inactive)
REMARK    1  A    between atoms: C_1  and  C_2
REMARK    2  A    between atoms: C_2  and  C_4
REMARK    3  A    between atoms: C_2  and  N_12
REMARK    4  A    between atoms: C_13  and  C_15
REMARK    5  A    between atoms: C_15  and  O_16
REMARK    6  A    between atoms: O_16  and  C_17
REMARK    7  A    between atoms: C_17  and  C_19
REMARK    8  A    between atoms: C_22  and  O_26
REMARK    9  A    between atoms: C_24  and  O_25
REMARK                            x       y       z     vdW  Elec       q    Type
REMARK                         _______ _______ _______ _____ _____    ______ ____
ROOT
ATOM      1  N   UNL     1      -2.362   5.198   0.638  0.00  0.00    -0.306 N 
ATOM      2  C   UNL     1      -3.371   5.790   1.306  0.00  0.00    +0.251 C 
ATOM      3  O   UNL     1      -4.438   5.224   1.419  0.00  0.00    -0.272 OA
ATOM      4  H   UNL     1      -1.509   5.651   0.547  0.00  0.00    +0.149 HD
ENDROOT
BRANCH   1   6
ATOM      5  C   UNL     1      -3.139   4.017  -1.358  0.00  0.00    +0.033 C 
ATOM      6  C   UNL     1      -2.553   3.871   0.048  0.00  0.00    +0.102 C 
BRANCH   6   7
ATOM      7  C   UNL     1      -1.226   3.161  -0.033  0.00  0.00    -0.009 A 
ATOM      8  C   UNL     1      -0.057   3.892  -0.134  0.00  0.00    +0.008 A 
ATOM      9  C   UNL     1       1.161   3.241  -0.208  0.00  0.00    +0.020 A 
ATOM     10  C   UNL     1       1.210   1.859  -0.179  0.00  0.00    +0.042 A 
ATOM     11  C   UNL     1       0.040   1.127  -0.077  0.00  0.00    +0.040 A 
ATOM     12  C   UNL     1      -1.178   1.779  -0.009  0.00  0.00    +0.047 A 
ATOM     13 CL   UNL     1      -2.647   0.862   0.111  0.00  0.00    -0.083 Cl
ATOM     14 CL   UNL     1       2.739   1.042  -0.271  0.00  0.00    -0.083 Cl
ENDBRANCH   6   7
ENDBRANCH   1   6
BRANCH   2  15
ATOM     15  C   UNL     1      -3.175   7.155   1.913  0.00  0.00    +0.328 C 
BRANCH  15  16
ATOM     16  O   UNL     1      -4.399   7.572   2.574  0.00  0.00    -0.452 OA
BRANCH  16  17
ATOM     17  C   UNL     1      -4.391   8.780   3.172  0.00  0.00    +0.343 C 
ATOM     18  O   UNL     1      -3.388   9.466   3.142  0.00  0.00    -0.245 OA
BRANCH  17  19
ATOM     19  C   UNL     1      -5.596   9.268   3.861  0.00  0.00    +0.100 A 
ATOM     20  C   UNL     1      -6.752   8.481   3.897  0.00  0.00    +0.022 A 
ATOM     21  C   UNL     1      -7.869   8.935   4.537  0.00  0.00    +0.046 A 
ATOM     22  C   UNL     1      -7.868  10.181   5.157  0.00  0.00    +0.120 A 
ATOM     23  C   UNL     1      -6.731  10.974   5.130  0.00  0.00    +0.091 A 
ATOM     24  C   UNL     1      -5.589  10.523   4.490  0.00  0.00    +0.134 A 
BRANCH  24  25
ATOM     25  O   UNL     1      -4.472  11.292   4.465  0.00  0.00    -0.506 OA
ATOM     26  H   UNL     1      -4.423  11.892   3.709  0.00  0.00    +0.292 HD
ENDBRANCH  24  25
BRANCH  22  27
ATOM     27  O   UNL     1      -8.984  10.621   5.791  0.00  0.00    -0.507 OA
ATOM     28  H   UNL     1      -9.029  10.375   6.725  0.00  0.00    +0.292 HD
ENDBRANCH  22  27
ENDBRANCH  17  19
ENDBRANCH  16  17
ENDBRANCH  15  16
ENDBRANCH   2  15
TORSDOF 8
