REMARK  Name = ZINC35747160
REMARK  12 active torsions:
REMARK  status: ('A' for Active; 'I' for Inactive)
REMARK    1  A    between atoms: C_2  and  C_3
REMARK    2  A    between atoms: C_3  and  O_4
REMARK    3  A    between atoms: O_4  and  C_5
REMARK    4  A    between atoms: C_5  and  C_6
REMARK    5  A    between atoms: C_6  and  C_8
REMARK    6  A    between atoms: C_6  and  O_35
REMARK    7  A    between atoms: C_8  and  N_9
REMARK    8  A    between atoms: N_9  and  C_10
REMARK    9  A    between atoms: N_9  and  C_16
REMARK   10  A    between atoms: C_10  and  C_11
REMARK   11  A    between atoms: C_16  and  C_17
REMARK   12  A    between atoms: C_23  and  C_28
REMARK                            x       y       z     vdW  Elec       q    Type
REMARK                         _______ _______ _______ _____ _____    ______ ____
ROOT
ATOM      1  C   UNL     1       4.661   6.941   0.730  0.00  0.00    -0.003 C 
ENDROOT
BRANCH   1   2
ATOM      2  C   UNL     1       3.974   7.138   2.056  0.00  0.00    +0.094 A 
ATOM      3  N   UNL     1       4.023   8.353   2.660  0.00  0.00    -0.312 N 
ATOM      4  H   UNL     1       4.500   9.079   2.228  0.00  0.00    +0.170 HD
ATOM      5  C   UNL     1       3.421   8.570   3.844  0.00  0.00    +0.260 A 
ATOM      6  O   UNL     1       3.474   9.668   4.372  0.00  0.00    -0.267 OA
ATOM      7  C   UNL     1       2.718   7.494   4.473  0.00  0.00    +0.080 A 
ATOM      8  C   UNL     1       1.995   7.480   5.739  0.00  0.00    +0.005 A 
ATOM      9  C   UNL     1       1.399   6.329   6.136  0.00  0.00    +0.056 A 
ATOM     10  S   UNL     1       1.780   5.191   4.818  0.00  0.00    -0.076 S 
ATOM     11  C   UNL     1       2.721   6.275   3.775  0.00  0.00    +0.116 A 
ATOM     12  N   UNL     1       3.336   6.138   2.603  0.00  0.00    -0.229 NA
BRANCH   8  13
ATOM     13  C   UNL     1       1.914   8.700   6.576  0.00  0.00    +0.002 A 
ATOM     14  C   UNL     1       2.518   8.729   7.832  0.00  0.00    +0.010 A 
ATOM     15  C   UNL     1       2.440   9.868   8.607  0.00  0.00    +0.001 A 
ATOM     16  C   UNL     1       1.762  10.980   8.141  0.00  0.00    +0.001 A 
ATOM     17  C   UNL     1       1.161  10.959   6.896  0.00  0.00    +0.020 A 
ATOM     18  C   UNL     1       1.237   9.827   6.108  0.00  0.00    +0.049 A 
ATOM     19 CL   UNL     1       0.487   9.803   4.543  0.00  0.00    -0.083 Cl
ENDBRANCH   8  13
ENDBRANCH   1   2
BRANCH   1  20
ATOM     20  N   UNL     1       4.346   5.604   0.209  0.00  0.00    +0.391 N 
ATOM     21  H   UNL     1       4.567   4.910   0.907  0.00  0.00    -0.080 HD
BRANCH  20  22
ATOM     22  C   UNL     1       2.917   5.531  -0.120  0.00  0.00    -0.044 C 
BRANCH  22  23
ATOM     23  C   UNL     1       2.550   4.091  -0.486  0.00  0.00    +0.124 C 
BRANCH  23  24
ATOM     24  O   UNL     1       3.172   3.741  -1.724  0.00  0.00    -0.391 OA
ATOM     25  H   UNL     1       2.910   4.301  -2.468  0.00  0.00    +0.210 HD
ENDBRANCH  23  24
BRANCH  23  26
ATOM     26  C   UNL     1       1.031   3.972  -0.627  0.00  0.00    +0.190 C 
BRANCH  26  27
ATOM     27  O   UNL     1       0.680   2.605  -0.854  0.00  0.00    -0.365 OA
BRANCH  27  28
ATOM     28  C   UNL     1      -0.724   2.382  -1.000  0.00  0.00    +0.248 C 
BRANCH  28  30
ATOM     29  C   UNL     1      -1.170  -0.193  -1.410  0.00  0.00    +0.006 C 
ATOM     30  C   UNL     1      -0.972   0.950  -1.228  0.00  0.00    -0.077 C 
ENDBRANCH  28  30
ENDBRANCH  27  28
ENDBRANCH  26  27
ENDBRANCH  23  26
ENDBRANCH  22  23
ENDBRANCH  20  22
BRANCH  20  31
ATOM     31  C   UNL     1       5.141   5.350  -1.001  0.00  0.00    -0.002 C 
BRANCH  31  32
ATOM     32  C   UNL     1       6.607   5.372  -0.653  0.00  0.00    +0.089 A 
ATOM     33  C   UNL     1       7.360   4.298  -0.354  0.00  0.00    +0.042 A 
ATOM     34  C   UNL     1       8.666   4.773  -0.095  0.00  0.00    +0.041 A 
ATOM     35  C   UNL     1       8.633   6.109  -0.250  0.00  0.00    +0.195 A 
ATOM     36  O   UNL     1       7.384   6.465  -0.594  0.00  0.00    -0.470 OA
ENDBRANCH  31  32
ENDBRANCH  20  31
ENDBRANCH   1  20
TORSDOF 12
