REMARK  Name = ZINC38742003
REMARK  7 active torsions:
REMARK  status: ('A' for Active; 'I' for Inactive)
REMARK    1  A    between atoms: C_1  and  C_2
REMARK    2  A    between atoms: C_4  and  C_8
REMARK    3  A    between atoms: C_14  and  C_17
REMARK    4  A    between atoms: C_20  and  O_25
REMARK    5  A    between atoms: C_22  and  O_23
REMARK    6  A    between atoms: O_23  and  C_24
REMARK    7  A    between atoms: O_25  and  C_26
REMARK                            x       y       z     vdW  Elec       q    Type
REMARK                         _______ _______ _______ _____ _____    ______ ____
ROOT
ATOM      1  C   UNL     1      -0.958  -2.939   1.229  0.00  0.00    +0.181 A 
ATOM      2  N   UNL     1      -0.480  -2.772   2.426  0.00  0.00    -0.129 NA
ATOM      3  N   UNL     1      -1.055  -3.579   3.248  0.00  0.00    -0.121 NA
ATOM      4  C   UNL     1      -1.913  -4.309   2.606  0.00  0.00    +0.211 A 
ATOM      5  N   UNL     1      -1.930  -3.922   1.290  0.00  0.00    -0.222 N 
ATOM      6  N   UNL     1      -2.814  -4.510   0.435  0.00  0.00    -0.263 N 
ATOM      7  C   UNL     1      -3.324  -5.836   0.873  0.00  0.00    +0.186 C 
ATOM      8  S   UNL     1      -3.108  -5.626   2.692  0.00  0.00    -0.056 S 
ATOM      9  H   UNL     1      -3.575  -3.885   0.215  0.00  0.00    +0.168 HD
ENDROOT
BRANCH   1  13
ATOM     10  C   UNL     1      -0.018   1.503   0.010  0.00  0.00    +0.067 C 
ATOM     11  C   UNL     1       0.002  -0.004   0.002  0.00  0.00    +0.059 C 
ATOM     12  C   UNL     1      -1.086  -0.777   0.003  0.00  0.00    +0.034 C 
ATOM     13  C   UNL     1      -0.531  -2.190  -0.007  0.00  0.00    +0.222 C 
ATOM     14  N   UNL     1       0.926  -1.973  -0.013  0.00  0.00    -0.172 NA
ATOM     15  N   UNL     1       1.125  -0.756  -0.013  0.00  0.00    -0.159 NA
ENDBRANCH   1  13
BRANCH   7  16
ATOM     16  C   UNL     1      -4.771  -6.026   0.498  0.00  0.00    +0.026 A 
ATOM     17  C   UNL     1      -5.359  -5.187  -0.430  0.00  0.00    +0.013 A 
ATOM     18  C   UNL     1      -6.685  -5.359  -0.776  0.00  0.00    +0.046 A 
ATOM     19  C   UNL     1      -7.431  -6.374  -0.193  0.00  0.00    +0.124 A 
ATOM     20  C   UNL     1      -6.843  -7.216   0.738  0.00  0.00    +0.091 A 
ATOM     21  C   UNL     1      -5.510  -7.046   1.080  0.00  0.00    +0.129 A 
BRANCH  21  22
ATOM     22  O   UNL     1      -4.929  -7.874   1.988  0.00  0.00    -0.495 OA
ATOM     23  C   UNL     1      -5.750  -8.901   2.546  0.00  0.00    +0.277 C 
ENDBRANCH  21  22
BRANCH  19  24
ATOM     24  O   UNL     1      -8.736  -6.541  -0.533  0.00  0.00    -0.495 OA
ATOM     25  C   UNL     1      -9.275  -5.637  -1.499  0.00  0.00    +0.277 C 
ENDBRANCH  19  24
ENDBRANCH   7  16
TORSDOF 4
