REMARK  Name = ZINC58987431
REMARK  5 active torsions:
REMARK  status: ('A' for Active; 'I' for Inactive)
REMARK    1  A    between atoms: C_4  and  O_17
REMARK    2  A    between atoms: C_5  and  N_7
REMARK    3  A    between atoms: C_8  and  C_10
REMARK    4  A    between atoms: C_11  and  C_12
REMARK    5  A    between atoms: O_17  and  C_18
REMARK                            x       y       z     vdW  Elec       q    Type
REMARK                         _______ _______ _______ _____ _____    ______ ____
ROOT
ATOM      1  C   UNL     1      -0.015   1.403   0.064  0.00  0.00    +0.002 A 
ATOM      2  C   UNL     1       1.153   2.143   0.059  0.00  0.00    +0.004 A 
ATOM      3  C   UNL     1       2.379   1.506   0.032  0.00  0.00    +0.048 A 
ATOM      4  C   UNL     1       2.441   0.121   0.008  0.00  0.00    +0.152 A 
ATOM      5  C   UNL     1       1.264  -0.625   0.013  0.00  0.00    +0.076 A 
ATOM      6  C   UNL     1       0.037   0.022   0.042  0.00  0.00    +0.027 A 
ENDROOT
BRANCH   5   7
ATOM      7  N   UNL     1       1.320  -2.023  -0.010  0.00  0.00    -0.279 N 
ATOM      8  C   UNL     1       0.371  -2.725  -0.661  0.00  0.00    +0.241 C 
ATOM      9  O   UNL     1      -0.476  -2.142  -1.314  0.00  0.00    -0.270 OA
ATOM     10  H   UNL     1       2.042  -2.488   0.441  0.00  0.00    +0.155 HD
BRANCH   8  11
ATOM     11  C   UNL     1       0.358  -4.138  -0.585  0.00  0.00    +0.071 C 
ATOM     12  C   UNL     1      -0.597  -4.843  -1.240  0.00  0.00    +0.051 C 
BRANCH  12  13
ATOM     13  C   UNL     1      -0.610  -6.257  -1.165  0.00  0.00    +0.128 A 
ATOM     14  C   UNL     1      -1.515  -7.096  -1.781  0.00  0.00    +0.049 A 
ATOM     15  C   UNL     1      -1.147  -8.405  -1.433  0.00  0.00    +0.042 A 
ATOM     16  C   UNL     1      -0.059  -8.316  -0.636  0.00  0.00    +0.195 A 
ATOM     17  O   UNL     1       0.264  -7.025  -0.481  0.00  0.00    -0.464 OA
ENDBRANCH  12  13
ENDBRANCH   8  11
ENDBRANCH   5   7
BRANCH   4  18
ATOM     18  O   UNL     1       3.647  -0.507  -0.020  0.00  0.00    -0.435 OA
BRANCH  18  19
ATOM     19  C   UNL     1       4.100  -0.961  -1.215  0.00  0.00    +0.239 A 
ATOM     20  C   UNL     1       5.370  -1.520  -1.302  0.00  0.00    +0.104 A 
ATOM     21  C   UNL     1       5.821  -1.980  -2.528  0.00  0.00    +0.047 A 
ATOM     22  C   UNL     1       4.981  -1.864  -3.628  0.00  0.00    +0.061 A 
ATOM     23  C   UNL     1       3.732  -1.297  -3.468  0.00  0.00    +0.134 A 
ATOM     24  N   UNL     1       3.328  -0.873  -2.285  0.00  0.00    -0.218 NA
ATOM     25 CL   UNL     1       5.497  -2.424  -5.189  0.00  0.00    -0.082 Cl
ATOM     26 CL   UNL     1       6.377  -1.640   0.107  0.00  0.00    -0.078 Cl
ENDBRANCH  18  19
ENDBRANCH   4  18
TORSDOF 5
