REMARK  Name = ZINC09312289
REMARK  9 active torsions:
REMARK  status: ('A' for Active; 'I' for Inactive)
REMARK    1  A    between atoms: C_1  and  O_2
REMARK    2  A    between atoms: O_2  and  C_3
REMARK    3  A    between atoms: C_8  and  O_9
REMARK    4  A    between atoms: O_9  and  C_10
REMARK    5  A    between atoms: C_11  and  C_15
REMARK    6  A    between atoms: C_16  and  O_30
REMARK    7  A    between atoms: C_18  and  S_29
REMARK    8  A    between atoms: N_19  and  C_22
REMARK    9  A    between atoms: C_22  and  C_23
REMARK                            x       y       z     vdW  Elec       q    Type
REMARK                         _______ _______ _______ _____ _____    ______ ____
ROOT
ATOM      1  C   UNL     1      -2.513   7.433   2.399  0.00  0.00    +0.069 A 
ATOM      2  C   UNL     1      -2.703   7.920   3.681  0.00  0.00    +0.222 A 
ATOM      3  N   UNL     1      -3.938   8.191   4.112  0.00  0.00    -0.189 NA
ATOM      4  C   UNL     1      -4.989   7.993   3.341  0.00  0.00    +0.172 A 
ATOM      5  N   UNL     1      -4.856   7.511   2.075  0.00  0.00    -0.283 N 
ATOM      6  C   UNL     1      -3.632   7.224   1.584  0.00  0.00    +0.260 A 
ATOM      7  O   UNL     1      -3.503   6.791   0.450  0.00  0.00    -0.267 OA
ENDROOT
BRANCH   1  14
ATOM      8  C   UNL     1      -0.787   2.893   1.346  0.00  0.00    +0.162 A 
ATOM      9  C   UNL     1      -0.261   3.751   0.398  0.00  0.00    +0.053 A 
ATOM     10  C   UNL     1      -0.365   5.125   0.559  0.00  0.00    -0.044 A 
ATOM     11  C   UNL     1      -0.996   5.641   1.671  0.00  0.00    -0.050 A 
ATOM     12  C   UNL     1      -1.527   4.784   2.624  0.00  0.00    +0.052 A 
ATOM     13  C   UNL     1      -1.431   3.413   2.465  0.00  0.00    +0.162 A 
ATOM     14  C   UNL     1      -1.127   7.126   1.892  0.00  0.00    +0.001 C 
ATOM     15  C   UNL     1       0.379   7.439   0.037  0.00  0.00    -0.077 C 
ATOM     16  C   UNL     1       0.221   6.018  -0.504  0.00  0.00    +0.016 C 
ATOM     17  N   UNL     1      -0.901   7.857   0.638  0.00  0.00    +0.387 N 
ATOM     18  H   UNL     1      -0.873   8.865   0.832  0.00  0.00    -0.085 HD
ATOM     19  H   UNL     1      -1.666   7.656  -0.016  0.00  0.00    -0.085 HD
BRANCH   8  21
ATOM     20  C   UNL     1      -0.013   1.086   0.008  0.00  0.00    +0.277 C 
ATOM     21  O   UNL     1      -0.682   1.547   1.184  0.00  0.00    -0.491 OA
ENDBRANCH   8  21
BRANCH  13  22
ATOM     22  O   UNL     1      -1.959   2.579   3.399  0.00  0.00    -0.491 OA
ATOM     23  C   UNL     1      -2.605   3.185   4.521  0.00  0.00    +0.277 C 
ENDBRANCH  13  22
ENDBRANCH   1  14
BRANCH   4  24
ATOM     24  S   UNL     1      -6.596   8.361   3.962  0.00  0.00    -0.105 S 
ATOM     25  H   UNL     1      -6.262   8.813   5.255  0.00  0.00    +0.110 HD
ENDBRANCH   4  24
BRANCH   2  26
ATOM     26  O   UNL     1      -1.641   8.126   4.494  0.00  0.00    -0.492 OA
ATOM     27  H   UNL     1      -1.874   8.467   5.368  0.00  0.00    +0.294 HD
ENDBRANCH   2  26
BRANCH   5  28
ATOM     28  C   UNL     1      -6.045   7.302   1.243  0.00  0.00    +0.162 C 
BRANCH  28  29
ATOM     29  C   UNL     1      -6.564   5.903   1.453  0.00  0.00    -0.028 A 
ATOM     30  C   UNL     1      -6.113   4.871   0.651  0.00  0.00    +0.005 A 
ATOM     31  C   UNL     1      -6.586   3.587   0.847  0.00  0.00    +0.000 A 
ATOM     32  C   UNL     1      -7.519   3.337   1.836  0.00  0.00    +0.000 A 
ATOM     33  C   UNL     1      -7.974   4.370   2.634  0.00  0.00    +0.000 A 
ATOM     34  C   UNL     1      -7.497   5.653   2.442  0.00  0.00    +0.005 A 
ENDBRANCH  28  29
ENDBRANCH   5  28
TORSDOF 7
