REMARK  Name = ZINC39380246
REMARK  12 active torsions:
REMARK  status: ('A' for Active; 'I' for Inactive)
REMARK    1  A    between atoms: C_1  and  C_2
REMARK    2  A    between atoms: C_2  and  C_3
REMARK    3  A    between atoms: C_3  and  S_4
REMARK    4  A    between atoms: S_4  and  C_5
REMARK    5  A    between atoms: C_11  and  C_25
REMARK    6  A    between atoms: C_13  and  C_19
REMARK    7  A    between atoms: C_14  and  C_18
REMARK    8  A    between atoms: C_19  and  O_21
REMARK    9  A    between atoms: O_21  and  C_22
REMARK   10  A    between atoms: C_22  and  C_23
REMARK   11  A    between atoms: C_22  and  C_24
REMARK   12  A    between atoms: C_28  and  C_31
REMARK                            x       y       z     vdW  Elec       q    Type
REMARK                         _______ _______ _______ _____ _____    ______ ____
ROOT
ATOM      1  C   UNL     1       1.192  -2.822  -3.081  0.00  0.00    +0.182 C 
ATOM      2  N   UNL     1       1.657  -1.805  -3.786  0.00  0.00    -0.154 NA
ATOM      3  C   UNL     1       2.456  -1.972  -4.840  0.00  0.00    +0.250 C 
ATOM      4  O   UNL     1       2.883  -1.024  -5.470  0.00  0.00    -0.273 OA
ATOM      5  C   UNL     1       2.809  -3.399  -5.218  0.00  0.00    +0.152 C 
ATOM      6  C   UNL     1       4.331  -3.530  -5.125  0.00  0.00    +0.076 C 
ATOM      7  C   UNL     1       4.735  -4.974  -5.221  0.00  0.00    +0.062 C 
ATOM      8  C   UNL     1       3.912  -5.990  -4.931  0.00  0.00    +0.017 C 
ATOM      9  N   UNL     1       2.611  -5.762  -4.535  0.00  0.00    -0.305 N 
ATOM     10  C   UNL     1       2.239  -4.473  -4.303  0.00  0.00    +0.115 C 
ATOM     11  N   UNL     1       1.482  -4.109  -3.310  0.00  0.00    -0.213 NA
ATOM     12  C   UNL     1       4.416  -7.406  -5.038  0.00  0.00    +0.061 C 
ATOM     13  H   UNL     1       1.979  -6.491  -4.433  0.00  0.00    +0.153 HD
ENDROOT
BRANCH   6  14
ATOM     14  C   UNL     1       4.801  -2.970  -3.807  0.00  0.00    -0.039 A 
ATOM     15  C   UNL     1       4.348  -3.520  -2.622  0.00  0.00    +0.004 A 
ATOM     16  C   UNL     1       4.779  -3.006  -1.413  0.00  0.00    +0.003 A 
ATOM     17  C   UNL     1       5.662  -1.944  -1.389  0.00  0.00    -0.050 A 
ATOM     18  C   UNL     1       6.116  -1.395  -2.574  0.00  0.00    +0.003 A 
ATOM     19  C   UNL     1       5.688  -1.911  -3.783  0.00  0.00    +0.004 A 
ATOM     20  C   UNL     1       6.131  -1.383  -0.071  0.00  0.00    +0.044 C 
ENDBRANCH   6  14
BRANCH   7  21
ATOM     21  C   UNL     1       6.053  -5.276  -5.641  0.00  0.00    +0.337 C 
ATOM     22  O   UNL     1       6.359  -5.162  -6.813  0.00  0.00    -0.245 OA
BRANCH  21  23
ATOM     23  O   UNL     1       6.969  -5.691  -4.741  0.00  0.00    -0.459 OA
BRANCH  23  24
ATOM     24  C   UNL     1       8.279  -5.978  -5.234  0.00  0.00    +0.171 C 
ATOM     25  C   UNL     1       9.309  -5.698  -4.138  0.00  0.00    +0.052 C 
ATOM     26  C   UNL     1       8.358  -7.449  -5.645  0.00  0.00    +0.052 C 
ENDBRANCH  23  24
ENDBRANCH  21  23
ENDBRANCH   7  21
BRANCH   1  27
ATOM     27  S   UNL     1       0.116  -2.456  -1.734  0.00  0.00    -0.089 S 
BRANCH  27  28
ATOM     28  C   UNL     1      -0.021  -0.648  -1.761  0.00  0.00    +0.077 C 
BRANCH  28  30
ATOM     29  C   UNL     1      -1.056   1.336  -0.649  0.00  0.00    +0.004 C 
ATOM     30  C   UNL     1      -0.940  -0.189  -0.627  0.00  0.00    +0.008 C 
ENDBRANCH  28  30
ENDBRANCH  27  28
ENDBRANCH   1  27
TORSDOF 7
