REMARK  Name = ZINC39918981
REMARK  7 active torsions:
REMARK  status: ('A' for Active; 'I' for Inactive)
REMARK    1  A    between atoms: C_1  and  C_2
REMARK    2  A    between atoms: C_2  and  N_3
REMARK    3  A    between atoms: C_4  and  C_34
REMARK    4  A    between atoms: N_17  and  C_20
REMARK    5  A    between atoms: C_20  and  C_21
REMARK    6  A    between atoms: C_28  and  C_32
REMARK    7  A    between atoms: C_29  and  N_31
REMARK                            x       y       z     vdW  Elec       q    Type
REMARK                         _______ _______ _______ _____ _____    ______ ____
ROOT
ATOM      1  N   UNL     1       0.703  -0.289  -1.286  0.00  0.00    -0.312 N 
ATOM      2  C   UNL     1      -0.040  -0.795  -2.306  0.00  0.00    +0.022 A 
ATOM      3  C   UNL     1       0.547  -1.418  -3.349  0.00  0.00    +0.068 A 
ATOM      4  C   UNL     1       1.951  -1.547  -3.389  0.00  0.00    +0.142 A 
ATOM      5  C   UNL     1       2.698  -1.031  -2.350  0.00  0.00    +0.084 A 
ATOM      6  C   UNL     1       2.045  -0.390  -1.290  0.00  0.00    +0.260 A 
ATOM      7  O   UNL     1       2.694   0.073  -0.365  0.00  0.00    -0.267 OA
ATOM      8  C   UNL     1       4.195  -1.146  -2.357  0.00  0.00    +0.147 C 
ATOM      9  C   UNL     1       4.829   0.184  -2.625  0.00  0.00    -0.001 A 
ATOM     10  C   UNL     1       4.755   1.026  -3.713  0.00  0.00    +0.007 A 
ATOM     11  C   UNL     1       5.479   2.212  -3.643  0.00  0.00    +0.000 A 
ATOM     12  C   UNL     1       6.236   2.527  -2.533  0.00  0.00    +0.002 A 
ATOM     13  C   UNL     1       6.316   1.684  -1.435  0.00  0.00    +0.024 A 
ATOM     14  C   UNL     1       5.593   0.490  -1.493  0.00  0.00    +0.041 A 
ATOM     15  N   UNL     1       5.492  -0.522  -0.555  0.00  0.00    -0.265 N 
ATOM     16  C   UNL     1       4.692  -1.523  -0.976  0.00  0.00    +0.241 C 
ATOM     17  O   UNL     1       4.420  -2.534  -0.364  0.00  0.00    -0.274 OA
ATOM     18  C   UNL     1       4.644  -2.168  -3.360  0.00  0.00    +0.110 C 
ATOM     19  C   UNL     1       3.805  -2.614  -4.326  0.00  0.00    +0.199 C 
ATOM     20  O   UNL     1       2.542  -2.167  -4.432  0.00  0.00    -0.441 OA
ATOM     21  C   UNL     1      -1.541  -0.660  -2.270  0.00  0.00    +0.064 C 
ENDROOT
BRANCH  19  22
ATOM     22  N   UNL     1       4.258  -3.550  -5.222  0.00  0.00    -0.328 N 
ATOM     23  H   UNL     1       5.167  -3.883  -5.159  0.00  0.00    +0.145 HD
ATOM     24  H   UNL     1       3.669  -3.879  -5.919  0.00  0.00    +0.145 HD
ENDBRANCH  19  22
BRANCH   1  26
ATOM     25  C   UNL     1      -0.267  -0.636   0.931  0.00  0.00    +0.027 C 
ATOM     26  C   UNL     1       0.033   0.382  -0.170  0.00  0.00    +0.122 C 
ENDBRANCH   1  26
BRANCH  18  27
ATOM     27  C   UNL     1       5.981  -2.680  -3.296  0.00  0.00    +0.102 C 
ATOM     28  N   UNL     1       7.040  -3.086  -3.245  0.00  0.00    -0.191 NA
ENDBRANCH  18  27
BRANCH  15  29
ATOM     29  C   UNL     1       6.173  -0.508   0.741  0.00  0.00    +0.150 C 
BRANCH  29  30
ATOM     30  C   UNL     1       5.286   0.148   1.768  0.00  0.00    -0.011 A 
ATOM     31  C   UNL     1       5.496   1.468   2.120  0.00  0.00    +0.006 A 
ATOM     32  C   UNL     1       4.682   2.070   3.061  0.00  0.00    +0.000 A 
ATOM     33  C   UNL     1       3.659   1.352   3.652  0.00  0.00    +0.001 A 
ATOM     34  C   UNL     1       3.449   0.032   3.301  0.00  0.00    +0.020 A 
ATOM     35  C   UNL     1       4.259  -0.569   2.354  0.00  0.00    +0.046 A 
ATOM     36 CL   UNL     1       3.992  -2.226   1.908  0.00  0.00    -0.083 Cl
ENDBRANCH  29  30
ENDBRANCH  15  29
TORSDOF 5
