REMARK  Name = ZINC10565741
REMARK  13 active torsions:
REMARK  status: ('A' for Active; 'I' for Inactive)
REMARK    1  A    between atoms: C_1  and  C_2
REMARK    2  A    between atoms: C_2  and  C_3
REMARK    3  A    between atoms: C_3  and  C_4
REMARK    4  A    between atoms: C_4  and  N_5
REMARK    5  A    between atoms: C_6  and  N_34
REMARK    6  A    between atoms: C_7  and  N_14
REMARK    7  A    between atoms: N_14  and  C_15
REMARK    8  A    between atoms: N_14  and  C_19
REMARK    9  A    between atoms: C_15  and  C_16
REMARK   10  A    between atoms: C_16  and  O_17
REMARK   11  A    between atoms: O_17  and  C_18
REMARK   12  A    between atoms: C_19  and  C_20
REMARK   13  A    between atoms: N_22  and  C_23
REMARK                            x       y       z     vdW  Elec       q    Type
REMARK                         _______ _______ _______ _____ _____    ______ ____
ROOT
ATOM      1  N   UNL     1       0.120   1.726   6.038  0.00  0.00    -0.312 N 
ENDROOT
BRANCH   1   4
ATOM      2  N   UNL     1       2.547   1.538   8.785  0.00  0.00    -0.280 N 
ATOM      3  C   UNL     1       1.851   2.017   7.699  0.00  0.00    +0.127 A 
ATOM      4  C   UNL     1       0.856   1.255   7.150  0.00  0.00    +0.134 A 
ATOM      5  C   UNL     1       0.579  -0.007   7.705  0.00  0.00    +0.277 A 
ATOM      6  O   UNL     1      -0.300  -0.707   7.231  0.00  0.00    -0.266 OA
ATOM      7  N   UNL     1       1.290  -0.439   8.765  0.00  0.00    -0.273 N 
ATOM      8  H   UNL     1       1.095  -1.336   9.161  0.00  0.00    +0.173 HD
ATOM      9  C   UNL     1       2.261   0.327   9.296  0.00  0.00    +0.331 A 
ATOM     10  O   UNL     1       2.890  -0.083  10.253  0.00  0.00    -0.246 OA
BRANCH   3  11
ATOM     11  N   UNL     1       2.148   3.254   7.173  0.00  0.00    -0.343 N 
ATOM     12  H   UNL     1       1.651   3.589   6.410  0.00  0.00    +0.144 HD
ATOM     13  H   UNL     1       2.854   3.791   7.566  0.00  0.00    +0.144 HD
ENDBRANCH   3  11
BRANCH   2  14
ATOM     14  C   UNL     1       3.611   2.349   9.383  0.00  0.00    +0.128 C 
BRANCH  14  15
ATOM     15  C   UNL     1       4.942   2.028   8.701  0.00  0.00    +0.021 C 
BRANCH  15  17
ATOM     16  C   UNL     1       7.384   2.554   8.644  0.00  0.00    +0.004 C 
ATOM     17  C   UNL     1       6.052   2.875   9.327  0.00  0.00    -0.002 C 
ENDBRANCH  15  17
ENDBRANCH  14  15
ENDBRANCH   2  14
ENDBRANCH   1   4
BRANCH   1  18
ATOM     18  C   UNL     1      -1.311   1.819   6.354  0.00  0.00    +0.134 C 
BRANCH  18  19
ATOM     19  C   UNL     1      -1.530   2.896   7.418  0.00  0.00    +0.178 C 
BRANCH  19  20
ATOM     20  O   UNL     1      -1.178   4.173   6.882  0.00  0.00    -0.381 OA
ATOM     21  C   UNL     1      -1.347   5.255   7.801  0.00  0.00    +0.194 C 
ENDBRANCH  19  20
ENDBRANCH  18  19
ENDBRANCH   1  18
BRANCH   1  22
ATOM     22  C   UNL     1       0.346   0.878   4.860  0.00  0.00    +0.201 C 
BRANCH  22  23
ATOM     23  C   UNL     1      -0.248   1.540   3.643  0.00  0.00    +0.231 C 
ATOM     24  O   UNL     1      -0.804   2.613   3.747  0.00  0.00    -0.274 OA
ATOM     25  N   UNL     1      -0.161   0.940   2.439  0.00  0.00    -0.307 N 
ATOM     26  H   UNL     1       0.284   0.082   2.356  0.00  0.00    +0.149 HD
BRANCH  25  27
ATOM     27  C   UNL     1      -0.738   1.584   1.257  0.00  0.00    +0.103 C 
ATOM     28  C   UNL     1      -0.013   1.086   0.008  0.00  0.00    +0.027 C 
ATOM     29  C   UNL     1      -0.765   1.599  -1.226  0.00  0.00    +0.007 C 
ATOM     30  C   UNL     1      -2.100   0.863  -1.317  0.00  0.00    +0.035 C 
ATOM     31  C   UNL     1      -2.834   0.934  -0.003  0.00  0.00    -0.042 A 
ATOM     32  C   UNL     1      -2.208   1.258   1.179  0.00  0.00    -0.024 A 
ATOM     33  C   UNL     1      -2.941   1.298   2.358  0.00  0.00    +0.006 A 
ATOM     34  C   UNL     1      -4.293   1.022   2.352  0.00  0.00    +0.000 A 
ATOM     35  C   UNL     1      -4.923   0.702   1.164  0.00  0.00    +0.000 A 
ATOM     36  C   UNL     1      -4.195   0.658  -0.007  0.00  0.00    +0.004 A 
ENDBRANCH  25  27
ENDBRANCH  22  23
ENDBRANCH   1  22
TORSDOF 11
