REMARK  Name = ZINC22852336
REMARK  7 active torsions:
REMARK  status: ('A' for Active; 'I' for Inactive)
REMARK    1  A    between atoms: C_1  and  C_2
REMARK    2  A    between atoms: C_6  and  C_8
REMARK    3  A    between atoms: C_8  and  C_10
REMARK    4  A    between atoms: C_8  and  N_24
REMARK    5  A    between atoms: C_11  and  O_23
REMARK    6  A    between atoms: C_16  and  C_18
REMARK    7  A    between atoms: N_27  and  C_30
REMARK                            x       y       z     vdW  Elec       q    Type
REMARK                         _______ _______ _______ _____ _____    ______ ____
ROOT
ATOM      1  C   UNL     1       0.040  -2.833   2.472  0.00  0.00    +0.129 C 
ENDROOT
BRANCH   1   2
ATOM      2  C   UNL     1       1.448  -3.271   2.785  0.00  0.00    +0.076 A 
ATOM      3  C   UNL     1       2.243  -2.898   3.795  0.00  0.00    +0.228 A 
ATOM      4  N   UNL     1       3.511  -3.413   3.916  0.00  0.00    -0.173 N 
ATOM      5  C   UNL     1       3.912  -4.312   2.966  0.00  0.00    +0.200 A 
ATOM      6  S   UNL     1       2.488  -4.429   1.909  0.00  0.00    -0.047 S 
ATOM      7  N   UNL     1       5.129  -4.706   3.218  0.00  0.00    -0.197 NA
ATOM      8  C   UNL     1       5.572  -4.093   4.325  0.00  0.00    +0.218 A 
ATOM      9  N   UNL     1       4.628  -3.300   4.784  0.00  0.00    -0.138 NA
BRANCH   8  10
ATOM     10  C   UNL     1       6.906  -4.279   4.932  0.00  0.00    +0.173 A 
ATOM     11  C   UNL     1       7.891  -5.090   4.462  0.00  0.00    +0.053 A 
ATOM     12  C   UNL     1       8.982  -4.958   5.344  0.00  0.00    +0.042 A 
ATOM     13  C   UNL     1       8.614  -4.080   6.298  0.00  0.00    +0.196 A 
ATOM     14  O   UNL     1       7.361  -3.668   6.043  0.00  0.00    -0.460 OA
ENDBRANCH   8  10
BRANCH   3  15
ATOM     15  O   UNL     1       1.791  -2.000   4.711  0.00  0.00    -0.492 OA
ATOM     16  H   UNL     1       2.432  -1.789   5.404  0.00  0.00    +0.294 HD
ENDBRANCH   3  15
ENDBRANCH   1   2
BRANCH   1  22
ATOM     17  C   UNL     1      -0.043   1.488  -0.050  0.00  0.00    +0.044 C 
ATOM     18  C   UNL     1      -0.015  -0.018  -0.043  0.00  0.00    -0.050 A 
ATOM     19  C   UNL     1      -0.002  -0.715  -1.237  0.00  0.00    +0.003 A 
ATOM     20  C   UNL     1       0.024  -2.097  -1.231  0.00  0.00    +0.001 A 
ATOM     21  C   UNL     1       0.038  -2.783  -0.030  0.00  0.00    +0.005 A 
ATOM     22  C   UNL     1       0.026  -2.086   1.163  0.00  0.00    -0.025 A 
ATOM     23  C   UNL     1       0.004  -0.704   1.157  0.00  0.00    +0.009 A 
ENDBRANCH   1  22
BRANCH   1  24
ATOM     24  N   UNL     1      -0.829  -4.013   2.372  0.00  0.00    -0.288 NA
ATOM     25  C   UNL     1      -2.189  -3.633   1.967  0.00  0.00    +0.104 C 
ATOM     26  C   UNL     1      -3.011  -4.897   1.699  0.00  0.00    +0.120 C 
ATOM     27  N   UNL     1      -2.935  -5.765   2.884  0.00  0.00    -0.327 N 
ATOM     28  C   UNL     1      -1.606  -6.079   3.432  0.00  0.00    +0.120 C 
ATOM     29  C   UNL     1      -0.839  -4.768   3.632  0.00  0.00    +0.104 C 
BRANCH  27  30
ATOM     30  C   UNL     1      -4.093  -6.276   3.475  0.00  0.00    +0.030 A 
ATOM     31  C   UNL     1      -5.342  -5.878   3.015  0.00  0.00    +0.023 A 
ATOM     32  C   UNL     1      -6.485  -6.386   3.600  0.00  0.00    +0.002 A 
ATOM     33  C   UNL     1      -6.387  -7.288   4.644  0.00  0.00    +0.000 A 
ATOM     34  C   UNL     1      -5.145  -7.685   5.104  0.00  0.00    +0.002 A 
ATOM     35  C   UNL     1      -3.998  -7.186   4.519  0.00  0.00    +0.023 A 
ENDBRANCH  27  30
ENDBRANCH   1  24
TORSDOF 6
