REMARK  Name = ZINC57839783
REMARK  6 active torsions:
REMARK  status: ('A' for Active; 'I' for Inactive)
REMARK    1  A    between atoms: C_1  and  N_2
REMARK    2  A    between atoms: N_2  and  C_3
REMARK    3  A    between atoms: N_2  and  C_4
REMARK    4  A    between atoms: C_7  and  N_22
REMARK    5  A    between atoms: C_9  and  C_10
REMARK    6  A    between atoms: N_12  and  C_13
REMARK                            x       y       z     vdW  Elec       q    Type
REMARK                         _______ _______ _______ _____ _____    ______ ____
ROOT
ATOM      1  C   UNL     1      -1.151  -0.710   2.505  0.00  0.00    +0.250 C 
ATOM      2  O   UNL     1      -0.104  -0.091   2.506  0.00  0.00    -0.270 OA
ATOM      3  N   UNL     1      -1.722  -1.071   3.671  0.00  0.00    -0.280 N 
ATOM      4  H   UNL     1      -2.589  -1.507   3.671  0.00  0.00    +0.155 HD
ENDROOT
BRANCH   3   5
ATOM      5  C   UNL     1      -1.066  -0.816   4.880  0.00  0.00    +0.054 A 
ATOM      6  C   UNL     1      -0.296   0.330   5.025  0.00  0.00    +0.046 A 
ATOM      7  C   UNL     1       0.351   0.580   6.221  0.00  0.00    +0.061 A 
ATOM      8  C   UNL     1       0.232  -0.312   7.274  0.00  0.00    +0.061 A 
ATOM      9  C   UNL     1      -0.535  -1.455   7.131  0.00  0.00    +0.043 A 
ATOM     10  C   UNL     1      -1.189  -1.706   5.940  0.00  0.00    +0.064 A 
ATOM     11 CL   UNL     1      -2.157  -3.137   5.765  0.00  0.00    -0.082 Cl
ATOM     12 CL   UNL     1       1.046   0.004   8.774  0.00  0.00    -0.082 Cl
ATOM     13 CL   UNL     1       1.315   2.012   6.403  0.00  0.00    -0.082 Cl
ENDBRANCH   3   5
BRANCH   1  19
ATOM     14  C   UNL     1      -1.202  -0.694   0.010  0.00  0.00    +0.042 A 
ATOM     15  C   UNL     1      -1.815  -1.040  -1.187  0.00  0.00    +0.026 A 
ATOM     16  C   UNL     1      -3.003  -1.743  -1.178  0.00  0.00    +0.034 A 
ATOM     17  C   UNL     1      -3.592  -2.108   0.022  0.00  0.00    +0.127 A 
ATOM     18  C   UNL     1      -2.999  -1.774   1.220  0.00  0.00    +0.047 A 
ATOM     19  C   UNL     1      -1.794  -1.067   1.227  0.00  0.00    +0.060 A 
BRANCH  14  21
ATOM     20  C   UNL     1      -0.022   1.478   0.020  0.00  0.00    +0.129 C 
ATOM     21  N   UNL     1      -0.007   0.014   0.003  0.00  0.00    -0.335 N 
ATOM     22  C   UNL     1       1.270  -0.705  -0.022  0.00  0.00    +0.129 C 
ENDBRANCH  14  21
BRANCH  17  23
ATOM     23  N   UNL     1      -4.867  -2.862   0.017  0.00  0.00    +0.056 N 
ATOM     24  O   UNL     1      -5.390  -3.156  -1.032  0.00  0.00    -0.126 OA
ATOM     25  O   UNL     1      -5.383  -3.182   1.062  0.00  0.00    -0.126 OA
ENDBRANCH  17  23
ENDBRANCH   1  19
TORSDOF 4
