REMARK  Name = ZINC37196964
REMARK  5 active torsions:
REMARK  status: ('A' for Active; 'I' for Inactive)
REMARK    1  A    between atoms: C_1  and  C_2
REMARK    2  A    between atoms: C_7  and  N_8
REMARK    3  A    between atoms: N_8  and  C_9
REMARK    4  A    between atoms: C_9  and  C_10
REMARK    5  A    between atoms: C_13  and  N_15
REMARK                            x       y       z     vdW  Elec       q    Type
REMARK                         _______ _______ _______ _____ _____    ______ ____
ROOT
ATOM      1  N   UNL     1       0.026  -0.016   2.415  0.00  0.00    -0.337 N 
ATOM      2  H   UNL     1       0.013   0.954   2.422  0.00  0.00    +0.147 HD
ENDROOT
BRANCH   1   9
ATOM      3  C   UNL     1      -0.018   1.503   0.010  0.00  0.00    +0.046 C 
ATOM      4  C   UNL     1       0.002  -0.004   0.002  0.00  0.00    -0.029 A 
ATOM      5  C   UNL     1       0.006  -0.689  -1.198  0.00  0.00    +0.020 A 
ATOM      6  C   UNL     1       0.024  -2.072  -1.206  0.00  0.00    +0.018 A 
ATOM      7  C   UNL     1       0.039  -2.774  -0.013  0.00  0.00    +0.017 A 
ATOM      8  C   UNL     1       0.035  -2.095   1.189  0.00  0.00    +0.024 A 
ATOM      9  C   UNL     1       0.023  -0.706   1.200  0.00  0.00    +0.030 A 
ATOM     10 BR   UNL     1       0.028  -3.006  -2.850  0.00  0.00    -0.050 Br
ENDBRANCH   1   9
BRANCH   1  11
ATOM     11  C   UNL     1       0.048  -0.757   3.679  0.00  0.00    +0.176 C 
BRANCH  11  12
ATOM     12  C   UNL     1       0.046   0.214   4.831  0.00  0.00    +0.125 A 
ATOM     13  C   UNL     1      -1.046   0.703   5.447  0.00  0.00    +0.049 A 
ATOM     14  C   UNL     1      -0.588   1.572   6.463  0.00  0.00    +0.076 A 
ATOM     15  C   UNL     1       0.756   1.563   6.408  0.00  0.00    +0.280 A 
ATOM     16  O   UNL     1       1.134   0.734   5.422  0.00  0.00    -0.437 OA
BRANCH  15  17
ATOM     17  N   UNL     1       1.663   2.331   7.290  0.00  0.00    +0.093 N 
ATOM     18  O   UNL     1       1.207   3.045   8.152  0.00  0.00    -0.123 OA
ATOM     19  O   UNL     1       2.861   2.245   7.147  0.00  0.00    -0.123 OA
ENDBRANCH  15  17
ENDBRANCH  11  12
ENDBRANCH   1  11
TORSDOF 4
