REMARK  Name = ZINC20090239
REMARK  6 active torsions:
REMARK  status: ('A' for Active; 'I' for Inactive)
REMARK    1  A    between atoms: C_1  and  C_2
REMARK    2  A    between atoms: C_5  and  C_11
REMARK    3  A    between atoms: C_7  and  N_8
REMARK    4  A    between atoms: C_11  and  C_13
REMARK    5  A    between atoms: C_11  and  N_14
REMARK    6  A    between atoms: N_14  and  C_15
REMARK                            x       y       z     vdW  Elec       q    Type
REMARK                         _______ _______ _______ _____ _____    ______ ____
ROOT
ATOM      1  C   UNL     1       2.491   1.054  -0.112  0.00  0.00    +0.098 C 
ATOM      2  C   UNL     1       2.617   0.354  -1.467  0.00  0.00    +0.033 C 
ENDROOT
BRANCH   1   7
ATOM      3  C   UNL     1      -2.553   3.862   0.142  0.00  0.00    +0.046 C 
ATOM      4  C   UNL     1      -1.238   3.130   0.076  0.00  0.00    -0.020 A 
ATOM      5  C   UNL     1      -1.194   1.766   0.298  0.00  0.00    +0.006 A 
ATOM      6  C   UNL     1       0.013   1.095   0.242  0.00  0.00    +0.006 A 
ATOM      7  C   UNL     1       1.176   1.787  -0.046  0.00  0.00    -0.025 A 
ATOM      8  C   UNL     1       1.131   3.149  -0.273  0.00  0.00    +0.038 A 
ATOM      9  C   UNL     1      -0.076   3.821  -0.212  0.00  0.00    +0.129 A 
BRANCH   9  10
ATOM     10  N   UNL     1      -0.123   5.281  -0.454  0.00  0.00    +0.057 N 
ATOM     11  O   UNL     1       0.911   5.909  -0.591  0.00  0.00    -0.126 OA
ATOM     12  O   UNL     1      -1.197   5.853  -0.516  0.00  0.00    -0.126 OA
ENDBRANCH   9  10
ENDBRANCH   1   7
BRANCH   1  13
ATOM     13  N   UNL     1       2.550   0.058   0.960  0.00  0.00    -0.336 N 
ATOM     14  H   UNL     1       1.621  -0.352   1.381  0.00  0.00    +0.147 HD
BRANCH  13  15
ATOM     15  C   UNL     1       3.787  -0.371   1.448  0.00  0.00    +0.042 A 
ATOM     16  C   UNL     1       4.962   0.146   0.917  0.00  0.00    +0.024 A 
ATOM     17  C   UNL     1       6.183  -0.280   1.401  0.00  0.00    +0.002 A 
ATOM     18  C   UNL     1       6.238  -1.221   2.414  0.00  0.00    +0.001 A 
ATOM     19  C   UNL     1       5.070  -1.738   2.945  0.00  0.00    +0.017 A 
ATOM     20  C   UNL     1       3.845  -1.312   2.469  0.00  0.00    +0.039 A 
ATOM     21 BR   UNL     1       2.249  -2.014   3.201  0.00  0.00    -0.048 Br
ENDBRANCH  13  15
ENDBRANCH   1  13
TORSDOF 4
