REMARK  Name = ZINC03870877
REMARK  6 active torsions:
REMARK  status: ('A' for Active; 'I' for Inactive)
REMARK    1  A    between atoms: C_1  and  O_2
REMARK    2  A    between atoms: O_2  and  C_3
REMARK    3  A    between atoms: C_6  and  N_9
REMARK    4  A    between atoms: C_11  and  O_25
REMARK    5  A    between atoms: C_15  and  S_21
REMARK    6  A    between atoms: S_21  and  N_24
REMARK                            x       y       z     vdW  Elec       q    Type
REMARK                         _______ _______ _______ _____ _____    ______ ____
ROOT
ATOM      1  N   UNL     1       1.159   3.486   0.009  0.00  0.00    -0.200 N 
ATOM      2  C   UNL     1       2.316   4.296  -0.417  0.00  0.00    +0.167 C 
ATOM      3  C   UNL     1       1.998   5.086  -1.683  0.00  0.00    +0.166 C 
ATOM      4  C   UNL     1       0.799   6.005  -1.507  0.00  0.00    +0.018 A 
ATOM      5  C   UNL     1       0.603   7.161  -2.268  0.00  0.00    +0.044 A 
ATOM      6  C   UNL     1      -0.504   7.919  -2.088  0.00  0.00    +0.144 A 
ATOM      7  S   UNL     1      -1.354   7.028  -0.792  0.00  0.00    -0.048 S 
ATOM      8  C   UNL     1      -0.173   5.732  -0.593  0.00  0.00    +0.153 A 
ATOM      9  S   UNL     1      -0.178   4.367   0.510  0.00  0.00    +0.081 S 
ATOM     10  O   UNL     1      -1.331   3.590   0.216  0.00  0.00    -0.149 OA
ATOM     11  O   UNL     1       0.109   4.871   1.808  0.00  0.00    -0.149 OA
ENDROOT
BRANCH   1  15
ATOM     12  C   UNL     1       1.213  -0.681  -0.012  0.00  0.00    +0.120 A 
ATOM     13  C   UNL     1       1.460   0.021  -1.182  0.00  0.00    +0.047 A 
ATOM     14  C   UNL     1       1.442   1.402  -1.176  0.00  0.00    +0.028 A 
ATOM     15  C   UNL     1       1.177   2.087   0.002  0.00  0.00    +0.052 A 
ATOM     16  C   UNL     1       0.928   1.383   1.173  0.00  0.00    +0.028 A 
ATOM     17  C   UNL     1       0.947   0.002   1.165  0.00  0.00    +0.047 A 
BRANCH  12  19
ATOM     18  C   UNL     1       0.967  -2.700   1.221  0.00  0.00    +0.277 C 
ATOM     19  O   UNL     1       1.230  -2.041  -0.019  0.00  0.00    -0.495 OA
ENDBRANCH  12  19
ENDBRANCH   1  15
BRANCH   6  20
ATOM     20  S   UNL     1      -0.982   9.399  -2.916  0.00  0.00    +0.062 S 
ATOM     21  O   UNL     1      -1.863  10.088  -2.040  0.00  0.00    -0.153 OA
ATOM     22  O   UNL     1       0.210   9.988  -3.416  0.00  0.00    -0.153 OA
BRANCH  20  23
ATOM     23  N   UNL     1      -1.879   8.954  -4.235  0.00  0.00    -0.203 NA
ATOM     24  H   UNL     1      -2.044   8.015  -4.416  0.00  0.00    +0.144 HD
ATOM     25  H   UNL     1      -2.240   9.632  -4.828  0.00  0.00    +0.144 HD
ENDBRANCH  20  23
ENDBRANCH   6  20
BRANCH   3  26
ATOM     26  O   UNL     1       3.138   5.873  -2.031  0.00  0.00    -0.385 OA
ATOM     27  H   UNL     1       3.034   6.375  -2.851  0.00  0.00    +0.210 HD
ENDBRANCH   3  26
TORSDOF 5
