REMARK  Name = ZINC04767914
REMARK  5 active torsions:
REMARK  status: ('A' for Active; 'I' for Inactive)
REMARK    1  A    between atoms: C_1  and  C_2
REMARK    2  A    between atoms: C_3  and  C_23
REMARK    3  A    between atoms: C_4  and  C_16
REMARK    4  A    between atoms: C_23  and  O_25
REMARK    5  A    between atoms: O_25  and  C_26
REMARK                            x       y       z     vdW  Elec       q    Type
REMARK                         _______ _______ _______ _____ _____    ______ ____
ROOT
ATOM      1  C   UNL     1       3.308   3.240   0.735  0.00  0.00    +0.061 C 
ATOM      2  C   UNL     1       1.931   2.671   0.964  0.00  0.00    +0.020 C 
ATOM      3  C   UNL     1       1.259   2.165  -0.080  0.00  0.00    +0.080 C 
ATOM      4  C   UNL     1      -0.114   1.561   0.037  0.00  0.00    +0.162 C 
ATOM      5  N   UNL     1      -0.684   1.889   1.344  0.00  0.00    -0.300 N 
ATOM      6  C   UNL     1      -1.965   1.752   1.797  0.00  0.00    +0.071 A 
ATOM      7  C   UNL     1      -3.131   1.280   1.205  0.00  0.00    +0.028 A 
ATOM      8  C   UNL     1      -4.279   1.286   1.981  0.00  0.00    +0.002 A 
ATOM      9  C   UNL     1      -4.278   1.738   3.289  0.00  0.00    +0.002 A 
ATOM     10  C   UNL     1      -3.132   2.212   3.901  0.00  0.00    +0.030 A 
ATOM     11  C   UNL     1      -1.960   2.216   3.136  0.00  0.00    +0.091 A 
ATOM     12  N   UNL     1      -0.701   2.604   3.422  0.00  0.00    -0.214 NA
ATOM     13  C   UNL     1       0.058   2.419   2.376  0.00  0.00    +0.202 A 
ATOM     14  N   UNL     1       1.411   2.688   2.233  0.00  0.00    -0.288 N 
ATOM     15  H   UNL     1       1.969   2.881   3.002  0.00  0.00    +0.155 HD
ENDROOT
BRANCH   4  16
ATOM     16  C   UNL     1      -0.017   0.064  -0.107  0.00  0.00    +0.015 A 
ATOM     17  C   UNL     1       0.748  -0.668   0.782  0.00  0.00    +0.009 A 
ATOM     18  C   UNL     1       0.836  -2.042   0.650  0.00  0.00    +0.001 A 
ATOM     19  C   UNL     1       0.160  -2.684  -0.370  0.00  0.00    +0.003 A 
ATOM     20  C   UNL     1      -0.606  -1.955  -1.259  0.00  0.00    +0.039 A 
ATOM     21  C   UNL     1      -0.698  -0.579  -1.126  0.00  0.00    +0.129 A 
ATOM     22  F   UNL     1      -1.450   0.135  -1.992  0.00  0.00    -0.205 F 
ENDBRANCH   4  16
BRANCH   3  23
ATOM     23  C   UNL     1       1.870   2.201  -1.354  0.00  0.00    +0.339 C 
ATOM     24  O   UNL     1       1.574   3.076  -2.146  0.00  0.00    -0.245 OA
BRANCH  23  25
ATOM     25  O   UNL     1       2.781   1.265  -1.692  0.00  0.00    -0.458 OA
BRANCH  25  26
ATOM     26  C   UNL     1       3.359   1.363  -2.996  0.00  0.00    +0.177 C 
ATOM     27  C   UNL     1       2.513   0.564  -3.989  0.00  0.00    +0.044 C 
ATOM     28  C   UNL     1       3.131   0.669  -5.385  0.00  0.00    +0.004 C 
ATOM     29  C   UNL     1       4.553   0.104  -5.357  0.00  0.00    +0.000 C 
ATOM     30  C   UNL     1       5.399   0.903  -4.363  0.00  0.00    +0.004 C 
ATOM     31  C   UNL     1       4.781   0.799  -2.968  0.00  0.00    +0.044 C 
ENDBRANCH  25  26
ENDBRANCH  23  25
ENDBRANCH   3  23
TORSDOF 4
