REMARK  Name = ZINC39993689
REMARK  11 active torsions:
REMARK  status: ('A' for Active; 'I' for Inactive)
REMARK    1  A    between atoms: C_1  and  C_2
REMARK    2  A    between atoms: C_14  and  C_25
REMARK    3  A    between atoms: C_15  and  N_16
REMARK    4  A    between atoms: N_17  and  C_18
REMARK    5  A    between atoms: C_18  and  C_19
REMARK    6  A    between atoms: C_19  and  C_20
REMARK    7  A    between atoms: C_20  and  O_21
REMARK    8  A    between atoms: O_21  and  C_22
REMARK    9  A    between atoms: C_22  and  C_23
REMARK   10  A    between atoms: C_22  and  C_24
REMARK   11  A    between atoms: N_27  and  C_28
REMARK                            x       y       z     vdW  Elec       q    Type
REMARK                         _______ _______ _______ _____ _____    ______ ____
ROOT
ATOM      1  C   UNL     1      -0.070   1.941   0.089  0.00  0.00    +0.047 C 
ATOM      2  C   UNL     1      -0.046   0.437  -0.011  0.00  0.00    -0.007 A 
ATOM      3  C   UNL     1      -0.046  -0.167  -1.229  0.00  0.00    +0.008 A 
ATOM      4  C   UNL     1      -0.023  -1.568  -1.310  0.00  0.00    +0.019 A 
ATOM      5  C   UNL     1      -0.002  -2.311  -0.182  0.00  0.00    +0.096 A 
ATOM      6  N   UNL     1      -0.003  -1.716   1.047  0.00  0.00    -0.267 N 
ATOM      7  C   UNL     1      -0.019  -0.352   1.160  0.00  0.00    +0.145 A 
ATOM      8  N   UNL     1      -0.015   0.263   2.337  0.00  0.00    -0.211 NA
ATOM      9  C   UNL     1       0.010  -0.411   3.492  0.00  0.00    +0.150 A 
ATOM     10  C   UNL     1       0.033  -1.831   3.458  0.00  0.00    +0.083 A 
ATOM     11  C   UNL     1       0.017  -2.496   2.153  0.00  0.00    +0.268 A 
ATOM     12  O   UNL     1       0.036  -3.710   2.066  0.00  0.00    -0.267 OA
ATOM     13  C   UNL     1       0.059  -2.553   4.649  0.00  0.00    +0.033 A 
ATOM     14  C   UNL     1       0.061  -1.837   5.848  0.00  0.00    +0.076 A 
ATOM     15  C   UNL     1       0.037  -0.425   5.809  0.00  0.00    +0.110 A 
ATOM     16  N   UNL     1       0.013   0.229   4.663  0.00  0.00    -0.313 N 
ENDROOT
BRANCH  14  17
ATOM     17  C   UNL     1       0.087  -2.545   7.138  0.00  0.00    +0.252 C 
ATOM     18  O   UNL     1       0.184  -1.917   8.175  0.00  0.00    -0.270 OA
ATOM     19  N   UNL     1       0.003  -3.890   7.169  0.00  0.00    -0.280 N 
ATOM     20  H   UNL     1       0.007  -4.396   6.342  0.00  0.00    +0.155 HD
BRANCH  19  21
ATOM     21  C   UNL     1      -0.091  -4.556   8.396  0.00  0.00    +0.052 A 
ATOM     22  C   UNL     1      -0.604  -3.900   9.507  0.00  0.00    +0.025 A 
ATOM     23  C   UNL     1      -0.695  -4.560  10.717  0.00  0.00    +0.002 A 
ATOM     24  C   UNL     1      -0.276  -5.874  10.823  0.00  0.00    +0.002 A 
ATOM     25  C   UNL     1       0.236  -6.531   9.719  0.00  0.00    +0.022 A 
ATOM     26  C   UNL     1       0.324  -5.878   8.504  0.00  0.00    +0.062 A 
ATOM     27 CL   UNL     1       0.959  -6.706   7.117  0.00  0.00    -0.082 Cl
ENDBRANCH  19  21
ENDBRANCH  14  17
BRANCH  15  28
ATOM     28  N   UNL     1       0.039   0.284   6.992  0.00  0.00    -0.344 N 
ATOM     29  H   UNL     1       0.133  -0.183   7.837  0.00  0.00    +0.144 HD
ATOM     30  H   UNL     1      -0.054   1.250   6.979  0.00  0.00    +0.144 HD
ENDBRANCH  15  28
BRANCH  16  31
ATOM     31  C   UNL     1      -0.011   1.694   4.677  0.00  0.00    +0.127 C 
BRANCH  31  32
ATOM     32  C   UNL     1      -1.461   2.180   4.698  0.00  0.00    +0.050 C 
BRANCH  32  33
ATOM     33  C   UNL     1      -1.486   3.710   4.713  0.00  0.00    +0.162 C 
BRANCH  33  34
ATOM     34  O   UNL     1      -2.841   4.165   4.732  0.00  0.00    -0.377 OA
BRANCH  34  35
ATOM     35  C   UNL     1      -2.977   5.587   4.747  0.00  0.00    +0.112 C 
ATOM     36  C   UNL     1      -4.277   5.982   4.044  0.00  0.00    +0.037 C 
ATOM     37  C   UNL     1      -3.008   6.081   6.194  0.00  0.00    +0.037 C 
ENDBRANCH  34  35
ENDBRANCH  33  34
ENDBRANCH  32  33
ENDBRANCH  31  32
ENDBRANCH  16  31
TORSDOF 8
