REMARK  Name = ZINC12374912
REMARK  3 active torsions:
REMARK  status: ('A' for Active; 'I' for Inactive)
REMARK    1  A    between atoms: C_3  and  C_6
REMARK    2  A    between atoms: C_6  and  N_7
REMARK    3  A    between atoms: N_7  and  C_8
REMARK                            x       y       z     vdW  Elec       q    Type
REMARK                         _______ _______ _______ _____ _____    ______ ____
ROOT
ATOM      1  C   UNL     1       5.446   0.574   1.583  0.00  0.00    +0.055 C 
ATOM      2  C   UNL     1       6.434   0.556   0.660  0.00  0.00    +0.114 C 
ATOM      3  C   UNL     1       7.683   0.524   1.306  0.00  0.00    +0.334 C 
ATOM      4  O   UNL     1       8.756   0.502   0.732  0.00  0.00    -0.246 OA
ATOM      5  O   UNL     1       7.533   0.520   2.645  0.00  0.00    -0.449 OA
ATOM      6  C   UNL     1       6.132   0.558   2.928  0.00  0.00    +0.151 C 
ATOM      7  C   UNL     1       5.720  -0.686   3.712  0.00  0.00    +0.054 C 
ATOM      8  C   UNL     1       6.436  -0.699   5.065  0.00  0.00    +0.004 C 
ATOM      9  C   UNL     1       6.064   0.560   5.851  0.00  0.00    +0.000 C 
ATOM     10  C   UNL     1       6.497   1.799   5.064  0.00  0.00    +0.004 C 
ATOM     11  C   UNL     1       5.780   1.820   3.712  0.00  0.00    +0.054 C 
ENDROOT
BRANCH   1  12
ATOM     12  N   UNL     1       4.101   0.607   1.347  0.00  0.00    -0.337 N 
ATOM     13  H   UNL     1       3.478   0.617   2.090  0.00  0.00    +0.146 HD
BRANCH  12  14
ATOM     14  C   UNL     1       3.599   0.625  -0.029  0.00  0.00    +0.175 C 
BRANCH  14  17
ATOM     15  C   UNL     1      -0.016   1.341   0.009  0.00  0.00    +0.041 A 
ATOM     16  C   UNL     1       1.331   1.769  -0.001  0.00  0.00    +0.046 A 
ATOM     17  C   UNL     1       2.092   0.660  -0.014  0.00  0.00    +0.122 A 
ATOM     18  O   UNL     1       1.282  -0.411  -0.012  0.00  0.00    -0.466 OA
ATOM     19  C   UNL     1       0.002  -0.004   0.002  0.00  0.00    +0.195 A 
ENDBRANCH  14  17
ENDBRANCH  12  14
ENDBRANCH   1  12
TORSDOF 3
