REMARK  Name = ZINC05846708
REMARK  7 active torsions:
REMARK  status: ('A' for Active; 'I' for Inactive)
REMARK    1  A    between atoms: C_1  and  C_2
REMARK    2  A    between atoms: C_4  and  C_21
REMARK    3  A    between atoms: C_5  and  N_9
REMARK    4  A    between atoms: C_6  and  C_8
REMARK    5  A    between atoms: N_9  and  S_10
REMARK    6  A    between atoms: S_10  and  C_12
REMARK    7  A    between atoms: C_16  and  N_18
REMARK                            x       y       z     vdW  Elec       q    Type
REMARK                         _______ _______ _______ _____ _____    ______ ____
ROOT
ATOM      1  N   UNL     1       0.351   6.069  -1.526  0.00  0.00    -0.260 N 
ATOM      2  H   UNL     1       0.016   5.330  -2.058  0.00  0.00    +0.163 HD
ENDROOT
BRANCH   1   7
ATOM      3  C   UNL     1      -0.643  11.410  -3.153  0.00  0.00    +0.044 C 
ATOM      4  C   UNL     1      -0.379   9.991  -2.721  0.00  0.00    -0.050 A 
ATOM      5  C   UNL     1      -0.049   9.033  -3.662  0.00  0.00    +0.008 A 
ATOM      6  C   UNL     1       0.194   7.731  -3.269  0.00  0.00    -0.028 A 
ATOM      7  C   UNL     1       0.106   7.385  -1.927  0.00  0.00    +0.045 A 
ATOM      8  C   UNL     1      -0.231   8.348  -0.985  0.00  0.00    -0.028 A 
ATOM      9  C   UNL     1      -0.468   9.649  -1.384  0.00  0.00    +0.008 A 
ATOM     10  C   UNL     1      -0.333   7.975   0.472  0.00  0.00    +0.046 C 
ATOM     11  C   UNL     1       0.554   6.688  -4.296  0.00  0.00    +0.046 C 
ENDBRANCH   1   7
BRANCH   1  12
ATOM     12  S   UNL     1       1.214   5.772  -0.144  0.00  0.00    +0.143 S 
ATOM     13  O   UNL     1       2.544   6.138  -0.484  0.00  0.00    -0.232 OA
BRANCH  12  14
ATOM     14  C   UNL     1       1.268   4.013  -0.046  0.00  0.00    +0.060 A 
ATOM     15  C   UNL     1       2.304   3.319  -0.642  0.00  0.00    +0.019 A 
ATOM     16  C   UNL     1       2.346   1.940  -0.565  0.00  0.00    +0.003 A 
ATOM     17  C   UNL     1       1.353   1.254   0.109  0.00  0.00    +0.033 A 
ATOM     18  C   UNL     1       0.314   1.948   0.701  0.00  0.00    +0.127 A 
ATOM     19  C   UNL     1       0.274   3.328   0.627  0.00  0.00    +0.051 A 
BRANCH  18  20
ATOM     20  N   UNL     1      -0.753   1.214   1.417  0.00  0.00    +0.056 N 
ATOM     21  O   UNL     1      -0.716  -0.002   1.485  0.00  0.00    -0.126 OA
ATOM     22  O   UNL     1      -1.668   1.825   1.939  0.00  0.00    -0.126 OA
ENDBRANCH  18  20
ENDBRANCH  12  14
ENDBRANCH   1  12
TORSDOF 4
