REMARK  Name = ZINC04738075
REMARK  5 active torsions:
REMARK  status: ('A' for Active; 'I' for Inactive)
REMARK    1  A    between atoms: C_3  and  C_10
REMARK    2  A    between atoms: C_5  and  N_7
REMARK    3  A    between atoms: C_10  and  C_11
REMARK    4  A    between atoms: N_17  and  N_18
REMARK    5  A    between atoms: C_19  and  C_20
REMARK                            x       y       z     vdW  Elec       q    Type
REMARK                         _______ _______ _______ _____ _____    ______ ____
ROOT
ATOM      1  C   UNL     1       7.812  -3.850  -0.091  0.00  0.00    +0.144 C 
ATOM      2  C   UNL     1       6.309  -4.077  -0.078  0.00  0.00    +0.232 C 
ATOM      3  O   UNL     1       5.825  -5.189  -0.079  0.00  0.00    -0.274 OA
ATOM      4  N   UNL     1       5.562  -2.986  -0.059  0.00  0.00    -0.263 N 
ATOM      5  C   UNL     1       6.107  -1.719  -0.065  0.00  0.00    +0.183 C 
ATOM      6  N   UNL     1       5.476  -0.563  -0.053  0.00  0.00    -0.127 NA
ATOM      7  S   UNL     1       7.868  -2.015  -0.083  0.00  0.00    -0.075 S 
ATOM      8  H   UNL     1       4.597  -3.081  -0.045  0.00  0.00    +0.157 HD
ENDROOT
BRANCH   6   9
ATOM      9  N   UNL     1       4.187  -0.532  -0.040  0.00  0.00    -0.152 NA
ATOM     10  C   UNL     1       3.560   0.617  -0.029  0.00  0.00    +0.181 C 
BRANCH  10  11
ATOM     11  C   UNL     1       2.099   0.652  -0.015  0.00  0.00    +0.147 A 
ATOM     12  C   UNL     1       1.322   1.777  -0.001  0.00  0.00    +0.051 A 
ATOM     13  C   UNL     1      -0.016   1.345   0.009  0.00  0.00    +0.042 A 
ATOM     14  C   UNL     1       0.002  -0.004   0.002  0.00  0.00    +0.196 A 
ATOM     15  O   UNL     1       1.280  -0.419  -0.012  0.00  0.00    -0.462 OA
ENDBRANCH  10  11
ENDBRANCH   6   9
BRANCH   1  16
ATOM     16  C   UNL     1       8.471  -4.431   1.161  0.00  0.00    +0.059 C 
BRANCH  16  19
ATOM     17  C   UNL     1      12.180  -4.741   0.526  0.00  0.00    +0.002 A 
ATOM     18  C   UNL     1      10.826  -5.020   0.551  0.00  0.00    +0.004 A 
ATOM     19  C   UNL     1       9.947  -4.129   1.138  0.00  0.00    -0.044 A 
ATOM     20  C   UNL     1      10.424  -2.963   1.709  0.00  0.00    +0.036 A 
ATOM     21  C   UNL     1      11.777  -2.687   1.687  0.00  0.00    +0.126 A 
ATOM     22  C   UNL     1      12.656  -3.575   1.095  0.00  0.00    +0.033 A 
BRANCH  21  23
ATOM     23  N   UNL     1      12.287  -1.438   2.298  0.00  0.00    +0.056 N 
ATOM     24  O   UNL     1      11.514  -0.655   2.819  0.00  0.00    -0.126 OA
ATOM     25  O   UNL     1      13.480  -1.194   2.279  0.00  0.00    -0.126 OA
ENDBRANCH  21  23
ENDBRANCH  16  19
ENDBRANCH   1  16
TORSDOF 5
