REMARK  Name = ZINC50706151
REMARK  6 active torsions:
REMARK  status: ('A' for Active; 'I' for Inactive)
REMARK    1  A    between atoms: C_1  and  C_2
REMARK    2  A    between atoms: C_8  and  C_10
REMARK    3  A    between atoms: C_10  and  N_11
REMARK    4  A    between atoms: C_12  and  C_14
REMARK    5  A    between atoms: C_16  and  N_23
REMARK    6  A    between atoms: C_19  and  N_20
REMARK                            x       y       z     vdW  Elec       q    Type
REMARK                         _______ _______ _______ _____ _____    ______ ____
ROOT
ATOM      1  N   UNL     1       3.237   0.238   2.416  0.00  0.00    -0.311 N 
ATOM      2  C   UNL     1       4.573   0.132   2.556  0.00  0.00    +0.246 C 
ATOM      3  O   UNL     1       5.313   0.672   1.758  0.00  0.00    -0.270 OA
ATOM      4  H   UNL     1       2.646  -0.193   3.053  0.00  0.00    +0.149 HD
ENDROOT
BRANCH   2   5
ATOM      5  C   UNL     1       5.138  -0.644   3.681  0.00  0.00    +0.069 A 
ATOM      6  C   UNL     1       4.772  -0.342   4.993  0.00  0.00    +0.038 A 
ATOM      7  C   UNL     1       5.306  -1.074   6.042  0.00  0.00    +0.025 A 
ATOM      8  C   UNL     1       6.205  -2.103   5.786  0.00  0.00    +0.025 A 
ATOM      9  C   UNL     1       6.568  -2.401   4.486  0.00  0.00    +0.035 A 
ATOM     10  C   UNL     1       6.037  -1.683   3.434  0.00  0.00    +0.138 A 
BRANCH  10  11
ATOM     11  N   UNL     1       6.424  -2.011   2.043  0.00  0.00    +0.057 N 
ATOM     12  O   UNL     1       7.293  -2.825   1.834  0.00  0.00    -0.126 OA
ATOM     13  O   UNL     1       5.872  -1.464   1.117  0.00  0.00    -0.126 OA
ENDBRANCH  10  11
BRANCH   7  14
ATOM     14  N   UNL     1       4.943  -0.776   7.358  0.00  0.00    -0.358 N 
ATOM     15  H   UNL     1       4.316  -0.057   7.537  0.00  0.00    +0.142 HD
ATOM     16  H   UNL     1       5.317  -1.287   8.092  0.00  0.00    +0.142 HD
ENDBRANCH   7  14
ENDBRANCH   2   5
BRANCH   1  17
ATOM     17  C   UNL     1       2.676   1.006   1.301  0.00  0.00    +0.108 C 
BRANCH  17  24
ATOM     18  C   UNL     1       1.036   3.119   0.105  0.00  0.00    +0.008 C 
ATOM     19  C   UNL     1       0.562   1.665   0.143  0.00  0.00    -0.010 C 
ATOM     20  C   UNL     1      -0.965   1.627   0.215  0.00  0.00    +0.003 C 
ATOM     21  C   UNL     1      -1.434   2.349   1.480  0.00  0.00    +0.000 C 
ATOM     22  C   UNL     1      -0.848   1.654   2.711  0.00  0.00    +0.000 C 
ATOM     23  C   UNL     1       0.680   1.691   2.639  0.00  0.00    +0.005 C 
ATOM     24  C   UNL     1       1.148   0.969   1.373  0.00  0.00    +0.009 C 
ENDBRANCH  17  24
ENDBRANCH   1  17
TORSDOF 5
