REMARK  Name = ZINC36085159
REMARK  6 active torsions:
REMARK  status: ('A' for Active; 'I' for Inactive)
REMARK    1  A    between atoms: C_5  and  C_7
REMARK    2  A    between atoms: C_7  and  N_8
REMARK    3  A    between atoms: C_11  and  C_23
REMARK    4  A    between atoms: N_13  and  C_16
REMARK    5  A    between atoms: N_25  and  C_26
REMARK    6  A    between atoms: C_26  and  C_27
REMARK                            x       y       z     vdW  Elec       q    Type
REMARK                         _______ _______ _______ _____ _____    ______ ____
ROOT
ATOM      1  N   UNL     1       1.488  -2.679   1.333  0.00  0.00    -0.253 N 
ATOM      2  C   UNL     1       2.755  -2.889   1.760  0.00  0.00    +0.288 A 
ATOM      3  O   UNL     1       3.707  -2.676   1.034  0.00  0.00    -0.265 OA
ATOM      4  C   UNL     1       2.941  -3.386   3.137  0.00  0.00    +0.210 A 
ATOM      5  N   UNL     1       1.875  -3.599   3.879  0.00  0.00    -0.152 NA
ATOM      6  N   UNL     1       0.694  -3.383   3.424  0.00  0.00    -0.178 N 
ATOM      7  C   UNL     1       0.470  -2.927   2.181  0.00  0.00    +0.353 A 
ATOM      8  O   UNL     1      -0.673  -2.738   1.813  0.00  0.00    -0.244 OA
ENDROOT
BRANCH   6   9
ATOM      9  C   UNL     1      -0.403  -3.628   4.258  0.00  0.00    +0.106 A 
ATOM     10  C   UNL     1      -1.336  -2.626   4.493  0.00  0.00    +0.031 A 
ATOM     11  C   UNL     1      -2.417  -2.871   5.317  0.00  0.00    +0.002 A 
ATOM     12  C   UNL     1      -2.573  -4.112   5.907  0.00  0.00    +0.003 A 
ATOM     13  C   UNL     1      -1.647  -5.113   5.676  0.00  0.00    +0.040 A 
ATOM     14  C   UNL     1      -0.565  -4.877   4.848  0.00  0.00    +0.149 A 
ATOM     15  F   UNL     1       0.337  -5.857   4.617  0.00  0.00    -0.203 F 
ENDBRANCH   6   9
BRANCH   4  16
ATOM     16  C   UNL     1       4.292  -3.638   3.670  0.00  0.00    +0.270 C 
ATOM     17  O   UNL     1       5.268  -3.437   2.972  0.00  0.00    -0.268 OA
ATOM     18  N   UNL     1       4.446  -4.092   4.929  0.00  0.00    -0.303 N 
ATOM     19  H   UNL     1       3.667  -4.252   5.485  0.00  0.00    +0.150 HD
BRANCH  18  20
ATOM     20  C   UNL     1       5.788  -4.343   5.459  0.00  0.00    +0.179 C 
BRANCH  20  21
ATOM     21  C   UNL     1       5.684  -4.840   6.877  0.00  0.00    +0.122 A 
ATOM     22  C   UNL     1       5.587  -6.128   7.254  0.00  0.00    +0.046 A 
ATOM     23  C   UNL     1       5.512  -6.137   8.666  0.00  0.00    +0.041 A 
ATOM     24  C   UNL     1       5.569  -4.855   9.068  0.00  0.00    +0.195 A 
ATOM     25  O   UNL     1       5.678  -4.074   7.980  0.00  0.00    -0.466 OA
ENDBRANCH  20  21
ENDBRANCH  18  20
ENDBRANCH   4  16
BRANCH   1  26
ATOM     26  C   UNL     1       1.228  -2.186  -0.022  0.00  0.00    +0.168 C 
BRANCH  26  31
ATOM     27  C   UNL     1      -0.017   1.378   0.010  0.00  0.00    +0.000 A 
ATOM     28  C   UNL     1       1.171   2.087   0.002  0.00  0.00    +0.003 A 
ATOM     29  C   UNL     1       2.377   1.414  -0.013  0.00  0.00    +0.039 A 
ATOM     30  C   UNL     1       2.397   0.029  -0.021  0.00  0.00    +0.128 A 
ATOM     31  C   UNL     1       1.208  -0.679  -0.013  0.00  0.00    +0.008 A 
ATOM     32  C   UNL     1       0.002  -0.004   0.002  0.00  0.00    +0.008 A 
ATOM     33  F   UNL     1       3.577  -0.630  -0.036  0.00  0.00    -0.205 F 
ENDBRANCH  26  31
ENDBRANCH   1  26
TORSDOF 6
