REMARK  Name = ZINC53350486
REMARK  8 active torsions:
REMARK  status: ('A' for Active; 'I' for Inactive)
REMARK    1  A    between atoms: C_1  and  C_2
REMARK    2  A    between atoms: N_7  and  C_9
REMARK    3  A    between atoms: C_9  and  C_10
REMARK    4  A    between atoms: C_15  and  C_16
REMARK    5  A    between atoms: C_16  and  N_17
REMARK    6  A    between atoms: C_18  and  C_20
REMARK    7  A    between atoms: C_20  and  S_21
REMARK    8  A    between atoms: S_21  and  C_22
REMARK                            x       y       z     vdW  Elec       q    Type
REMARK                         _______ _______ _______ _____ _____    ______ ____
ROOT
ATOM      1  C   UNL     1       1.666  -3.960   2.315  0.00  0.00    -0.059 A 
ATOM      2  C   UNL     1       0.837  -4.766   3.073  0.00  0.00    +0.002 A 
ATOM      3  C   UNL     1       0.959  -6.141   3.004  0.00  0.00    +0.000 A 
ATOM      4  C   UNL     1       1.909  -6.711   2.177  0.00  0.00    +0.000 A 
ATOM      5  C   UNL     1       2.736  -5.905   1.418  0.00  0.00    +0.005 A 
ATOM      6  C   UNL     1       2.612  -4.530   1.484  0.00  0.00    -0.029 A 
ENDROOT
BRANCH   1   7
ATOM      7  C   UNL     1       1.534  -2.461   2.390  0.00  0.00    -0.043 C 
BRANCH   7  13
ATOM      8  C   UNL     1      -0.019   1.526   0.010  0.00  0.00    +0.005 C 
ATOM      9  C   UNL     1       0.002  -0.004   0.002  0.00  0.00    -0.031 C 
ATOM     10  C   UNL     1      -1.434  -0.535   0.015  0.00  0.00    -0.001 C 
ATOM     11  C   UNL     1      -1.402  -2.064   0.086  0.00  0.00    -0.018 C 
ATOM     12  C   UNL     1      -0.613  -2.496   1.324  0.00  0.00    -0.078 C 
ATOM     13  N   UNL     1       0.758  -1.980   1.239  0.00  0.00    +0.383 N 
ATOM     14  C   UNL     1       0.740  -0.512   1.242  0.00  0.00    -0.075 C 
ATOM     15  H   UNL     1       1.188  -2.307   0.386  0.00  0.00    -0.081 HD
ENDBRANCH   7  13
ENDBRANCH   1   7
BRANCH   6  16
ATOM     16  C   UNL     1       3.511  -3.651   0.652  0.00  0.00    +0.139 C 
BRANCH  16  17
ATOM     17  N   UNL     1       4.603  -3.142   1.486  0.00  0.00    -0.311 N 
ATOM     18  C   UNL     1       5.536  -2.330   0.952  0.00  0.00    +0.224 C 
ATOM     19  O   UNL     1       5.472  -2.020  -0.219  0.00  0.00    -0.275 OA
ATOM     20  H   UNL     1       4.654  -3.390   2.423  0.00  0.00    +0.149 HD
BRANCH  18  21
ATOM     21  C   UNL     1       6.660  -1.806   1.810  0.00  0.00    +0.172 C 
BRANCH  21  22
ATOM     22  S   UNL     1       7.742  -0.749   0.809  0.00  0.00    -0.088 S 
BRANCH  22  23
ATOM     23  C   UNL     1       8.987  -0.223   1.939  0.00  0.00    +0.160 A 
ATOM     24  N   UNL     1       9.134  -0.515   3.217  0.00  0.00    -0.133 NA
ATOM     25  N   UNL     1      10.192   0.010   3.922  0.00  0.00    -0.125 NA
ATOM     26  C   UNL     1      11.054   0.803   3.318  0.00  0.00    +0.180 A 
ATOM     27  S   UNL     1      10.393   0.842   1.659  0.00  0.00    -0.025 S 
ATOM     28  N   UNL     1      12.180   1.435   3.832  0.00  0.00    -0.336 N 
ATOM     29  H   UNL     1      12.420   1.315   4.765  0.00  0.00    +0.144 HD
ATOM     30  H   UNL     1      12.726   1.996   3.259  0.00  0.00    +0.144 HD
ENDBRANCH  22  23
ENDBRANCH  21  22
ENDBRANCH  18  21
ENDBRANCH  16  17
ENDBRANCH   6  16
TORSDOF 7
