REMARK  Name = ZINC29570804
REMARK  13 active torsions:
REMARK  status: ('A' for Active; 'I' for Inactive)
REMARK    1  A    between atoms: C_1  and  C_2
REMARK    2  A    between atoms: C_5  and  N_9
REMARK    3  A    between atoms: C_6  and  C_8
REMARK    4  A    between atoms: C_13  and  C_15
REMARK    5  A    between atoms: C_15  and  C_17
REMARK    6  A    between atoms: C_15  and  S_18
REMARK    7  A    between atoms: S_18  and  C_19
REMARK    8  A    between atoms: C_23  and  C_25
REMARK    9  A    between atoms: C_25  and  C_26
REMARK   10  A    between atoms: C_25  and  C_27
REMARK   11  A    between atoms: C_25  and  C_28
REMARK   12  A    between atoms: N_29  and  C_36
REMARK   13  A    between atoms: N_32  and  C_35
REMARK                            x       y       z     vdW  Elec       q    Type
REMARK                         _______ _______ _______ _____ _____    ______ ____
ROOT
ATOM      1  S   UNL     1      -7.369   1.054   0.230  0.00  0.00    -0.093 S 
ENDROOT
BRANCH   1   2
ATOM      2  C   UNL     1      -8.714   2.190   0.141  0.00  0.00    +0.116 A 
ATOM      3  C   UNL     1     -10.010   1.806   0.519  0.00  0.00    +0.114 A 
ATOM      4  C   UNL     1     -11.048   2.753   0.434  0.00  0.00    +0.154 A 
ATOM      5  N   UNL     1     -10.767   3.971  -0.009  0.00  0.00    -0.213 NA
ATOM      6  C   UNL     1      -9.535   4.289  -0.360  0.00  0.00    +0.138 A 
ATOM      7  N   UNL     1      -8.531   3.438  -0.292  0.00  0.00    -0.224 NA
ATOM      8  N   UNL     1     -12.319   2.378   0.810  0.00  0.00    -0.281 N 
ATOM      9  C   UNL     1     -12.562   1.132   1.254  0.00  0.00    +0.333 A 
ATOM     10  O   UNL     1     -13.697   0.841   1.576  0.00  0.00    -0.246 OA
ATOM     11  N   UNL     1     -11.605   0.196   1.358  0.00  0.00    -0.263 N 
ATOM     12  C   UNL     1     -10.325   0.463   1.014  0.00  0.00    +0.268 A 
ATOM     13  O   UNL     1      -9.461  -0.388   1.109  0.00  0.00    -0.267 OA
ATOM     14  C   UNL     1     -11.955  -1.139   1.852  0.00  0.00    +0.157 C 
ATOM     15  C   UNL     1     -13.417   3.344   0.724  0.00  0.00    +0.155 C 
BRANCH   6  16
ATOM     16  C   UNL     1      -9.265   5.686  -0.858  0.00  0.00    +0.022 C 
ATOM     17  C   UNL     1      -7.781   5.826  -1.203  0.00  0.00    +0.019 C 
ATOM     18  C   UNL     1     -10.107   5.952  -2.108  0.00  0.00    +0.019 C 
ATOM     19  C   UNL     1      -9.633   6.696   0.230  0.00  0.00    +0.019 C 
ENDBRANCH   6  16
ENDBRANCH   1   2
BRANCH   1  20
ATOM     20  C   UNL     1      -6.028   2.108  -0.377  0.00  0.00    +0.136 C 
ATOM     21  C   UNL     1      -6.290   2.478  -1.838  0.00  0.00    +0.029 C 
BRANCH  20  26
ATOM     22  N   UNL     1      -1.237   2.069   0.019  0.00  0.00    -0.269 N 
ATOM     23  C   UNL     1      -2.394   1.385  -0.081  0.00  0.00    +0.310 C 
ATOM     24  O   UNL     1      -2.383   0.170  -0.088  0.00  0.00    -0.252 OA
ATOM     25  N   UNL     1      -3.563   2.049  -0.173  0.00  0.00    -0.239 N 
ATOM     26  C   UNL     1      -4.721   1.365  -0.273  0.00  0.00    +0.233 C 
ATOM     27  O   UNL     1      -4.710   0.153  -0.280  0.00  0.00    -0.274 OA
ATOM     28  H   UNL     1      -1.252   3.166   0.100  0.00  0.00    +0.156 HD
ATOM     29  H   UNL     1      -3.574   3.149  -0.167  0.00  0.00    +0.159 HD
BRANCH  22  34
ATOM     30  C   UNL     1       3.704  -0.718   0.008  0.00  0.00    +0.044 C 
ATOM     31  C   UNL     1       2.392   0.023   0.013  0.00  0.00    -0.050 A 
ATOM     32  C   UNL     1       1.282  -0.542   0.613  0.00  0.00    +0.005 A 
ATOM     33  C   UNL     1       0.078   0.134   0.619  0.00  0.00    +0.024 A 
ATOM     34  C   UNL     1      -0.017   1.384   0.020  0.00  0.00    +0.038 A 
ATOM     35  C   UNL     1       1.099   1.949  -0.581  0.00  0.00    -0.029 A 
ATOM     36  C   UNL     1       2.300   1.267  -0.584  0.00  0.00    +0.008 A 
ATOM     37  C   UNL     1       1.000   3.305  -1.232  0.00  0.00    +0.045 C 
ENDBRANCH  22  34
ENDBRANCH  20  26
ENDBRANCH   1  20
TORSDOF 5
