REMARK  Name = ZINC58294021
REMARK  9 active torsions:
REMARK  status: ('A' for Active; 'I' for Inactive)
REMARK    1  A    between atoms: C_1  and  C_2
REMARK    2  A    between atoms: C_2  and  C_3
REMARK    3  A    between atoms: C_2  and  C_4
REMARK    4  A    between atoms: C_4  and  N_5
REMARK    5  A    between atoms: C_7  and  C_14
REMARK    6  A    between atoms: N_16  and  C_17
REMARK    7  A    between atoms: C_20  and  N_23
REMARK    8  A    between atoms: C_24  and  N_30
REMARK    9  A    between atoms: C_25  and  C_28
REMARK                            x       y       z     vdW  Elec       q    Type
REMARK                         _______ _______ _______ _____ _____    ______ ____
ROOT
ATOM      1  C   UNL     1      -1.579  -5.082  -2.050  0.00  0.00    +0.250 C 
ATOM      2  O   UNL     1      -1.502  -6.245  -1.703  0.00  0.00    -0.270 OA
ATOM      3  N   UNL     1      -1.745  -4.776  -3.352  0.00  0.00    -0.281 N 
ATOM      4  H   UNL     1      -1.874  -3.853  -3.620  0.00  0.00    +0.155 HD
ENDROOT
BRANCH   1   7
ATOM      5  N   UNL     1      -1.439  -1.993  -0.113  0.00  0.00    -0.346 N 
ATOM      6  C   UNL     1      -1.559  -2.668  -1.282  0.00  0.00    +0.100 A 
ATOM      7  C   UNL     1      -1.490  -4.010  -1.049  0.00  0.00    +0.062 A 
ATOM      8  C   UNL     1      -1.309  -4.173   0.405  0.00  0.00    +0.012 A 
ATOM      9  C   UNL     1      -1.280  -2.874   0.937  0.00  0.00    +0.050 A 
ATOM     10  C   UNL     1      -1.113  -2.701   2.307  0.00  0.00    +0.026 A 
ATOM     11  C   UNL     1      -0.977  -3.800   3.127  0.00  0.00    +0.002 A 
ATOM     12  C   UNL     1      -1.003  -5.083   2.599  0.00  0.00    +0.001 A 
ATOM     13  C   UNL     1      -1.175  -5.275   1.246  0.00  0.00    +0.011 A 
BRANCH   5  14
ATOM     14  C   UNL     1      -1.467  -0.534   0.016  0.00  0.00    +0.124 C 
BRANCH  14  16
ATOM     15  C   UNL     1      -0.068   1.536   0.016  0.00  0.00    +0.009 C 
ATOM     16  C   UNL     1      -0.036   0.007   0.006  0.00  0.00    +0.003 C 
ATOM     17  C   UNL     1       0.708  -0.495   1.246  0.00  0.00    +0.009 C 
ENDBRANCH  14  16
ENDBRANCH   5  14
ENDBRANCH   1   7
BRANCH   3  18
ATOM     18  C   UNL     1      -1.733  -5.790  -4.316  0.00  0.00    +0.034 A 
ATOM     19  C   UNL     1      -1.183  -5.551  -5.569  0.00  0.00    +0.025 A 
ATOM     20  C   UNL     1      -1.171  -6.551  -6.520  0.00  0.00    +0.029 A 
ATOM     21  C   UNL     1      -1.709  -7.797  -6.224  0.00  0.00    +0.068 A 
ATOM     22  C   UNL     1      -2.259  -8.036  -4.972  0.00  0.00    +0.029 A 
ATOM     23  C   UNL     1      -2.265  -7.038  -4.018  0.00  0.00    +0.025 A 
BRANCH  21  24
ATOM     24  N   UNL     1      -1.696  -8.813  -7.190  0.00  0.00    -0.218 N 
ATOM     25  C   UNL     1      -1.540 -10.134  -6.947  0.00  0.00    +0.137 A 
ATOM     26  C   UNL     1      -1.590 -10.785  -8.176  0.00  0.00    +0.111 A 
ATOM     27  C   UNL     1      -1.784  -9.792  -9.164  0.00  0.00    +0.155 A 
ATOM     28  N   UNL     1      -1.850  -8.633  -8.569  0.00  0.00    -0.172 NA
BRANCH  25  29
ATOM     29  N   UNL     1      -1.363 -10.725  -5.710  0.00  0.00    -0.342 N 
ATOM     30  H   UNL     1      -1.342 -10.178  -4.909  0.00  0.00    +0.144 HD
ATOM     31  H   UNL     1      -1.259 -11.687  -5.643  0.00  0.00    +0.144 HD
ENDBRANCH  25  29
BRANCH  26  32
ATOM     32  C   UNL     1      -1.468 -12.195  -8.398  0.00  0.00    +0.104 C 
ATOM     33  N   UNL     1      -1.371 -13.313  -8.575  0.00  0.00    -0.191 NA
ENDBRANCH  26  32
ENDBRANCH  21  24
ENDBRANCH   3  18
TORSDOF 7
