REMARK  Name = ZINC39668783
REMARK  9 active torsions:
REMARK  status: ('A' for Active; 'I' for Inactive)
REMARK    1  A    between atoms: C_1  and  C_2
REMARK    2  A    between atoms: C_3  and  C_8
REMARK    3  A    between atoms: C_4  and  C_7
REMARK    4  A    between atoms: C_12  and  C_21
REMARK    5  A    between atoms: N_23  and  C_24
REMARK    6  A    between atoms: C_24  and  C_25
REMARK    7  A    between atoms: C_25  and  C_27
REMARK    8  A    between atoms: C_25  and  O_28
REMARK    9  A    between atoms: O_28  and  C_29
REMARK                            x       y       z     vdW  Elec       q    Type
REMARK                         _______ _______ _______ _____ _____    ______ ____
ROOT
ATOM      1  C   UNL     1      -0.293  -0.946  -0.852  0.00  0.00    +0.252 C 
ATOM      2  O   UNL     1       0.792  -0.985  -1.400  0.00  0.00    -0.270 OA
ATOM      3  N   UNL     1      -1.419  -0.888  -1.591  0.00  0.00    -0.296 N 
ATOM      4  C   UNL     1      -2.819  -0.828  -1.108  0.00  0.00    +0.121 C 
ATOM      5  C   UNL     1      -3.520   0.161  -2.066  0.00  0.00    +0.100 C 
ATOM      6  C   UNL     1      -2.675   0.129  -3.351  0.00  0.00    -0.004 C 
ATOM      7  C   UNL     1      -1.537  -0.862  -3.068  0.00  0.00    +0.115 C 
ATOM      8  C   UNL     1      -2.102   1.512  -3.642  0.00  0.00    -0.010 C 
ATOM      9  C   UNL     1      -1.313   1.468  -4.954  0.00  0.00    -0.082 C 
ATOM     10  N   UNL     1      -2.199   1.044  -6.045  0.00  0.00    +0.379 N 
ATOM     11  C   UNL     1      -2.673  -0.324  -5.803  0.00  0.00    -0.082 C 
ATOM     12  C   UNL     1      -3.518  -0.355  -4.526  0.00  0.00    -0.010 C 
ATOM     13  H   UNL     1      -2.990   1.668  -6.096  0.00  0.00    -0.086 HD
ATOM     14  H   UNL     1      -1.694   1.074  -6.917  0.00  0.00    -0.086 HD
ENDROOT
BRANCH   1  17
ATOM     15  C   UNL     1      -0.288   1.646   1.088  0.00  0.00    +0.070 C 
ATOM     16  C   UNL     1      -0.375   0.201   1.507  0.00  0.00    +0.093 A 
ATOM     17  C   UNL     1      -0.376  -0.963   0.619  0.00  0.00    +0.101 A 
ATOM     18  C   UNL     1      -0.470  -2.068   1.417  0.00  0.00    +0.147 A 
ATOM     19  O   UNL     1      -0.523  -1.658   2.687  0.00  0.00    -0.359 OA
ATOM     20  N   UNL     1      -0.459  -0.246   2.725  0.00  0.00    -0.083 NA
ATOM     21  C   UNL     1      -0.506  -3.499   0.946  0.00  0.00    +0.090 C 
ENDBRANCH   1  17
BRANCH   5  22
ATOM     22  C   UNL     1      -3.528   1.548  -1.476  0.00  0.00    +0.218 C 
ATOM     23  O   UNL     1      -2.682   1.867  -0.667  0.00  0.00    -0.275 OA
ATOM     24  N   UNL     1      -4.475   2.433  -1.845  0.00  0.00    -0.312 N 
ATOM     25  H   UNL     1      -5.151   2.177  -2.492  0.00  0.00    +0.149 HD
BRANCH  24  26
ATOM     26  C   UNL     1      -4.482   3.780  -1.271  0.00  0.00    +0.148 C 
BRANCH  26  27
ATOM     27  C   UNL     1      -5.651   4.577  -1.854  0.00  0.00    +0.187 C 
ATOM     28  C   UNL     1      -5.586   6.020  -1.351  0.00  0.00    +0.053 C 
BRANCH  27  29
ATOM     29  O   UNL     1      -6.884   3.984  -1.443  0.00  0.00    -0.486 OA
BRANCH  29  30
ATOM     30  C   UNL     1      -7.965   4.194  -2.239  0.00  0.00    +0.139 A 
ATOM     31  C   UNL     1      -7.878   5.041  -3.339  0.00  0.00    +0.049 A 
ATOM     32  C   UNL     1      -9.007   5.224  -4.120  0.00  0.00    +0.023 A 
ATOM     33  C   UNL     1     -10.175   4.564  -3.785  0.00  0.00    +0.111 A 
ATOM     34  N   UNL     1     -10.224   3.767  -2.735  0.00  0.00    -0.260 NA
ATOM     35  C   UNL     1      -9.171   3.562  -1.969  0.00  0.00    +0.156 A 
ENDBRANCH  29  30
ENDBRANCH  27  29
ENDBRANCH  26  27
ENDBRANCH  24  26
ENDBRANCH   5  22
TORSDOF 6
