REMARK  Name = ZINC34906274
REMARK  10 active torsions:
REMARK  status: ('A' for Active; 'I' for Inactive)
REMARK    1  A    between atoms: C_1  and  C_2
REMARK    2  A    between atoms: C_2  and  C_3
REMARK    3  A    between atoms: C_2  and  C_4
REMARK    4  A    between atoms: C_7  and  O_10
REMARK    5  A    between atoms: O_10  and  C_11
REMARK    6  A    between atoms: C_11  and  C_12
REMARK    7  A    between atoms: C_14  and  C_17
REMARK    8  A    between atoms: N_19  and  C_20
REMARK    9  A    between atoms: C_26  and  N_28
REMARK   10  A    between atoms: N_31  and  C_32
REMARK                            x       y       z     vdW  Elec       q    Type
REMARK                         _______ _______ _______ _____ _____    ______ ____
ROOT
ATOM      1  C   UNL     1       6.620  -2.264  -8.539  0.00  0.00    +0.263 C 
ATOM      2  O   UNL     1       6.926  -2.774  -9.600  0.00  0.00    -0.269 OA
ATOM      3  N   UNL     1       7.195  -1.105  -8.158  0.00  0.00    -0.305 N 
ATOM      4  H   UNL     1       6.951  -0.699  -7.311  0.00  0.00    +0.149 HD
ENDROOT
BRANCH   3   5
ATOM      5  C   UNL     1       8.187  -0.461  -9.021  0.00  0.00    +0.093 C 
ATOM      6  C   UNL     1       9.567  -1.064  -8.751  0.00  0.00    +0.024 C 
ATOM      7  C   UNL     1      10.603  -0.391  -9.653  0.00  0.00    +0.002 C 
ATOM      8  C   UNL     1      10.637   1.110  -9.360  0.00  0.00    +0.002 C 
ATOM      9  C   UNL     1       9.257   1.713  -9.630  0.00  0.00    +0.024 C 
ATOM     10  C   UNL     1       8.220   1.040  -8.728  0.00  0.00    +0.095 C 
BRANCH  10  11
ATOM     11  N   UNL     1       6.899   1.618  -8.987  0.00  0.00    -0.295 N 
ATOM     12  C   UNL     1       6.523   2.749  -8.357  0.00  0.00    +0.300 C 
ATOM     13  O   UNL     1       7.280   3.289  -7.574  0.00  0.00    -0.253 OA
ATOM     14  N   UNL     1       5.308   3.280  -8.595  0.00  0.00    -0.297 N 
ATOM     15  H   UNL     1       6.295   1.187  -9.611  0.00  0.00    +0.151 HD
ATOM     16  H   UNL     1       4.703   2.849  -9.220  0.00  0.00    +0.151 HD
BRANCH  14  17
ATOM     17  C   UNL     1       4.899   4.509  -7.911  0.00  0.00    +0.074 C 
ATOM     18  C   UNL     1       4.316   4.160  -6.540  0.00  0.00    +0.022 C 
ATOM     19  C   UNL     1       3.889   5.443  -5.825  0.00  0.00    +0.002 C 
ATOM     20  C   UNL     1       2.829   6.164  -6.661  0.00  0.00    +0.000 C 
ATOM     21  C   UNL     1       3.412   6.514  -8.032  0.00  0.00    +0.002 C 
ATOM     22  C   UNL     1       3.839   5.230  -8.747  0.00  0.00    +0.022 C 
ENDBRANCH  14  17
ENDBRANCH  10  11
ENDBRANCH   3   5
BRANCH   1  25
ATOM     23  C   UNL     1       4.367  -3.018  -5.784  0.00  0.00    +0.116 A 
ATOM     24  N   UNL     1       5.258  -2.385  -6.497  0.00  0.00    -0.236 NA
ATOM     25  C   UNL     1       5.623  -2.911  -7.670  0.00  0.00    +0.133 A 
ATOM     26  C   UNL     1       5.014  -4.088  -8.017  0.00  0.00    +0.080 A 
ATOM     27  S   UNL     1       4.003  -4.373  -6.706  0.00  0.00    -0.076 S 
BRANCH  23  28
ATOM     28  C   UNL     1       3.802  -2.628  -4.442  0.00  0.00    +0.291 C 
BRANCH  28  29
ATOM     29  O   UNL     1       2.638  -1.822  -4.632  0.00  0.00    -0.485 OA
BRANCH  29  33
ATOM     30  C   UNL     1       0.707  -0.490  -1.238  0.00  0.00    -0.045 A 
ATOM     31  C   UNL     1       0.221  -0.150  -2.487  0.00  0.00    +0.007 A 
ATOM     32  C   UNL     1       0.865  -0.595  -3.625  0.00  0.00    +0.046 A 
ATOM     33  C   UNL     1       2.002  -1.383  -3.514  0.00  0.00    +0.121 A 
ATOM     34  C   UNL     1       2.489  -1.722  -2.260  0.00  0.00    +0.046 A 
ATOM     35  C   UNL     1       1.843  -1.270  -1.125  0.00  0.00    +0.007 A 
BRANCH  30  37
ATOM     36  C   UNL     1      -0.019   1.526   0.010  0.00  0.00    +0.012 C 
ATOM     37  C   UNL     1       0.002  -0.004   0.002  0.00  0.00    +0.013 C 
ATOM     38  C   UNL     1      -1.433  -0.534   0.013  0.00  0.00    +0.012 C 
ENDBRANCH  30  37
ENDBRANCH  29  33
ENDBRANCH  28  29
ENDBRANCH  23  28
ENDBRANCH   1  25
TORSDOF 8
