REMARK  Name = ZINC52774626
REMARK  9 active torsions:
REMARK  status: ('A' for Active; 'I' for Inactive)
REMARK    1  A    between atoms: C_1  and  C_2
REMARK    2  A    between atoms: N_5  and  C_8
REMARK    3  A    between atoms: C_11  and  N_14
REMARK    4  A    between atoms: N_14  and  C_15
REMARK    5  A    between atoms: C_15  and  C_17
REMARK    6  A    between atoms: C_15  and  C_18
REMARK    7  A    between atoms: N_23  and  C_24
REMARK    8  A    between atoms: C_24  and  C_25
REMARK    9  A    between atoms: C_24  and  C_26
REMARK                            x       y       z     vdW  Elec       q    Type
REMARK                         _______ _______ _______ _____ _____    ______ ____
ROOT
ATOM      1  N   UNL     1      -0.870  -8.033   1.708  0.00  0.00    -0.333 N 
ATOM      2  H   UNL     1      -0.473  -8.580   1.012  0.00  0.00    +0.147 HD
ENDROOT
BRANCH   1   6
ATOM      3  C   UNL     1      -0.748  -3.881   1.414  0.00  0.00    +0.014 A 
ATOM      4  C   UNL     1      -0.182  -4.660   0.421  0.00  0.00    +0.023 A 
ATOM      5  C   UNL     1      -0.220  -6.037   0.516  0.00  0.00    +0.025 A 
ATOM      6  C   UNL     1      -0.829  -6.640   1.609  0.00  0.00    +0.028 A 
ATOM      7  C   UNL     1      -1.397  -5.854   2.604  0.00  0.00    +0.025 A 
ATOM      8  C   UNL     1      -1.350  -4.478   2.506  0.00  0.00    +0.023 A 
BRANCH   3  13
ATOM      9  C   UNL     1      -0.019   1.526   0.010  0.00  0.00    +0.007 C 
ATOM     10  C   UNL     1       0.002  -0.004   0.002  0.00  0.00    -0.011 C 
ATOM     11  C   UNL     1      -1.434  -0.536   0.023  0.00  0.00    +0.020 C 
ATOM     12  C   UNL     1      -1.405  -2.064   0.095  0.00  0.00    +0.085 C 
ATOM     13  N   UNL     1      -0.707  -2.487   1.315  0.00  0.00    -0.393 NA
ATOM     14  C   UNL     1       0.691  -2.042   1.269  0.00  0.00    +0.085 C 
ATOM     15  C   UNL     1       0.743  -0.513   1.242  0.00  0.00    +0.020 C 
ATOM     16  H   UNL     1      -1.162  -2.082   2.119  0.00  0.00    +0.126 HD
ENDBRANCH   3  13
ENDBRANCH   1   6
BRANCH   1  17
ATOM     17  C   UNL     1      -1.512  -8.666   2.862  0.00  0.00    +0.154 C 
ATOM     18  C   UNL     1      -3.016  -8.787   2.607  0.00  0.00    +0.038 C 
BRANCH  17  19
ATOM     19  C   UNL     1      -0.927 -10.039   3.071  0.00  0.00    +0.240 C 
ATOM     20  O   UNL     1      -0.059 -10.448   2.330  0.00  0.00    -0.273 OA
ATOM     21  N   UNL     1      -1.368 -10.813   4.083  0.00  0.00    -0.239 N 
ATOM     22  C   UNL     1      -0.845 -12.041   4.270  0.00  0.00    +0.306 C 
ATOM     23  O   UNL     1       0.025 -12.450   3.526  0.00  0.00    -0.252 OA
ATOM     24  N   UNL     1      -1.286 -12.815   5.281  0.00  0.00    -0.297 N 
ATOM     25  H   UNL     1      -2.062 -10.486   4.676  0.00  0.00    +0.159 HD
ATOM     26  H   UNL     1      -1.980 -12.488   5.875  0.00  0.00    +0.151 HD
BRANCH  24  27
ATOM     27  C   UNL     1      -0.717 -14.149   5.485  0.00  0.00    +0.068 C 
ATOM     28  C   UNL     1       0.559 -14.037   6.322  0.00  0.00    +0.027 C 
ATOM     29  C   UNL     1      -1.731 -15.030   6.217  0.00  0.00    +0.027 C 
ENDBRANCH  24  27
ENDBRANCH  17  19
ENDBRANCH   1  17
TORSDOF 5
