REMARK  Name = ZINC21050720
REMARK  5 active torsions:
REMARK  status: ('A' for Active; 'I' for Inactive)
REMARK    1  A    between atoms: C_1  and  O_2
REMARK    2  A    between atoms: O_2  and  C_3
REMARK    3  A    between atoms: C_8  and  C_9
REMARK    4  A    between atoms: C_9  and  N_10
REMARK    5  A    between atoms: C_11  and  C_13
REMARK                            x       y       z     vdW  Elec       q    Type
REMARK                         _______ _______ _______ _____ _____    ______ ____
ROOT
ATOM      1  C   UNL     1      -1.306   1.641   0.017  0.00  0.00    +0.247 C 
ATOM      2  N   UNL     1      -0.767   2.606   0.973  0.00  0.00    -0.319 N 
ATOM      3  C   UNL     1      -1.508   3.663   1.494  0.00  0.00    +0.055 A 
ATOM      4  C   UNL     1      -0.831   4.770   2.006  0.00  0.00    +0.025 A 
ATOM      5  C   UNL     1      -1.536   5.826   2.544  0.00  0.00    +0.002 A 
ATOM      6  C   UNL     1      -2.918   5.795   2.583  0.00  0.00    +0.002 A 
ATOM      7  C   UNL     1      -3.597   4.703   2.071  0.00  0.00    +0.030 A 
ATOM      8  C   UNL     1      -2.895   3.649   1.524  0.00  0.00    +0.126 A 
ATOM      9  S   UNL     1      -3.768   2.275   0.835  0.00  0.00    +0.062 S 
ATOM     10  O   UNL     1      -4.606   1.760   1.860  0.00  0.00    -0.153 OA
ATOM     11  O   UNL     1      -4.264   2.689  -0.430  0.00  0.00    -0.153 OA
ATOM     12  N   UNL     1      -2.591   1.128   0.545  0.00  0.00    -0.161 NA
ATOM     13  H   UNL     1       0.275   2.517   1.315  0.00  0.00    +0.148 HD
ATOM     14  H   UNL     1      -2.783   0.045   0.567  0.00  0.00    +0.151 HD
ENDROOT
BRANCH   1  16
ATOM     15  N   UNL     1      -1.759   1.578  -2.413  0.00  0.00    -0.308 N 
ATOM     16  C   UNL     1      -1.534   2.318  -1.310  0.00  0.00    +0.250 C 
ATOM     17  O   UNL     1      -1.514   3.528  -1.385  0.00  0.00    -0.272 OA
ATOM     18  H   UNL     1      -1.777   0.480  -2.345  0.00  0.00    +0.149 HD
BRANCH  15  19
ATOM     19  C   UNL     1      -1.980   2.236  -3.704  0.00  0.00    +0.143 C 
BRANCH  19  25
ATOM     20  C   UNL     1      -3.451   0.593  -4.898  0.00  0.00    +0.125 A 
ATOM     21  C   UNL     1      -3.657  -0.367  -5.879  0.00  0.00    +0.046 A 
ATOM     22  C   UNL     1      -2.622  -0.724  -6.721  0.00  0.00    +0.004 A 
ATOM     23  C   UNL     1      -1.383  -0.126  -6.588  0.00  0.00    +0.001 A 
ATOM     24  C   UNL     1      -1.177   0.835  -5.616  0.00  0.00    +0.009 A 
ATOM     25  C   UNL     1      -2.207   1.192  -4.767  0.00  0.00    +0.011 A 
BRANCH  20  27
ATOM     26  C   UNL     1      -5.721   0.289  -4.261  0.00  0.00    +0.277 C 
ATOM     27  O   UNL     1      -4.468   0.947  -4.069  0.00  0.00    -0.495 OA
ENDBRANCH  20  27
ENDBRANCH  19  25
ENDBRANCH  15  19
ENDBRANCH   1  16
TORSDOF 4
