REMARK  Name = ZINC39631965
REMARK  14 active torsions:
REMARK  status: ('A' for Active; 'I' for Inactive)
REMARK    1  A    between atoms: C_1  and  C_2
REMARK    2  A    between atoms: C_12  and  O_13
REMARK    3  A    between atoms: O_13  and  C_14
REMARK    4  A    between atoms: C_14  and  C_15
REMARK    5  A    between atoms: C_19  and  C_28
REMARK    6  A    between atoms: N_30  and  C_31
REMARK    7  A    between atoms: C_31  and  C_33
REMARK    8  A    between atoms: C_31  and  C_34
REMARK    9  A    between atoms: C_34  and  C_35
REMARK   10  A    between atoms: C_35  and  C_36
REMARK   11  A    between atoms: C_36  and  C_37
REMARK   12  A    between atoms: C_37  and  C_38
REMARK   13  A    between atoms: C_37  and  C_39
REMARK   14  A    between atoms: C_37  and  O_40
REMARK                            x       y       z     vdW  Elec       q    Type
REMARK                         _______ _______ _______ _____ _____    ______ ____
ROOT
ATOM      1  C   UNL     1       0.141  -6.566   3.313  0.00  0.00    +0.253 C 
ATOM      2  O   UNL     1       0.091  -7.026   2.192  0.00  0.00    -0.272 OA
ATOM      3  N   UNL     1       0.125  -7.389   4.380  0.00  0.00    -0.297 N 
ATOM      4  C   UNL     1       0.171  -7.019   5.814  0.00  0.00    +0.121 C 
ATOM      5  C   UNL     1      -0.808  -7.996   6.502  0.00  0.00    +0.100 C 
ATOM      6  C   UNL     1      -0.877  -9.210   5.559  0.00  0.00    -0.004 C 
ATOM      7  C   UNL     1       0.051  -8.870   4.384  0.00  0.00    +0.115 C 
ATOM      8  C   UNL     1      -2.304  -9.408   5.057  0.00  0.00    -0.010 C 
ATOM      9  C   UNL     1      -2.359 -10.654   4.168  0.00  0.00    -0.082 C 
ATOM     10  N   UNL     1      -1.922 -11.825   4.937  0.00  0.00    +0.379 N 
ATOM     11  C   UNL     1      -0.519 -11.667   5.338  0.00  0.00    -0.082 C 
ATOM     12  C   UNL     1      -0.386 -10.464   6.276  0.00  0.00    -0.010 C 
ATOM     13  H   UNL     1      -2.497 -11.919   5.761  0.00  0.00    -0.086 HD
ATOM     14  H   UNL     1      -2.017 -12.654   4.368  0.00  0.00    -0.086 HD
ENDROOT
BRANCH   5  15
ATOM     15  C   UNL     1      -0.278  -8.407   7.851  0.00  0.00    +0.218 C 
ATOM     16  O   UNL     1       0.918  -8.472   8.039  0.00  0.00    -0.275 OA
ATOM     17  N   UNL     1      -1.134  -8.701   8.850  0.00  0.00    -0.312 N 
ATOM     18  H   UNL     1      -2.091  -8.649   8.700  0.00  0.00    +0.149 HD
BRANCH  17  19
ATOM     19  C   UNL     1      -0.619  -9.100  10.162  0.00  0.00    +0.070 C 
ATOM     20  C   UNL     1      -0.332 -10.603  10.162  0.00  0.00    +0.028 C 
BRANCH  19  21
ATOM     21  C   UNL     1      -1.660  -8.780  11.237  0.00  0.00    +0.022 C 
BRANCH  21  22
ATOM     22  C   UNL     1      -1.855  -7.264  11.323  0.00  0.00    +0.005 C 
BRANCH  22  23
ATOM     23  C   UNL     1      -2.895  -6.944  12.398  0.00  0.00    +0.034 C 
BRANCH  23  24
ATOM     24  C   UNL     1      -3.091  -5.429  12.483  0.00  0.00    +0.061 C 
ATOM     25  C   UNL     1      -4.036  -5.101  13.640  0.00  0.00    +0.041 C 
ATOM     26  C   UNL     1      -1.739  -4.753  12.722  0.00  0.00    +0.041 C 
BRANCH  24  27
ATOM     27  O   UNL     1      -3.652  -4.952  11.259  0.00  0.00    -0.389 OA
ATOM     28  H   UNL     1      -3.804  -3.997  11.242  0.00  0.00    +0.210 HD
ENDBRANCH  24  27
ENDBRANCH  23  24
ENDBRANCH  22  23
ENDBRANCH  21  22
ENDBRANCH  19  21
ENDBRANCH  17  19
ENDBRANCH   5  15
BRANCH   1  29
ATOM     29  C   UNL     1       0.221  -5.075   3.513  0.00  0.00    +0.324 C 
BRANCH  29  30
ATOM     30  O   UNL     1       0.223  -4.423   2.242  0.00  0.00    -0.479 OA
BRANCH  30  42
ATOM     31  C   UNL     1       0.450   1.273  -0.243  0.00  0.00    +0.045 C 
ATOM     32  C   UNL     1       0.375  -0.232  -0.214  0.00  0.00    -0.033 A 
ATOM     33  C   UNL     1       0.312  -0.950  -1.363  0.00  0.00    +0.096 A 
ATOM     34  C   UNL     1       0.243  -2.359  -1.308  0.00  0.00    +0.338 A 
ATOM     35  O   UNL     1       0.187  -2.991  -2.347  0.00  0.00    -0.245 OA
ATOM     36  O   UNL     1       0.237  -3.018  -0.140  0.00  0.00    -0.418 OA
ATOM     37  C   UNL     1       0.298  -2.364   1.040  0.00  0.00    +0.181 A 
ATOM     38  C   UNL     1       0.374  -0.961   1.059  0.00  0.00    +0.024 A 
ATOM     39  C   UNL     1       0.443  -0.281   2.279  0.00  0.00    +0.012 A 
ATOM     40  C   UNL     1       0.440  -0.992   3.458  0.00  0.00    +0.004 A 
ATOM     41  C   UNL     1       0.370  -2.377   3.442  0.00  0.00    +0.049 A 
ATOM     42  C   UNL     1       0.291  -3.065   2.244  0.00  0.00    +0.164 A 
ENDBRANCH  30  42
ENDBRANCH  29  30
ENDBRANCH   1  29
TORSDOF 10
