REMARK  Name = ZINC20536787
REMARK  10 active torsions:
REMARK  status: ('A' for Active; 'I' for Inactive)
REMARK    1  A    between atoms: C_1  and  C_2
REMARK    2  A    between atoms: C_2  and  C_3
REMARK    3  A    between atoms: C_2  and  O_4
REMARK    4  A    between atoms: O_4  and  C_5
REMARK    5  A    between atoms: C_8  and  C_13
REMARK    6  A    between atoms: C_10  and  C_11
REMARK    7  A    between atoms: C_11  and  O_12
REMARK    8  A    between atoms: C_13  and  N_14
REMARK    9  A    between atoms: N_14  and  C_15
REMARK   10  A    between atoms: N_20  and  C_22
REMARK                            x       y       z     vdW  Elec       q    Type
REMARK                         _______ _______ _______ _____ _____    ______ ____
ROOT
ATOM      1  N   UNL     1      -4.832  -0.463  -0.366  0.00  0.00    -0.311 NA
ATOM      2  H   UNL     1      -5.150   0.491  -0.811  0.00  0.00    +0.122 HD
ENDROOT
BRANCH   1   3
ATOM      3  C   UNL     1      -3.541  -0.849  -0.952  0.00  0.00    +0.037 C 
ATOM      4  C   UNL     1      -3.500  -0.427  -2.423  0.00  0.00    +0.015 C 
ATOM      5  C   UNL     1      -2.130  -0.779  -3.009  0.00  0.00    -0.017 C 
ATOM      6  C   UNL     1      -1.038  -0.085  -2.193  0.00  0.00    -0.078 C 
ATOM      7  N   UNL     1      -1.118  -0.522  -0.793  0.00  0.00    +0.383 N 
ATOM      8  C   UNL     1      -2.407  -0.152  -0.195  0.00  0.00    -0.060 C 
ATOM      9  H   UNL     1      -1.045  -1.620  -0.780  0.00  0.00    -0.081 HD
BRANCH   7  10
ATOM     10  C   UNL     1       0.001   0.017  -0.008  0.00  0.00    -0.060 C 
ATOM     11  C   UNL     1       1.346  -0.550  -0.509  0.00  0.00    +0.020 C 
ATOM     12  C   UNL     1       2.197  -0.708   0.733  0.00  0.00    -0.046 A 
ATOM     13  C   UNL     1       3.566  -0.867   0.868  0.00  0.00    +0.004 A 
ATOM     14  C   UNL     1       4.130  -0.994   2.123  0.00  0.00    +0.000 A 
ATOM     15  C   UNL     1       3.326  -0.963   3.247  0.00  0.00    +0.000 A 
ATOM     16  C   UNL     1       1.960  -0.805   3.113  0.00  0.00    +0.004 A 
ATOM     17  C   UNL     1       1.393  -0.677   1.857  0.00  0.00    -0.046 A 
ATOM     18  C   UNL     1      -0.053  -0.495   1.447  0.00  0.00    +0.020 C 
ENDBRANCH   7  10
ENDBRANCH   1   3
BRANCH   1  19
ATOM     19  C   UNL     1      -5.853  -1.487  -0.622  0.00  0.00    +0.116 C 
BRANCH  19  23
ATOM     20  C   UNL     1      -9.560  -0.268   1.119  0.00  0.00    +0.126 A 
ATOM     21  C   UNL     1      -9.256   0.087  -0.187  0.00  0.00    +0.046 A 
ATOM     22  C   UNL     1      -8.057  -0.308  -0.748  0.00  0.00    +0.008 A 
ATOM     23  C   UNL     1      -7.160  -1.058  -0.008  0.00  0.00    -0.033 A 
ATOM     24  C   UNL     1      -7.463  -1.418   1.292  0.00  0.00    +0.014 A 
ATOM     25  C   UNL     1      -8.659  -1.020   1.859  0.00  0.00    +0.020 A 
BRANCH  20  26
ATOM     26  O   UNL     1     -10.739   0.119   1.673  0.00  0.00    -0.489 OA
BRANCH  26  28
ATOM     27  C   UNL     1     -13.084   0.612   1.356  0.00  0.00    +0.051 C 
ATOM     28  C   UNL     1     -11.663   0.801   0.822  0.00  0.00    +0.167 C 
ATOM     29  C   UNL     1     -11.323   2.293   0.792  0.00  0.00    +0.051 C 
ENDBRANCH  26  28
ENDBRANCH  20  26
BRANCH  25  30
ATOM     30  C   UNL     1      -8.987  -1.408   3.278  0.00  0.00    +0.194 C 
BRANCH  30  31
ATOM     31  O   UNL     1      -7.910  -2.174   3.823  0.00  0.00    -0.390 OA
ATOM     32  H   UNL     1      -7.969  -2.548   4.855  0.00  0.00    +0.210 HD
ENDBRANCH  30  31
ENDBRANCH  25  30
ENDBRANCH  19  23
ENDBRANCH   1  19
TORSDOF 8
