REMARK  Name = ZINC16969316
REMARK  14 active torsions:
REMARK  status: ('A' for Active; 'I' for Inactive)
REMARK    1  A    between atoms: C_1  and  C_2
REMARK    2  A    between atoms: C_15  and  O_39
REMARK    3  A    between atoms: C_18  and  C_38
REMARK    4  A    between atoms: C_23  and  C_24
REMARK    5  A    between atoms: C_23  and  O_37
REMARK    6  A    between atoms: C_24  and  C_26
REMARK    7  A    between atoms: C_26  and  O_27
REMARK    8  A    between atoms: O_27  and  C_28
REMARK    9  A    between atoms: C_28  and  C_30
REMARK   10  A    between atoms: C_30  and  C_31
REMARK   11  A    between atoms: C_31  and  C_32
REMARK   12  A    between atoms: C_31  and  C_33
REMARK   13  A    between atoms: C_31  and  C_34
REMARK   14  A    between atoms: C_34  and  C_35
REMARK                            x       y       z     vdW  Elec       q    Type
REMARK                         _______ _______ _______ _____ _____    ______ ____
ROOT
ATOM      1  C   UNL     1      -0.211   0.437   2.182  0.00  0.00    +0.016 C 
ATOM      2  C   UNL     1      -0.433   1.510   1.115  0.00  0.00    -0.005 C 
ATOM      3  C   UNL     1       0.337   1.072  -0.105  0.00  0.00    +0.019 C 
ATOM      4  C   UNL     1      -0.309   1.552  -1.404  0.00  0.00    +0.080 C 
ATOM      5  C   UNL     1      -1.750   1.076  -1.403  0.00  0.00    +0.156 C 
ATOM      6  O   UNL     1      -2.221   0.449  -2.329  0.00  0.00    -0.293 OA
ATOM      7  C   UNL     1      -2.541   1.421  -0.213  0.00  0.00    +0.046 C 
ATOM      8  C   UNL     1      -1.913   1.634   0.940  0.00  0.00    -0.060 C 
ATOM      9  C   UNL     1      -2.729   2.031   2.158  0.00  0.00    +0.032 C 
ATOM     10  C   UNL     1      -2.118   3.317   2.728  0.00  0.00    +0.008 C 
ATOM     11  C   UNL     1      -0.632   3.104   3.018  0.00  0.00    -0.001 C 
ATOM     12  C   UNL     1       0.119   2.808   1.709  0.00  0.00    +0.031 C 
ATOM     13  C   UNL     1       1.623   2.681   1.940  0.00  0.00    +0.119 C 
ATOM     14  C   UNL     1       2.200   3.901   2.676  0.00  0.00    +0.041 C 
ATOM     15  C   UNL     1       1.441   4.037   3.982  0.00  0.00    +0.009 C 
ATOM     16  C   UNL     1      -0.035   4.360   3.625  0.00  0.00    +0.002 C 
ATOM     17  C   UNL     1      -0.615   4.787   4.977  0.00  0.00    +0.008 C 
ATOM     18  C   UNL     1       0.521   5.654   5.586  0.00  0.00    +0.043 C 
ATOM     19  C   UNL     1       1.834   5.193   4.905  0.00  0.00    +0.133 C 
ATOM     20  C   UNL     1       1.509   2.723   4.763  0.00  0.00    +0.015 C 
ENDROOT
BRANCH  19  21
ATOM     21  C   UNL     1       2.825   4.732   5.943  0.00  0.00    +0.202 C 
ATOM     22  O   UNL     1       2.437   4.333   7.014  0.00  0.00    -0.291 OA
BRANCH  21  23
ATOM     23  C   UNL     1       4.302   4.769   5.643  0.00  0.00    +0.309 C 
BRANCH  23  24
ATOM     24  O   UNL     1       5.042   4.278   6.792  0.00  0.00    -0.457 OA
BRANCH  24  25
ATOM     25  C   UNL     1       6.379   4.247   6.687  0.00  0.00    +0.308 C 
ATOM     26  O   UNL     1       6.915   4.617   5.669  0.00  0.00    -0.251 OA
BRANCH  25  27
ATOM     27  C   UNL     1       7.214   3.749   7.839  0.00  0.00    +0.127 C 
BRANCH  27  28
ATOM     28  C   UNL     1       8.695   3.816   7.462  0.00  0.00    -0.015 C 
ATOM     29  C   UNL     1       8.949   2.941   6.233  0.00  0.00    +0.012 C 
ATOM     30  C   UNL     1       9.075   5.264   7.145  0.00  0.00    +0.012 C 
BRANCH  28  31
ATOM     31  C   UNL     1       9.542   3.311   8.632  0.00  0.00    +0.132 C 
BRANCH  31  32
ATOM     32  C   UNL     1      11.002   3.377   8.261  0.00  0.00    +0.357 C 
ATOM     33  O   UNL     1      11.330   3.787   7.172  0.00  0.00    -0.246 OA
ATOM     34  O   UNL     1      11.936   2.982   9.139  0.00  0.00    -0.246 OA
ENDBRANCH  31  32
ENDBRANCH  28  31
ENDBRANCH  27  28
ENDBRANCH  25  27
ENDBRANCH  24  25
ENDBRANCH  23  24
ENDBRANCH  21  23
ENDBRANCH  19  21
BRANCH  19  35
ATOM     35  O   UNL     1       2.389   6.257   4.129  0.00  0.00    -0.380 OA
ATOM     36  H   UNL     1       2.625   7.039   4.646  0.00  0.00    +0.211 HD
ENDBRANCH  19  35
BRANCH  13  37
ATOM     37  O   UNL     1       2.280   2.544   0.679  0.00  0.00    -0.391 OA
ATOM     38  H   UNL     1       3.236   2.416   0.746  0.00  0.00    +0.210 HD
ENDBRANCH  13  37
TORSDOF 10
