REMARK  Name = ZINC50244919
REMARK  3 active torsions:
REMARK  status: ('A' for Active; 'I' for Inactive)
REMARK    1  A    between atoms: C_7  and  C_11
REMARK    2  A    between atoms: C_7  and  N_14
REMARK    3  A    between atoms: C_17  and  N_20
REMARK                            x       y       z     vdW  Elec       q    Type
REMARK                         _______ _______ _______ _____ _____    ______ ____
ROOT
ATOM      1  C   UNL     1       0.002   1.383  -0.015  0.00  0.00    +0.000 A 
ATOM      2  C   UNL     1       1.194   2.084  -0.023  0.00  0.00    +0.004 A 
ATOM      3  C   UNL     1       2.394   1.403  -0.033  0.00  0.00    +0.046 A 
ATOM      4  C   UNL     1       2.409   0.012  -0.033  0.00  0.00    +0.123 A 
ATOM      5  C   UNL     1       1.215  -0.687  -0.021  0.00  0.00    -0.005 A 
ATOM      6  C   UNL     1       0.013   0.002  -0.014  0.00  0.00    +0.006 A 
ATOM      7  C   UNL     1       1.187  -2.194  -0.010  0.00  0.00    +0.070 C 
ATOM      8  C   UNL     1       2.546  -2.739  -0.456  0.00  0.00    +0.045 C 
ATOM      9  C   UNL     1       3.641  -2.001   0.325  0.00  0.00    +0.228 C 
ATOM     10  O   UNL     1       3.610  -0.623  -0.049  0.00  0.00    -0.492 OA
ENDROOT
BRANCH   7  11
ATOM     11  N   UNL     1       0.144  -2.671  -0.928  0.00  0.00    +0.395 N 
ATOM     12  C   UNL     1       0.263  -4.138  -1.133  0.00  0.00    -0.075 C 
ATOM     13  C   UNL     1      -0.459  -4.403  -2.471  0.00  0.00    -0.002 C 
ATOM     14  C   UNL     1      -0.406  -3.060  -3.229  0.00  0.00    +0.032 C 
ATOM     15  C   UNL     1       0.343  -2.096  -2.283  0.00  0.00    -0.058 C 
ATOM     16  H   UNL     1      -0.771  -2.435  -0.576  0.00  0.00    -0.080 HD
BRANCH  14  17
ATOM     17  N   UNL     1       0.330  -3.215  -4.491  0.00  0.00    -0.329 NA
ATOM     18  H   UNL     1      -0.128  -3.879  -5.097  0.00  0.00    +0.118 HD
ATOM     19  H   UNL     1       0.447  -2.325  -4.952  0.00  0.00    +0.118 HD
ENDBRANCH  14  17
ENDBRANCH   7  11
BRANCH   7  20
ATOM     20  C   UNL     1       0.886  -2.680   1.385  0.00  0.00    +0.350 C 
ATOM     21  O   UNL     1      -0.104  -3.360   1.593  0.00  0.00    -0.248 OA
ATOM     22  O   UNL     1       1.632  -2.391   2.305  0.00  0.00    -0.248 OA
ENDBRANCH   7  20
TORSDOF 3
