REMARK  Name = ZINC09970331
REMARK  12 active torsions:
REMARK  status: ('A' for Active; 'I' for Inactive)
REMARK    1  A    between atoms: C_1  and  C_2
REMARK    2  A    between atoms: C_2  and  C_31
REMARK    3  A    between atoms: C_3  and  C_29
REMARK    4  A    between atoms: C_3  and  O_30
REMARK    5  A    between atoms: C_4  and  C_27
REMARK    6  A    between atoms: C_4  and  O_28
REMARK    7  A    between atoms: C_5  and  C_25
REMARK    8  A    between atoms: C_5  and  O_26
REMARK    9  A    between atoms: C_6  and  C_8
REMARK   10  A    between atoms: C_6  and  O_9
REMARK   11  A    between atoms: O_9  and  C_10
REMARK   12  A    between atoms: C_31  and  O_32
REMARK                            x       y       z     vdW  Elec       q    Type
REMARK                         _______ _______ _______ _____ _____    ______ ____
ROOT
ATOM      1  C   UNL     1       4.065   6.901   2.837  0.00  0.00    +0.047 C 
ATOM      2  C   UNL     1       5.238   7.823   2.496  0.00  0.00    +0.125 C 
ATOM      3  C   UNL     1       4.882   9.273   2.792  0.00  0.00    +0.125 C 
ATOM      4  C   UNL     1       4.170   9.999   1.664  0.00  0.00    +0.129 C 
ATOM      5  C   UNL     1       4.686   9.642   0.278  0.00  0.00    +0.159 C 
ATOM      6  C   UNL     1       4.884   8.138   0.105  0.00  0.00    +0.242 C 
ATOM      7  O   UNL     1       5.674   7.624   1.164  0.00  0.00    -0.326 OA
ATOM      8  C   UNL     1       5.634   7.901  -1.220  0.00  0.00    +0.092 C 
ATOM      9  C   UNL     1       3.675  10.129  -0.773  0.00  0.00    +0.051 C 
ATOM     10  C   UNL     1       2.657   9.761   1.742  0.00  0.00    +0.047 C 
ATOM     11  C   UNL     1       6.167  10.036   3.158  0.00  0.00    +0.047 C 
ENDROOT
BRANCH   5  12
ATOM     12  O   UNL     1       5.933  10.309   0.039  0.00  0.00    -0.379 OA
ATOM     13  H   UNL     1       6.293  10.165  -0.847  0.00  0.00    +0.211 HD
ENDBRANCH   5  12
BRANCH   4  14
ATOM     14  O   UNL     1       4.381  11.418   1.854  0.00  0.00    -0.383 OA
ATOM     15  H   UNL     1       3.963  11.972   1.181  0.00  0.00    +0.210 HD
ENDBRANCH   4  14
BRANCH   3  16
ATOM     16  O   UNL     1       4.027   9.294   3.954  0.00  0.00    -0.383 OA
ATOM     17  H   UNL     1       4.432   8.918   4.747  0.00  0.00    +0.210 HD
ENDBRANCH   3  16
BRANCH   6  18
ATOM     18  O   UNL     1       3.624   7.475   0.021  0.00  0.00    -0.458 OA
BRANCH  18  19
ATOM     19  C   UNL     1       3.646   6.123  -0.086  0.00  0.00    +0.128 A 
ATOM     20  C   UNL     1       4.862   5.439   0.008  0.00  0.00    +0.048 A 
ATOM     21  C   UNL     1       4.904   4.085  -0.096  0.00  0.00    +0.035 A 
ATOM     22  C   UNL     1       3.712   3.356  -0.300  0.00  0.00    +0.107 A 
ATOM     23  C   UNL     1       2.480   4.049  -0.395  0.00  0.00    +0.157 A 
ATOM     24  C   UNL     1       2.463   5.431  -0.286  0.00  0.00    +0.094 A 
ATOM     25  O   UNL     1       1.326   3.373  -0.590  0.00  0.00    -0.452 OA
ATOM     26  C   UNL     1       1.361   2.028  -0.695  0.00  0.00    +0.157 A 
ATOM     27  C   UNL     1       0.224   1.301  -0.893  0.00  0.00    +0.099 A 
ATOM     28  C   UNL     1       0.288  -0.095  -0.999  0.00  0.00    +0.183 A 
ATOM     29  O   UNL     1      -0.743  -0.728  -1.177  0.00  0.00    -0.288 OA
ATOM     30  C   UNL     1       1.517  -0.790  -0.905  0.00  0.00    +0.053 A 
ATOM     31  C   UNL     1       2.678  -0.126  -0.708  0.00  0.00    +0.035 A 
ATOM     32  C   UNL     1       2.651   1.332  -0.593  0.00  0.00    +0.107 A 
ATOM     33  N   UNL     1       3.759   2.026  -0.402  0.00  0.00    -0.241 NA
ENDBRANCH  18  19
ENDBRANCH   6  18
BRANCH   2  34
ATOM     34  C   UNL     1       6.408   7.432   3.430  0.00  0.00    +0.193 C 
BRANCH  34  35
ATOM     35  O   UNL     1       6.751   6.061   3.216  0.00  0.00    -0.392 OA
ATOM     36  H   UNL     1       7.478   5.747   3.770  0.00  0.00    +0.210 HD
ENDBRANCH  34  35
ENDBRANCH   2  34
TORSDOF 7
