REMARK  Name = ZINC67531834
REMARK  6 active torsions:
REMARK  status: ('A' for Active; 'I' for Inactive)
REMARK    1  A    between atoms: C_1  and  O_2
REMARK    2  A    between atoms: O_2  and  C_3
REMARK    3  A    between atoms: N_5  and  C_6
REMARK    4  A    between atoms: C_8  and  N_13
REMARK    5  A    between atoms: C_14  and  C_16
REMARK    6  A    between atoms: C_24  and  O_28
REMARK                            x       y       z     vdW  Elec       q    Type
REMARK                         _______ _______ _______ _____ _____    ______ ____
ROOT
ATOM      1  N   UNL     1       3.295  -1.801   5.072  0.00  0.00    -0.278 N 
ATOM      2  C   UNL     1       4.056  -2.444   5.979  0.00  0.00    +0.303 C 
ATOM      3  O   UNL     1       4.135  -3.655   5.956  0.00  0.00    -0.265 OA
ATOM      4  H   UNL     1       3.163  -0.843   5.141  0.00  0.00    +0.155 HD
ENDROOT
BRANCH   2   5
ATOM      5  C   UNL     1       4.804  -1.667   7.011  0.00  0.00    +0.302 C 
ATOM      6  O   UNL     1       4.645  -0.467   7.101  0.00  0.00    -0.265 OA
ATOM      7  N   UNL     1       5.657  -2.297   7.843  0.00  0.00    -0.289 N 
ATOM      8  C   UNL     1       6.322  -1.581   8.944  0.00  0.00    +0.113 C 
ATOM      9  C   UNL     1       5.832  -2.184  10.260  0.00  0.00    +0.054 C 
ATOM     10  C   UNL     1       5.888  -3.688  10.215  0.00  0.00    -0.041 A 
ATOM     11  C   UNL     1       5.894  -4.368  11.428  0.00  0.00    +0.007 A 
ATOM     12  C   UNL     1       5.935  -5.745  11.461  0.00  0.00    +0.045 A 
ATOM     13  C   UNL     1       5.970  -6.462  10.274  0.00  0.00    +0.117 A 
ATOM     14  C   UNL     1       5.968  -5.786   9.066  0.00  0.00    +0.050 A 
ATOM     15  C   UNL     1       5.932  -4.399   9.037  0.00  0.00    -0.023 A 
ATOM     16  C   UNL     1       5.954  -3.725   7.692  0.00  0.00    +0.143 C 
BRANCH  13  17
ATOM     17  O   UNL     1       6.006  -7.821  10.296  0.00  0.00    -0.507 OA
ATOM     18  H   UNL     1       5.134  -8.238  10.292  0.00  0.00    +0.292 HD
ENDBRANCH  13  17
ENDBRANCH   2   5
BRANCH   1  21
ATOM     19  C   UNL     1       0.938  -2.748   2.409  0.00  0.00    +0.073 A 
ATOM     20  C   UNL     1       1.532  -2.037   3.441  0.00  0.00    +0.049 A 
ATOM     21  C   UNL     1       2.693  -2.516   4.032  0.00  0.00    +0.036 A 
ATOM     22  C   UNL     1       3.258  -3.705   3.588  0.00  0.00    +0.026 A 
ATOM     23  C   UNL     1       2.665  -4.412   2.559  0.00  0.00    +0.042 A 
ATOM     24  C   UNL     1       1.504  -3.941   1.972  0.00  0.00    +0.145 A 
ATOM     25  F   UNL     1       0.923  -4.638   0.971  0.00  0.00    -0.204 F 
BRANCH  19  28
ATOM     26  C   UNL     1      -0.423  -0.942   1.667  0.00  0.00    +0.404 C 
ATOM     27  O   UNL     1       0.382  -0.160   2.132  0.00  0.00    -0.226 OA
ATOM     28  N   UNL     1      -0.234  -2.268   1.810  0.00  0.00    -0.248 N 
ATOM     29  H   UNL     1      -0.910  -2.891   1.499  0.00  0.00    +0.158 HD
BRANCH  26  31
ATOM     30  C   UNL     1      -1.642   0.935   0.895  0.00  0.00    +0.282 C 
ATOM     31  O   UNL     1      -1.505  -0.483   1.009  0.00  0.00    -0.453 OA
ENDBRANCH  26  31
ENDBRANCH  19  28
ENDBRANCH   1  21
TORSDOF 5
