REMARK  Name = ZINC29811337
REMARK  8 active torsions:
REMARK  status: ('A' for Active; 'I' for Inactive)
REMARK    1  A    between atoms: C_1  and  C_2
REMARK    2  A    between atoms: C_2  and  C_4
REMARK    3  A    between atoms: C_2  and  N_16
REMARK    4  A    between atoms: N_6  and  C_7
REMARK    5  A    between atoms: N_16  and  C_17
REMARK    6  A    between atoms: C_20  and  N_23
REMARK    7  A    between atoms: N_26  and  C_27
REMARK    8  A    between atoms: C_27  and  C_28
REMARK                            x       y       z     vdW  Elec       q    Type
REMARK                         _______ _______ _______ _____ _____    ______ ____
ROOT
ATOM      1  N   UNL     1      -4.819   1.154  -0.317  0.00  0.00    -0.333 N 
ATOM      2  H   UNL     1      -4.640   0.146  -0.720  0.00  0.00    +0.147 HD
ENDROOT
BRANCH   1   3
ATOM      3  C   UNL     1      -6.102   1.522   0.102  0.00  0.00    +0.028 A 
ATOM      4  C   UNL     1      -6.327   2.793   0.616  0.00  0.00    +0.025 A 
ATOM      5  C   UNL     1      -7.595   3.158   1.023  0.00  0.00    +0.025 A 
ATOM      6  C   UNL     1      -8.642   2.251   0.930  0.00  0.00    +0.035 A 
ATOM      7  C   UNL     1      -8.416   0.979   0.422  0.00  0.00    +0.025 A 
ATOM      8  C   UNL     1      -7.150   0.615   0.009  0.00  0.00    +0.025 A 
BRANCH   6   9
ATOM      9  N   UNL     1      -9.928   2.620   1.349  0.00  0.00    -0.269 N 
ATOM     10  C   UNL     1     -10.735   1.710   1.930  0.00  0.00    +0.304 C 
ATOM     11  O   UNL     1     -10.380   0.550   2.016  0.00  0.00    -0.253 OA
ATOM     12  N   UNL     1     -11.935   2.086   2.415  0.00  0.00    -0.296 N 
ATOM     13  H   UNL     1     -10.279   3.653   1.203  0.00  0.00    +0.156 HD
ATOM     14  H   UNL     1     -12.256   3.135   2.336  0.00  0.00    +0.151 HD
BRANCH  12  15
ATOM     15  C   UNL     1     -12.812   1.096   3.046  0.00  0.00    +0.132 C 
BRANCH  15  16
ATOM     16  C   UNL     1     -14.083   1.768   3.499  0.00  0.00    -0.016 C 
ATOM     17  C   UNL     1     -15.244   1.310   3.100  0.00  0.00    +0.005 C 
ENDBRANCH  15  16
ENDBRANCH  12  15
ENDBRANCH   6   9
ENDBRANCH   1   3
BRANCH   1  19
ATOM     18  C   UNL     1      -3.703   3.006  -1.460  0.00  0.00    +0.038 C 
ATOM     19  C   UNL     1      -3.714   2.111  -0.219  0.00  0.00    +0.154 C 
BRANCH  19  20
ATOM     20  C   UNL     1      -2.409   1.363  -0.127  0.00  0.00    +0.237 C 
ATOM     21  O   UNL     1      -2.402   0.150  -0.142  0.00  0.00    -0.273 OA
ATOM     22  N   UNL     1      -1.248   2.042  -0.028  0.00  0.00    -0.282 N 
ATOM     23  H   UNL     1      -1.259   3.138   0.061  0.00  0.00    +0.155 HD
BRANCH  22  24
ATOM     24  C   UNL     1      -0.029   1.351  -0.039  0.00  0.00    +0.072 A 
ATOM     25  C   UNL     1       0.064   0.097   0.548  0.00  0.00    +0.029 A 
ATOM     26  C   UNL     1       1.265  -0.586   0.532  0.00  0.00    +0.043 A 
ATOM     27  C   UNL     1       2.377  -0.022  -0.070  0.00  0.00    +0.161 A 
ATOM     28  C   UNL     1       2.288   1.230  -0.658  0.00  0.00    +0.195 A 
ATOM     29  C   UNL     1       1.087   1.919  -0.643  0.00  0.00    +0.182 A 
ATOM     30  F   UNL     1       0.999   3.139  -1.216  0.00  0.00    -0.200 F 
ATOM     31  F   UNL     1       3.374   1.780  -1.244  0.00  0.00    -0.199 F 
ATOM     32  F   UNL     1       3.549  -0.693  -0.084  0.00  0.00    -0.202 F 
ENDBRANCH  22  24
ENDBRANCH  19  20
ENDBRANCH   1  19
TORSDOF 7
