REMARK  Name = ZINC01080620
REMARK  5 active torsions:
REMARK  status: ('A' for Active; 'I' for Inactive)
REMARK    1  A    between atoms: C_4  and  C_7
REMARK    2  A    between atoms: C_14  and  N_32
REMARK    3  A    between atoms: C_15  and  C_30
REMARK    4  A    between atoms: C_16  and  C_18
REMARK    5  A    between atoms: C_23  and  N_24
REMARK                            x       y       z     vdW  Elec       q    Type
REMARK                         _______ _______ _______ _____ _____    ______ ____
ROOT
ATOM      1  C   UNL     1       4.210  -1.338  -0.958  0.00  0.00    +0.100 A 
ATOM      2  C   UNL     1       4.220  -2.086   0.223  0.00  0.00    +0.054 A 
ATOM      3  C   UNL     1       5.463  -2.632   0.367  0.00  0.00    +0.223 A 
ATOM      4  N   UNL     1       6.207  -2.243  -0.689  0.00  0.00    -0.246 N 
ATOM      5  H   UNL     1       7.132  -2.482  -0.854  0.00  0.00    +0.192 HD
ATOM      6  N   UNL     1       5.404  -1.436  -1.511  0.00  0.00    -0.171 NA
ATOM      7  O   UNL     1       5.801  -3.416   1.421  0.00  0.00    -0.423 OA
ATOM      8  C   UNL     1       4.967  -3.431   2.481  0.00  0.00    +0.200 C 
ATOM      9  C   UNL     1       3.711  -2.932   2.457  0.00  0.00    +0.098 C 
ATOM     10  C   UNL     1       3.113  -2.307   1.221  0.00  0.00    +0.104 C 
ENDROOT
BRANCH  10  11
ATOM     11  C   UNL     1       2.077  -3.231   0.634  0.00  0.00    -0.001 A 
ATOM     12  C   UNL     1       2.459  -4.222  -0.253  0.00  0.00    +0.056 A 
ATOM     13  C   UNL     1       1.509  -5.072  -0.794  0.00  0.00    +0.167 A 
ATOM     14  C   UNL     1       0.169  -4.926  -0.442  0.00  0.00    +0.168 A 
ATOM     15  C   UNL     1      -0.206  -3.933   0.447  0.00  0.00    +0.082 A 
ATOM     16  C   UNL     1       0.748  -3.091   0.987  0.00  0.00    +0.134 A 
ATOM     17  O   UNL     1      -0.560  -5.873  -1.102  0.00  0.00    -0.453 OA
ATOM     18  C   UNL     1       0.287  -6.334  -2.171  0.00  0.00    +0.466 C 
ATOM     19  O   UNL     1       1.619  -6.109  -1.674  0.00  0.00    -0.453 OA
BRANCH  16  20
ATOM     20  N   UNL     1       0.346  -2.034   1.941  0.00  0.00    +0.057 N 
ATOM     21  O   UNL     1      -0.826  -1.827   2.155  0.00  0.00    -0.126 OA
ATOM     22  O   UNL     1       1.189  -1.377   2.507  0.00  0.00    -0.126 OA
ENDBRANCH  16  20
ENDBRANCH  10  11
BRANCH   1  26
ATOM     23  C   UNL     1       0.909   0.851  -2.506  0.00  0.00    +0.000 A 
ATOM     24  C   UNL     1       1.211   0.922  -1.158  0.00  0.00    +0.001 A 
ATOM     25  C   UNL     1       2.282   0.213  -0.651  0.00  0.00    +0.010 A 
ATOM     26  C   UNL     1       3.058  -0.575  -1.498  0.00  0.00    +0.003 A 
ATOM     27  C   UNL     1       2.748  -0.642  -2.855  0.00  0.00    +0.010 A 
ATOM     28  C   UNL     1       1.675   0.070  -3.352  0.00  0.00    +0.001 A 
ENDBRANCH   1  26
BRANCH   8  29
ATOM     29  N   UNL     1       5.421  -3.984   3.652  0.00  0.00    -0.328 N 
ATOM     30  H   UNL     1       6.318  -4.350   3.701  0.00  0.00    +0.145 HD
ATOM     31  H   UNL     1       4.844  -4.009   4.432  0.00  0.00    +0.145 HD
ENDBRANCH   8  29
BRANCH   9  32
ATOM     32  C   UNL     1       2.919  -3.000   3.648  0.00  0.00    +0.101 C 
ATOM     33  N   UNL     1       2.290  -3.054   4.593  0.00  0.00    -0.191 NA
ENDBRANCH   9  32
TORSDOF 5
