REMARK  Name = ZINC37906052
REMARK  6 active torsions:
REMARK  status: ('A' for Active; 'I' for Inactive)
REMARK    1  A    between atoms: C_1  and  C_2
REMARK    2  A    between atoms: C_2  and  C_3
REMARK    3  A    between atoms: C_3  and  C_4
REMARK    4  A    between atoms: C_6  and  C_9
REMARK    5  A    between atoms: C_9  and  N_10
REMARK    6  A    between atoms: C_19  and  N_20
REMARK                            x       y       z     vdW  Elec       q    Type
REMARK                         _______ _______ _______ _____ _____    ______ ____
ROOT
ATOM      1  N   UNL     1       1.827  -5.595   0.900  0.00  0.00    -0.321 N 
ATOM      2  C   UNL     1       2.459  -4.992   2.082  0.00  0.00    +0.106 C 
ATOM      3  C   UNL     1       2.763  -6.120   3.077  0.00  0.00    +0.024 C 
ATOM      4  C   UNL     1       1.445  -6.754   3.521  0.00  0.00    +0.040 C 
ATOM      5  C   UNL     1       0.612  -7.130   2.324  0.00  0.00    -0.006 A 
ATOM      6  C   UNL     1       0.819  -6.547   1.083  0.00  0.00    +0.035 A 
ATOM      7  C   UNL     1       0.025  -6.910  -0.000  0.00  0.00    +0.023 A 
ATOM      8  C   UNL     1      -0.974  -7.851   0.154  0.00  0.00    +0.004 A 
ATOM      9  C   UNL     1      -1.188  -8.434   1.388  0.00  0.00    +0.023 A 
ATOM     10  C   UNL     1      -0.392  -8.082   2.474  0.00  0.00    +0.030 A 
ENDROOT
BRANCH  10  11
ATOM     11  N   UNL     1      -0.610  -8.673   3.721  0.00  0.00    -0.358 N 
ATOM     12  H   UNL     1      -0.062  -8.420   4.480  0.00  0.00    +0.142 HD
ATOM     13  H   UNL     1      -1.309  -9.337   3.827  0.00  0.00    +0.142 HD
ENDBRANCH  10  11
BRANCH   1  14
ATOM     14  C   UNL     1       2.242  -5.200  -0.449  0.00  0.00    +0.203 C 
BRANCH  14  17
ATOM     15  C   UNL     1       0.739  -2.004  -1.265  0.00  0.00    +0.172 A 
ATOM     16  N   UNL     1       1.694  -2.772  -0.730  0.00  0.00    -0.195 NA
ATOM     17  C   UNL     1       1.409  -4.032  -0.909  0.00  0.00    +0.245 A 
ATOM     18  O   UNL     1       0.249  -4.109  -1.573  0.00  0.00    -0.336 OA
ATOM     19  N   UNL     1      -0.174  -2.771  -1.790  0.00  0.00    -0.061 NA
BRANCH  15  20
ATOM     20  C   UNL     1       0.718  -0.497  -1.257  0.00  0.00    +0.079 C 
BRANCH  20  22
ATOM     21  C   UNL     1      -0.019   1.526   0.010  0.00  0.00    +0.004 C 
ATOM     22  C   UNL     1       0.002  -0.004   0.002  0.00  0.00    +0.004 C 
ENDBRANCH  20  22
ENDBRANCH  15  20
ENDBRANCH  14  17
ENDBRANCH   1  14
TORSDOF 5
