REMARK  Name = ZINC42272549
REMARK  4 active torsions:
REMARK  status: ('A' for Active; 'I' for Inactive)
REMARK    1  A    between atoms: C_2  and  N_22
REMARK    2  A    between atoms: C_6  and  S_7
REMARK    3  A    between atoms: S_7  and  N_10
REMARK    4  A    between atoms: C_15  and  C_17
REMARK                            x       y       z     vdW  Elec       q    Type
REMARK                         _______ _______ _______ _____ _____    ______ ____
ROOT
ATOM      1  S   UNL     1      -1.850  -1.032   0.058  0.00  0.00    +0.063 S 
ATOM      2  O   UNL     1      -2.159   0.302  -0.321  0.00  0.00    -0.153 OA
ATOM      3  O   UNL     1      -0.716  -1.356   0.851  0.00  0.00    -0.153 OA
ENDROOT
BRANCH   1   9
ATOM      4  C   UNL     1      -3.102  -2.275   2.140  0.00  0.00    +0.055 A 
ATOM      5  C   UNL     1      -4.211  -2.762   2.817  0.00  0.00    +0.062 A 
ATOM      6  C   UNL     1      -5.479  -2.619   2.263  0.00  0.00    +0.145 A 
ATOM      7  C   UNL     1      -5.629  -1.993   1.039  0.00  0.00    +0.062 A 
ATOM      8  C   UNL     1      -4.521  -1.509   0.367  0.00  0.00    +0.070 A 
ATOM      9  C   UNL     1      -3.259  -1.650   0.917  0.00  0.00    +0.126 A 
ATOM     10 CL   UNL     1      -4.713  -0.725  -1.169  0.00  0.00    -0.081 Cl
ATOM     11  F   UNL     1      -6.561  -3.092   2.918  0.00  0.00    -0.204 F 
BRANCH   5  12
ATOM     12  N   UNL     1      -4.055  -3.396   4.054  0.00  0.00    -0.356 N 
ATOM     13  H   UNL     1      -3.170  -3.495   4.440  0.00  0.00    +0.142 HD
ATOM     14  H   UNL     1      -4.831  -3.736   4.527  0.00  0.00    +0.142 HD
ENDBRANCH   5  12
ENDBRANCH   1   9
BRANCH   1  15
ATOM     15  N   UNL     1      -1.711  -1.903  -1.344  0.00  0.00    -0.165 NA
ATOM     16  C   UNL     1      -2.265  -1.387  -2.603  0.00  0.00    +0.110 C 
ATOM     17  C   UNL     1      -3.189  -2.449  -3.207  0.00  0.00    +0.017 C 
ATOM     18  C   UNL     1      -2.421  -3.765  -3.350  0.00  0.00    +0.003 C 
ATOM     19  C   UNL     1      -1.969  -4.247  -1.970  0.00  0.00    +0.030 C 
ATOM     20  C   UNL     1      -1.026  -3.203  -1.353  0.00  0.00    +0.165 C 
BRANCH  20  21
ATOM     21  C   UNL     1      -0.681  -3.602   0.059  0.00  0.00    +0.229 C 
ATOM     22  O   UNL     1      -1.556  -3.691   0.894  0.00  0.00    -0.274 OA
ATOM     23  N   UNL     1       0.599  -3.860   0.392  0.00  0.00    -0.328 N 
ATOM     24  H   UNL     1       1.298  -3.788  -0.276  0.00  0.00    +0.145 HD
ATOM     25  H   UNL     1       0.821  -4.117   1.301  0.00  0.00    +0.145 HD
ENDBRANCH  20  21
ENDBRANCH   1  15
TORSDOF 4
