REMARK  Name = ZINC64173555
REMARK  7 active torsions:
REMARK  status: ('A' for Active; 'I' for Inactive)
REMARK    1  A    between atoms: C_7  and  C_10
REMARK    2  A    between atoms: C_10  and  C_11
REMARK    3  A    between atoms: C_11  and  C_12
REMARK    4  A    between atoms: N_14  and  C_15
REMARK    5  A    between atoms: C_15  and  C_16
REMARK    6  A    between atoms: C_19  and  S_21
REMARK    7  A    between atoms: S_21  and  N_24
REMARK                            x       y       z     vdW  Elec       q    Type
REMARK                         _______ _______ _______ _____ _____    ______ ____
ROOT
ATOM      1  C   UNL     1      -0.484  -4.830  -1.460  0.00  0.00    +0.214 C 
ATOM      2  O   UNL     1      -0.925  -5.254  -0.412  0.00  0.00    -0.276 OA
ATOM      3  N   UNL     1      -0.837  -5.413  -2.623  0.00  0.00    -0.311 N 
ATOM      4  H   UNL     1      -0.485  -5.075  -3.461  0.00  0.00    +0.149 HD
ENDROOT
BRANCH   1   5
ATOM      5  C   UNL     1       0.457  -3.653  -1.462  0.00  0.00    +0.100 C 
BRANCH   5   6
ATOM      6  C   UNL     1       0.691  -3.186  -0.024  0.00  0.00    +0.042 C 
BRANCH   6  13
ATOM      7  C   UNL     1      -0.016   1.348   0.009  0.00  0.00    +0.001 A 
ATOM      8  C   UNL     1       1.166   2.101   0.002  0.00  0.00    +0.002 A 
ATOM      9  C   UNL     1       2.391   1.535  -0.013  0.00  0.00    +0.026 A 
ATOM     10  C   UNL     1       2.529   0.120  -0.022  0.00  0.00    +0.043 A 
ATOM     11  N   UNL     1       3.587  -0.654  -0.037  0.00  0.00    -0.380 N 
ATOM     12  C   UNL     1       3.143  -2.053  -0.041  0.00  0.00    +0.144 C 
ATOM     13  C   UNL     1       1.631  -2.008  -0.025  0.00  0.00    -0.041 C 
ATOM     14  C   UNL     1       1.295  -0.698  -0.014  0.00  0.00    -0.001 A 
ATOM     15  C   UNL     1       0.002  -0.004   0.002  0.00  0.00    +0.010 A 
ATOM     16  H   UNL     1       4.509  -0.353  -0.045  0.00  0.00    +0.160 HD
ENDBRANCH   6  13
ENDBRANCH   5   6
ENDBRANCH   1   5
BRANCH   3  17
ATOM     17  C   UNL     1      -1.752  -6.557  -2.622  0.00  0.00    +0.146 C 
BRANCH  17  18
ATOM     18  C   UNL     1      -1.982  -7.018  -4.038  0.00  0.00    +0.009 A 
ATOM     19  C   UNL     1      -1.296  -7.939  -4.758  0.00  0.00    +0.015 A 
ATOM     20  C   UNL     1      -1.691  -8.205  -6.056  0.00  0.00    +0.037 A 
ATOM     21  C   UNL     1      -2.753  -7.537  -6.569  0.00  0.00    +0.143 A 
ATOM     22  S   UNL     1      -3.235  -6.499  -5.199  0.00  0.00    -0.072 S 
BRANCH  21  23
ATOM     23  S   UNL     1      -3.476  -7.666  -8.171  0.00  0.00    +0.067 S 
ATOM     24  O   UNL     1      -4.147  -6.437  -8.414  0.00  0.00    -0.152 OA
ATOM     25  O   UNL     1      -2.463  -8.164  -9.035  0.00  0.00    -0.152 OA
BRANCH  23  26
ATOM     26  N   UNL     1      -4.644  -8.836  -8.089  0.00  0.00    -0.172 NA
ATOM     27  C   UNL     1      -4.324 -10.247  -8.360  0.00  0.00    +0.137 C 
ATOM     28  C   UNL     1      -4.868 -11.096  -7.205  0.00  0.00    +0.177 C 
ATOM     29  O   UNL     1      -6.249 -10.786  -7.002  0.00  0.00    -0.377 OA
ATOM     30  C   UNL     1      -6.494  -9.431  -6.618  0.00  0.00    +0.177 C 
ATOM     31  C   UNL     1      -6.032  -8.497  -7.737  0.00  0.00    +0.137 C 
ENDBRANCH  23  26
ENDBRANCH  21  23
ENDBRANCH  17  18
ENDBRANCH   3  17
TORSDOF 7
