REMARK  Name = ZINC40744475
REMARK  10 active torsions:
REMARK  status: ('A' for Active; 'I' for Inactive)
REMARK    1  A    between atoms: C_1  and  C_2
REMARK    2  A    between atoms: C_2  and  C_3
REMARK    3  A    between atoms: C_2  and  O_4
REMARK    4  A    between atoms: O_4  and  C_5
REMARK    5  A    between atoms: C_8  and  C_11
REMARK    6  A    between atoms: C_11  and  N_12
REMARK    7  A    between atoms: N_12  and  C_13
REMARK    8  A    between atoms: C_13  and  C_14
REMARK    9  A    between atoms: C_14  and  N_15
REMARK   10  A    between atoms: C_16  and  C_18
REMARK                            x       y       z     vdW  Elec       q    Type
REMARK                         _______ _______ _______ _____ _____    ______ ____
ROOT
ATOM      1  N   UNL     1      -2.042  -6.642  -1.065  0.00  0.00    +0.383 N 
ATOM      2  H   UNL     1      -1.118  -6.591  -0.662  0.00  0.00    -0.085 HD
ATOM      3  H   UNL     1      -2.731  -6.461  -0.351  0.00  0.00    -0.085 HD
ENDROOT
BRANCH   1   4
ATOM      4  C   UNL     1      -2.167  -5.641  -2.132  0.00  0.00    -0.047 C 
BRANCH   4   8
ATOM      5  C   UNL     1      -1.538  -1.739  -0.505  0.00  0.00    +0.121 A 
ATOM      6  C   UNL     1      -0.465  -2.468  -0.997  0.00  0.00    +0.046 A 
ATOM      7  C   UNL     1      -0.671  -3.729  -1.522  0.00  0.00    +0.005 A 
ATOM      8  C   UNL     1      -1.945  -4.265  -1.558  0.00  0.00    -0.064 A 
ATOM      9  C   UNL     1      -3.017  -3.540  -1.070  0.00  0.00    +0.005 A 
ATOM     10  C   UNL     1      -2.815  -2.281  -0.538  0.00  0.00    +0.046 A 
BRANCH   5  11
ATOM     11  O   UNL     1      -1.339  -0.499   0.012  0.00  0.00    -0.489 OA
BRANCH  11  13
ATOM     12  C   UNL     1      -1.982   1.168   1.640  0.00  0.00    +0.051 C 
ATOM     13  C   UNL     1      -2.466   0.143   0.612  0.00  0.00    +0.167 C 
ATOM     14  C   UNL     1      -3.283   0.853  -0.469  0.00  0.00    +0.051 C 
ENDBRANCH  11  13
ENDBRANCH   5  11
ENDBRANCH   4   8
ENDBRANCH   1   4
BRANCH   1  15
ATOM     15  C   UNL     1      -2.258  -7.984  -1.624  0.00  0.00    -0.063 C 
BRANCH  15  16
ATOM     16  C   UNL     1      -2.128  -9.027  -0.513  0.00  0.00    +0.085 C 
BRANCH  16  17
ATOM     17  N   UNL     1      -2.343 -10.364  -1.070  0.00  0.00    -0.312 N 
ATOM     18  C   UNL     1      -2.276 -11.447  -0.270  0.00  0.00    +0.269 C 
ATOM     19  O   UNL     1      -2.037 -11.313   0.913  0.00  0.00    -0.268 OA
ATOM     20  H   UNL     1      -2.534 -10.470  -2.015  0.00  0.00    +0.149 HD
BRANCH  18  21
ATOM     21  C   UNL     1      -2.494 -12.799  -0.834  0.00  0.00    +0.209 A 
ATOM     22  C   UNL     1      -2.457 -14.059  -0.084  0.00  0.00    +0.192 A 
ATOM     23  N   UNL     1      -2.694 -15.038  -0.915  0.00  0.00    -0.033 NA
ATOM     24  O   UNL     1      -2.890 -14.480  -2.202  0.00  0.00    -0.240 OA
ATOM     25  N   UNL     1      -2.758 -13.074  -2.085  0.00  0.00    -0.042 NA
ATOM     26  N   UNL     1      -2.212 -14.189   1.276  0.00  0.00    -0.339 N 
ATOM     27  H   UNL     1      -2.045 -13.401   1.816  0.00  0.00    +0.144 HD
ATOM     28  H   UNL     1      -2.207 -15.068   1.686  0.00  0.00    +0.144 HD
ENDBRANCH  18  21
ENDBRANCH  16  17
ENDBRANCH  15  16
ENDBRANCH   1  15
TORSDOF 8
