REMARK  Name = ZINC35368344
REMARK  4 active torsions:
REMARK  status: ('A' for Active; 'I' for Inactive)
REMARK    1  A    between atoms: C_6  and  C_7
REMARK    2  A    between atoms: C_7  and  N_8
REMARK    3  A    between atoms: N_11  and  C_14
REMARK    4  A    between atoms: C_19  and  N_20
REMARK                            x       y       z     vdW  Elec       q    Type
REMARK                         _______ _______ _______ _____ _____    ______ ____
ROOT
ATOM      1  N   UNL     1      -1.727  -1.018  -1.371  0.00  0.00    -0.295 NA
ATOM      2  C   UNL     1      -2.067   0.242  -2.046  0.00  0.00    +0.103 C 
ATOM      3  C   UNL     1      -2.339  -0.033  -3.529  0.00  0.00    +0.120 C 
ATOM      4  N   UNL     1      -3.360  -1.087  -3.629  0.00  0.00    -0.326 N 
ATOM      5  C   UNL     1      -3.155  -2.329  -2.868  0.00  0.00    +0.120 C 
ATOM      6  C   UNL     1      -2.851  -1.964  -1.411  0.00  0.00    +0.103 C 
ENDROOT
BRANCH   4   7
ATOM      7  C   UNL     1      -4.492  -0.913  -4.424  0.00  0.00    +0.053 A 
ATOM      8  C   UNL     1      -4.494  -1.304  -5.761  0.00  0.00    +0.042 A 
ATOM      9  C   UNL     1      -5.635  -1.115  -6.515  0.00  0.00    +0.084 A 
ATOM     10  N   UNL     1      -6.716  -0.573  -5.987  0.00  0.00    -0.365 N 
ATOM     11  C   UNL     1      -6.759  -0.188  -4.725  0.00  0.00    +0.107 A 
ATOM     12  C   UNL     1      -5.660  -0.347  -3.898  0.00  0.00    +0.062 A 
ATOM     13  H   UNL     1      -7.502  -0.454  -6.543  0.00  0.00    +0.165 HD
BRANCH  12  14
ATOM     14  N   UNL     1      -5.713   0.058  -2.558  0.00  0.00    -0.355 N 
ATOM     15  H   UNL     1      -4.937  -0.054  -1.987  0.00  0.00    +0.142 HD
ATOM     16  H   UNL     1      -6.526   0.449  -2.202  0.00  0.00    +0.142 HD
ENDBRANCH  12  14
ENDBRANCH   4   7
BRANCH   1  17
ATOM     17  C   UNL     1      -1.293  -0.775   0.011  0.00  0.00    +0.119 C 
BRANCH  17  23
ATOM     18  C   UNL     1      -0.017   1.378   0.010  0.00  0.00    +0.006 A 
ATOM     19  C   UNL     1       1.171   2.086   0.002  0.00  0.00    +0.020 A 
ATOM     20  C   UNL     1       2.378   1.410  -0.013  0.00  0.00    +0.041 A 
ATOM     21  C   UNL     1       2.396   0.027  -0.021  0.00  0.00    +0.020 A 
ATOM     22  C   UNL     1       1.208  -0.679  -0.013  0.00  0.00    +0.006 A 
ATOM     23  C   UNL     1       0.002  -0.004   0.002  0.00  0.00    -0.033 A 
ATOM     24 CL   UNL     1       3.870   2.298  -0.023  0.00  0.00    -0.084 Cl
ENDBRANCH  17  23
ENDBRANCH   1  17
TORSDOF 4
