REMARK  Name = ZINC19845586
REMARK  6 active torsions:
REMARK  status: ('A' for Active; 'I' for Inactive)
REMARK    1  A    between atoms: C_1  and  C_2
REMARK    2  A    between atoms: C_2  and  C_3
REMARK    3  A    between atoms: C_3  and  C_4
REMARK    4  A    between atoms: C_9  and  S_11
REMARK    5  A    between atoms: S_11  and  C_12
REMARK    6  A    between atoms: C_15  and  N_18
REMARK                            x       y       z     vdW  Elec       q    Type
REMARK                         _______ _______ _______ _____ _____    ______ ____
ROOT
ATOM      1  C   UNL     1      -4.792   7.948   0.067  0.00  0.00    +0.049 A 
ATOM      2  C   UNL     1      -3.457   8.150   0.062  0.00  0.00    +0.093 A 
ATOM      3  C   UNL     1      -2.593   7.026   0.052  0.00  0.00    +0.252 A 
ATOM      4  O   UNL     1      -1.381   7.181   0.047  0.00  0.00    -0.268 OA
ATOM      5  N   UNL     1      -3.114   5.791   0.048  0.00  0.00    -0.302 N 
ATOM      6  C   UNL     1      -4.420   5.612   0.054  0.00  0.00    +0.175 A 
ATOM      7  N   UNL     1      -5.274   6.671   0.058  0.00  0.00    -0.228 NA
ATOM      8  H   UNL     1      -2.450   4.914   0.040  0.00  0.00    +0.171 HD
ENDROOT
BRANCH   1   9
ATOM      9  C   UNL     1      -5.740   9.119   0.077  0.00  0.00    +0.055 C 
BRANCH   9  11
ATOM     10  C   UNL     1      -6.933  10.791  -1.346  0.00  0.00    +0.004 C 
ATOM     11  C   UNL     1      -5.970   9.602  -1.356  0.00  0.00    +0.003 C 
ENDBRANCH   9  11
ENDBRANCH   1   9
BRANCH   6  12
ATOM     12  S   UNL     1      -5.069   3.974   0.048  0.00  0.00    -0.032 S 
BRANCH  12  13
ATOM     13  C   UNL     1      -3.569   3.050   0.035  0.00  0.00    +0.104 A 
ATOM     14  C   UNL     1      -3.618   1.661   0.028  0.00  0.00    +0.037 A 
ATOM     15  C   UNL     1      -2.436   0.944   0.019  0.00  0.00    +0.027 A 
ATOM     16  C   UNL     1      -1.233   1.649   0.017  0.00  0.00    +0.043 A 
ATOM     17  C   UNL     1      -1.261   3.036   0.030  0.00  0.00    +0.134 A 
ATOM     18  N   UNL     1      -2.409   3.687   0.033  0.00  0.00    -0.247 NA
BRANCH  16  19
ATOM     19  N   UNL     1      -0.011   0.966   0.007  0.00  0.00    -0.357 N 
ATOM     20  H   UNL     1       0.934   1.529   0.006  0.00  0.00    +0.142 HD
ATOM     21  H   UNL     1       0.004  -0.134   0.001  0.00  0.00    +0.142 HD
ENDBRANCH  16  19
ENDBRANCH  12  13
ENDBRANCH   6  12
TORSDOF 5
