REMARK  Name = ZINC20322452
REMARK  9 active torsions:
REMARK  status: ('A' for Active; 'I' for Inactive)
REMARK    1  A    between atoms: C_1  and  C_2
REMARK    2  A    between atoms: C_2  and  O_3
REMARK    3  A    between atoms: O_3  and  C_4
REMARK    4  A    between atoms: C_7  and  C_10
REMARK    5  A    between atoms: C_15  and  N_19
REMARK    6  A    between atoms: N_19  and  C_20
REMARK    7  A    between atoms: C_20  and  C_21
REMARK    8  A    between atoms: C_21  and  C_22
REMARK    9  A    between atoms: C_22  and  N_23
REMARK                            x       y       z     vdW  Elec       q    Type
REMARK                         _______ _______ _______ _____ _____    ______ ____
ROOT
ATOM      1  C   UNL     1       2.260   0.743   0.035  0.00  0.00    +0.002 A 
ATOM      2  C   UNL     1       1.727   1.944   0.357  0.00  0.00    +0.056 A 
ATOM      3  S   UNL     1      -0.029   1.669   0.225  0.00  0.00    -0.076 S 
ATOM      4  C   UNL     1      -0.011  -0.037  -0.255  0.00  0.00    +0.114 A 
ATOM      5  C   UNL     1       1.362  -0.356  -0.303  0.00  0.00    +0.055 A 
ATOM      6  C   UNL     1       1.665  -1.694  -0.671  0.00  0.00    +0.131 A 
ATOM      7  N   UNL     1       0.675  -2.531  -0.938  0.00  0.00    -0.220 NA
ATOM      8  C   UNL     1      -0.592  -2.164  -0.873  0.00  0.00    +0.224 A 
ATOM      9  N   UNL     1      -0.935  -0.935  -0.537  0.00  0.00    -0.228 NA
ENDROOT
BRANCH   1  13
ATOM     10  C   UNL     1       6.476   0.183   0.006  0.00  0.00    +0.121 A 
ATOM     11  C   UNL     1       5.899   1.137  -0.820  0.00  0.00    +0.046 A 
ATOM     12  C   UNL     1       4.532   1.321  -0.813  0.00  0.00    +0.012 A 
ATOM     13  C   UNL     1       3.730   0.547   0.025  0.00  0.00    -0.016 A 
ATOM     14  C   UNL     1       4.313  -0.407   0.857  0.00  0.00    +0.012 A 
ATOM     15  C   UNL     1       5.681  -0.589   0.842  0.00  0.00    +0.046 A 
BRANCH  10  16
ATOM     16  O   UNL     1       7.823   0.004  -0.002  0.00  0.00    -0.492 OA
BRANCH  16  18
ATOM     17  C   UNL     1       9.873  -1.050   0.725  0.00  0.00    +0.048 C 
ATOM     18  C   UNL     1       8.351  -0.995   0.873  0.00  0.00    +0.225 C 
ENDBRANCH  16  18
ENDBRANCH  10  16
ENDBRANCH   1  13
BRANCH   6  19
ATOM     19  N   UNL     1       2.980  -2.118  -0.750  0.00  0.00    -0.329 N 
ATOM     20  H   UNL     1       3.799  -1.394  -0.627  0.00  0.00    +0.147 HD
BRANCH  19  21
ATOM     21  C   UNL     1       3.281  -3.530  -0.998  0.00  0.00    +0.101 C 
BRANCH  21  22
ATOM     22  C   UNL     1       4.798  -3.728  -1.038  0.00  0.00    -0.001 C 
BRANCH  22  23
ATOM     23  C   UNL     1       5.112  -5.203  -1.297  0.00  0.00    -0.085 C 
BRANCH  23  24
ATOM     24  N   UNL     1       6.568  -5.393  -1.337  0.00  0.00    +0.378 N 
ATOM     25  H   UNL     1       6.795  -6.454  -1.523  0.00  0.00    -0.090 HD
ATOM     26  H   UNL     1       7.004  -5.089  -0.373  0.00  0.00    -0.090 HD
ATOM     27  H   UNL     1       6.997  -4.780  -2.143  0.00  0.00    -0.090 HD
ENDBRANCH  23  24
ENDBRANCH  22  23
ENDBRANCH  21  22
ENDBRANCH  19  21
ENDBRANCH   6  19
TORSDOF 8
