REMARK  Name = ZINC45148569
REMARK  7 active torsions:
REMARK  status: ('A' for Active; 'I' for Inactive)
REMARK    1  A    between atoms: C_6  and  C_7
REMARK    2  A    between atoms: N_9  and  N_10
REMARK    3  A    between atoms: N_13  and  C_14
REMARK    4  A    between atoms: C_14  and  C_15
REMARK    5  A    between atoms: C_15  and  C_16
REMARK    6  A    between atoms: C_16  and  O_17
REMARK    7  A    between atoms: O_17  and  C_18
REMARK                            x       y       z     vdW  Elec       q    Type
REMARK                         _______ _______ _______ _____ _____    ______ ____
ROOT
ATOM      1  N   UNL     1      -2.124  -3.068   0.006  0.00  0.00    -0.218 N 
ATOM      2  C   UNL     1      -1.959  -4.405  -0.003  0.00  0.00    +0.316 C 
ATOM      3  O   UNL     1      -2.930  -5.137   0.002  0.00  0.00    -0.251 OA
ATOM      4  N   UNL     1      -0.719  -4.932  -0.018  0.00  0.00    -0.298 N 
ATOM      5  H   UNL     1      -3.017  -2.689   0.016  0.00  0.00    +0.174 HD
ATOM      6  H   UNL     1       0.056  -4.348  -0.022  0.00  0.00    +0.150 HD
ENDROOT
BRANCH   1   9
ATOM      7  C   UNL     1      -1.169  -0.887   0.009  0.00  0.00    +0.276 C 
ATOM      8  O   UNL     1      -2.289  -0.411   0.022  0.00  0.00    -0.267 OA
ATOM      9  N   UNL     1      -1.005  -2.224  -0.000  0.00  0.00    -0.228 N 
ATOM     10  H   UNL     1      -0.112  -2.603  -0.011  0.00  0.00    +0.173 HD
BRANCH   7  16
ATOM     11  C   UNL     1      -0.017   1.375   0.010  0.00  0.00    +0.047 A 
ATOM     12  C   UNL     1       1.315   1.804  -0.001  0.00  0.00    +0.036 A 
ATOM     13  C   UNL     1       2.106   0.704  -0.014  0.00  0.00    +0.098 A 
ATOM     14  N   UNL     1       1.320  -0.401  -0.013  0.00  0.00    -0.356 N 
ATOM     15  H   UNL     1       1.634  -1.319  -0.020  0.00  0.00    +0.166 HD
ATOM     16  C   UNL     1       0.002  -0.004   0.002  0.00  0.00    +0.104 A 
ATOM     17 BR   UNL     1       1.905   3.600   0.003  0.00  0.00    -0.049 Br
ENDBRANCH   7  16
ENDBRANCH   1   9
BRANCH   4  18
ATOM     18  C   UNL     1      -0.540  -6.386  -0.027  0.00  0.00    +0.108 C 
BRANCH  18  19
ATOM     19  C   UNL     1       0.954  -6.716  -0.043  0.00  0.00    +0.047 C 
BRANCH  19  20
ATOM     20  C   UNL     1       1.140  -8.235  -0.053  0.00  0.00    +0.161 C 
BRANCH  20  21
ATOM     21  O   UNL     1       2.535  -8.543  -0.068  0.00  0.00    -0.377 OA
BRANCH  21  22
ATOM     22  C   UNL     1       2.821  -9.943  -0.078  0.00  0.00    +0.118 C 
ATOM     23  C   UNL     1       2.937 -10.451   1.361  0.00  0.00    +0.031 C 
ATOM     24  C   UNL     1       3.243 -11.950   1.349  0.00  0.00    +0.003 C 
ATOM     25  C   UNL     1       4.562 -12.196   0.614  0.00  0.00    +0.000 C 
ATOM     26  C   UNL     1       4.446 -11.688  -0.825  0.00  0.00    +0.003 C 
ATOM     27  C   UNL     1       4.140 -10.189  -0.814  0.00  0.00    +0.031 C 
ENDBRANCH  21  22
ENDBRANCH  20  21
ENDBRANCH  19  20
ENDBRANCH  18  19
ENDBRANCH   4  18
TORSDOF 7
