REMARK  Name = ZINC42398126
REMARK  7 active torsions:
REMARK  status: ('A' for Active; 'I' for Inactive)
REMARK    1  A    between atoms: C_1  and  N_2
REMARK    2  A    between atoms: N_2  and  C_3
REMARK    3  A    between atoms: N_2  and  C_12
REMARK    4  A    between atoms: C_3  and  C_4
REMARK    5  A    between atoms: C_7  and  O_11
REMARK    6  A    between atoms: C_8  and  N_10
REMARK    7  A    between atoms: C_12  and  C_13
REMARK                            x       y       z     vdW  Elec       q    Type
REMARK                         _______ _______ _______ _____ _____    ______ ____
ROOT
ATOM      1  C   UNL     1       0.713  -0.491   1.192  0.00  0.00    -0.043 C 
ENDROOT
BRANCH   1   2
ATOM      2  C   UNL     1      -0.059  -0.109   2.429  0.00  0.00    -0.062 A 
ATOM      3  C   UNL     1       0.190   1.100   3.052  0.00  0.00    +0.005 A 
ATOM      4  C   UNL     1      -0.516   1.455   4.187  0.00  0.00    +0.047 A 
ATOM      5  C   UNL     1      -1.475   0.600   4.703  0.00  0.00    +0.137 A 
ATOM      6  C   UNL     1      -1.726  -0.619   4.076  0.00  0.00    +0.067 A 
ATOM      7  C   UNL     1      -1.018  -0.966   2.935  0.00  0.00    +0.028 A 
BRANCH   6   8
ATOM      8  N   UNL     1      -2.694  -1.487   4.593  0.00  0.00    -0.355 N 
ATOM      9  H   UNL     1      -3.191  -1.242   5.390  0.00  0.00    +0.142 HD
ATOM     10  H   UNL     1      -2.868  -2.336   4.156  0.00  0.00    +0.142 HD
ENDBRANCH   6   8
BRANCH   5  11
ATOM     11  O   UNL     1      -2.169   0.948   5.819  0.00  0.00    -0.505 OA
ATOM     12  H   UNL     1      -2.985   1.435   5.639  0.00  0.00    +0.292 HD
ENDBRANCH   5  11
ENDBRANCH   1   2
BRANCH   1  14
ATOM     13  C   UNL     1      -0.018   1.465   0.010  0.00  0.00    -0.095 C 
ATOM     14  N   UNL     1       0.002  -0.004   0.002  0.00  0.00    +0.384 N 
ATOM     15  H   UNL     1      -0.945  -0.353   0.009  0.00  0.00    -0.081 HD
BRANCH  14  16
ATOM     16  C   UNL     1       0.690  -0.478  -1.207  0.00  0.00    -0.036 C 
BRANCH  16  17
ATOM     17  C   UNL     1      -0.106  -0.083  -2.424  0.00  0.00    -0.026 A 
ATOM     18  C   UNL     1      -0.021   1.045  -3.170  0.00  0.00    +0.024 A 
ATOM     19  C   UNL     1      -0.862   1.195  -4.258  0.00  0.00    +0.025 A 
ATOM     20  C   UNL     1      -1.746   0.208  -4.545  0.00  0.00    +0.060 A 
ATOM     21  S   UNL     1      -1.399  -0.984  -3.263  0.00  0.00    -0.102 S 
ATOM     22 BR   UNL     1      -0.780   2.752  -5.327  0.00  0.00    -0.050 Br
ENDBRANCH  16  17
ENDBRANCH  14  16
ENDBRANCH   1  14
TORSDOF 6
