REMARK  Name = ZINC04404863
REMARK  7 active torsions:
REMARK  status: ('A' for Active; 'I' for Inactive)
REMARK    1  A    between atoms: C_1  and  C_2
REMARK    2  A    between atoms: C_2  and  C_4
REMARK    3  A    between atoms: C_2  and  S_11
REMARK    4  A    between atoms: N_9  and  C_10
REMARK    5  A    between atoms: S_11  and  C_12
REMARK    6  A    between atoms: N_25  and  C_26
REMARK    7  A    between atoms: C_26  and  C_27
REMARK                            x       y       z     vdW  Elec       q    Type
REMARK                         _______ _______ _______ _____ _____    ______ ____
ROOT
ATOM      1  C   UNL     1       2.624  -4.498  -0.715  0.00  0.00    +0.198 A 
ATOM      2  N   UNL     1       1.549  -5.178  -0.400  0.00  0.00    -0.120 NA
ATOM      3  N   UNL     1       1.814  -6.535  -0.617  0.00  0.00    -0.109 NA
ATOM      4  C   UNL     1       3.049  -6.646  -1.050  0.00  0.00    +0.240 A 
ATOM      5  N   UNL     1       3.582  -5.388  -1.122  0.00  0.00    -0.256 N 
ATOM      6  C   UNL     1       4.893  -5.198  -1.555  0.00  0.00    +0.064 A 
ATOM      7  C   UNL     1       5.441  -3.927  -1.633  0.00  0.00    +0.027 A 
ATOM      8  C   UNL     1       6.742  -3.766  -2.067  0.00  0.00    +0.002 A 
ATOM      9  C   UNL     1       7.507  -4.864  -2.426  0.00  0.00    +0.001 A 
ATOM     10  C   UNL     1       6.977  -6.135  -2.356  0.00  0.00    +0.015 A 
ATOM     11  C   UNL     1       5.665  -6.311  -1.920  0.00  0.00    +0.064 A 
ATOM     12  C   UNL     1       5.061  -7.653  -1.831  0.00  0.00    +0.263 A 
ATOM     13  O   UNL     1       5.700  -8.641  -2.139  0.00  0.00    -0.267 OA
ATOM     14  N   UNL     1       3.787  -7.766  -1.403  0.00  0.00    -0.273 N 
ENDROOT
BRANCH   1  15
ATOM     15  S   UNL     1       2.808  -2.748  -0.625  0.00  0.00    -0.073 S 
BRANCH  15  17
ATOM     16  C   UNL     1       0.969  -2.690   1.399  0.00  0.00    +0.029 C 
ATOM     17  C   UNL     1       1.199  -2.169  -0.021  0.00  0.00    +0.137 C 
BRANCH  17  18
ATOM     18  C   UNL     1       1.178  -0.662  -0.013  0.00  0.00    +0.233 C 
ATOM     19  O   UNL     1       2.220  -0.042  -0.019  0.00  0.00    -0.274 OA
ATOM     20  N   UNL     1       0.002  -0.004   0.002  0.00  0.00    -0.239 N 
ATOM     21  C   UNL     1      -0.016   1.344   0.009  0.00  0.00    +0.306 C 
ATOM     22  O   UNL     1       1.028   1.966   0.003  0.00  0.00    -0.252 OA
ATOM     23  N   UNL     1      -1.192   2.002   0.019  0.00  0.00    -0.302 N 
ATOM     24  C   UNL     1      -1.212   3.466   0.027  0.00  0.00    +0.129 C 
ATOM     25  H   UNL     1      -0.831  -0.500   0.007  0.00  0.00    +0.159 HD
ATOM     26  H   UNL     1      -2.026   1.505   0.020  0.00  0.00    +0.150 HD
ENDBRANCH  17  18
ENDBRANCH  15  17
ENDBRANCH   1  15
BRANCH  14  27
ATOM     27  C   UNL     1       3.173  -9.093  -1.309  0.00  0.00    +0.155 C 
BRANCH  27  28
ATOM     28  C   UNL     1       2.503  -9.430  -2.616  0.00  0.00    -0.013 C 
ATOM     29  C   UNL     1       2.813 -10.536  -3.245  0.00  0.00    +0.005 C 
ENDBRANCH  27  28
ENDBRANCH  14  27
TORSDOF 5
