REMARK  Name = ZINC36205746
REMARK  12 active torsions:
REMARK  status: ('A' for Active; 'I' for Inactive)
REMARK    1  A    between atoms: C_1  and  C_2
REMARK    2  A    between atoms: C_2  and  N_3
REMARK    3  A    between atoms: N_3  and  C_4
REMARK    4  A    between atoms: N_3  and  C_23
REMARK    5  A    between atoms: C_4  and  C_5
REMARK    6  A    between atoms: C_11  and  C_16
REMARK    7  A    between atoms: C_21  and  C_22
REMARK    8  A    between atoms: C_23  and  C_24
REMARK    9  A    between atoms: C_24  and  C_26
REMARK   10  A    between atoms: C_24  and  O_29
REMARK   11  A    between atoms: C_26  and  C_27
REMARK   12  A    between atoms: C_26  and  C_28
REMARK                            x       y       z     vdW  Elec       q    Type
REMARK                         _______ _______ _______ _____ _____    ______ ____
ROOT
ATOM      1  C   UNL     1       1.885   1.553  -1.454  0.00  0.00    +0.094 A 
ATOM      2  N   UNL     1       3.066   2.219  -1.532  0.00  0.00    -0.312 N 
ATOM      3  H   UNL     1       3.894   1.716  -1.566  0.00  0.00    +0.170 HD
ATOM      4  C   UNL     1       3.109   3.564  -1.563  0.00  0.00    +0.260 A 
ATOM      5  O   UNL     1       4.178   4.147  -1.633  0.00  0.00    -0.267 OA
ATOM      6  C   UNL     1       1.882   4.299  -1.512  0.00  0.00    +0.080 A 
ATOM      7  C   UNL     1       1.669   5.741  -1.531  0.00  0.00    +0.004 A 
ATOM      8  C   UNL     1       0.400   6.213  -1.473  0.00  0.00    +0.056 A 
ATOM      9  S   UNL     1      -0.588   4.732  -1.388  0.00  0.00    -0.076 S 
ATOM     10  C   UNL     1       0.713   3.526  -1.432  0.00  0.00    +0.116 A 
ATOM     11  N   UNL     1       0.749   2.196  -1.412  0.00  0.00    -0.229 NA
ENDROOT
BRANCH   7  12
ATOM     12  C   UNL     1       2.819   6.673  -1.613  0.00  0.00    -0.014 A 
ATOM     13  C   UNL     1       3.103   7.529  -0.549  0.00  0.00    +0.009 A 
ATOM     14  C   UNL     1       4.175   8.394  -0.631  0.00  0.00    +0.001 A 
ATOM     15  C   UNL     1       4.967   8.414  -1.765  0.00  0.00    +0.000 A 
ATOM     16  C   UNL     1       4.690   7.567  -2.823  0.00  0.00    +0.004 A 
ATOM     17  C   UNL     1       3.623   6.694  -2.751  0.00  0.00    -0.043 A 
ATOM     18  C   UNL     1       3.327   5.768  -3.902  0.00  0.00    +0.044 C 
ENDBRANCH   7  12
BRANCH   1  19
ATOM     19  C   UNL     1       1.885   0.046  -1.423  0.00  0.00    -0.003 C 
BRANCH  19  20
ATOM     20  N   UNL     1       0.518  -0.439  -1.196  0.00  0.00    +0.386 N 
ATOM     21  H   UNL     1      -0.101  -0.036  -1.884  0.00  0.00    -0.081 HD
BRANCH  20  23
ATOM     22  C   UNL     1       0.926  -0.767   1.196  0.00  0.00    -0.017 C 
ATOM     23  C   UNL     1       0.076  -0.046   0.149  0.00  0.00    -0.082 C 
ENDBRANCH  20  23
BRANCH  20  24
ATOM     24  C   UNL     1       0.492  -1.903  -1.312  0.00  0.00    -0.046 C 
BRANCH  24  25
ATOM     25  C   UNL     1      -0.956  -2.394  -1.249  0.00  0.00    +0.101 C 
BRANCH  25  26
ATOM     26  C   UNL     1      -0.997  -3.897  -1.535  0.00  0.00    +0.010 C 
ATOM     27  C   UNL     1      -2.445  -4.388  -1.472  0.00  0.00    +0.010 C 
ATOM     28  C   UNL     1      -0.427  -4.167  -2.929  0.00  0.00    +0.010 C 
ENDBRANCH  25  26
BRANCH  25  29
ATOM     29  O   UNL     1      -1.488  -2.142   0.053  0.00  0.00    -0.393 OA
ATOM     30  H   UNL     1      -1.006  -2.582   0.767  0.00  0.00    +0.210 HD
ENDBRANCH  25  29
ENDBRANCH  24  25
ENDBRANCH  20  24
ENDBRANCH  19  20
ENDBRANCH   1  19
TORSDOF 8
