REMARK  Name = ZINC09441516
REMARK  10 active torsions:
REMARK  status: ('A' for Active; 'I' for Inactive)
REMARK    1  A    between atoms: C_1  and  C_2
REMARK    2  A    between atoms: C_5  and  S_8
REMARK    3  A    between atoms: S_8  and  N_11
REMARK    4  A    between atoms: C_13  and  O_35
REMARK    5  A    between atoms: C_16  and  C_18
REMARK    6  A    between atoms: C_18  and  O_20
REMARK    7  A    between atoms: O_20  and  C_21
REMARK    8  A    between atoms: C_21  and  C_22
REMARK    9  A    between atoms: C_28  and  C_34
REMARK   10  A    between atoms: C_29  and  C_33
REMARK                            x       y       z     vdW  Elec       q    Type
REMARK                         _______ _______ _______ _____ _____    ______ ____
ROOT
ATOM      1  N   UNL     1       1.651  -4.999  -0.034  0.00  0.00    -0.160 NA
ATOM      2  C   UNL     1       2.470  -5.230  -1.238  0.00  0.00    +0.141 C 
ATOM      3  C   UNL     1       3.932  -5.027  -0.768  0.00  0.00    +0.132 C 
ATOM      4  C   UNL     1       3.888  -5.637   0.658  0.00  0.00    +0.064 C 
ATOM      5  C   UNL     1       2.479  -5.249   1.155  0.00  0.00    +0.191 C 
ENDROOT
BRANCH   1   6
ATOM      6  S   UNL     1       0.063  -4.530  -0.023  0.00  0.00    +0.062 S 
ATOM      7  O   UNL     1      -0.476  -4.950   1.223  0.00  0.00    -0.153 OA
ATOM      8  O   UNL     1      -0.490  -4.937  -1.267  0.00  0.00    -0.153 OA
BRANCH   6  13
ATOM      9  C   UNL     1      -0.018   1.503   0.010  0.00  0.00    +0.044 C 
ATOM     10  C   UNL     1       0.002  -0.004   0.002  0.00  0.00    -0.050 A 
ATOM     11  C   UNL     1       0.006  -0.689  -1.199  0.00  0.00    +0.005 A 
ATOM     12  C   UNL     1       0.025  -2.071  -1.206  0.00  0.00    +0.029 A 
ATOM     13  C   UNL     1       0.040  -2.768  -0.013  0.00  0.00    +0.106 A 
ATOM     14  C   UNL     1       0.037  -2.084   1.188  0.00  0.00    +0.029 A 
ATOM     15  C   UNL     1       0.023  -0.702   1.195  0.00  0.00    +0.005 A 
ENDBRANCH   6  13
ENDBRANCH   1   6
BRANCH   5  16
ATOM     16  C   UNL     1       1.893  -6.379   1.960  0.00  0.00    +0.327 C 
ATOM     17  O   UNL     1       0.883  -6.928   1.585  0.00  0.00    -0.249 OA
BRANCH  16  18
ATOM     18  O   UNL     1       2.492  -6.777   3.094  0.00  0.00    -0.456 OA
BRANCH  18  19
ATOM     19  C   UNL     1       1.881  -7.854   3.806  0.00  0.00    +0.306 C 
BRANCH  19  20
ATOM     20  C   UNL     1       2.687  -8.160   5.043  0.00  0.00    +0.149 A 
ATOM     21  N   UNL     1       2.287  -9.160   5.869  0.00  0.00    -0.308 N 
ATOM     22  H   UNL     1       1.487  -9.664   5.653  0.00  0.00    +0.170 HD
ATOM     23  C   UNL     1       2.978  -9.466   6.983  0.00  0.00    +0.260 A 
ATOM     24  O   UNL     1       2.606 -10.367   7.715  0.00  0.00    -0.267 OA
ATOM     25  C   UNL     1       4.159  -8.715   7.295  0.00  0.00    +0.075 A 
ATOM     26  C   UNL     1       5.064  -8.850   8.421  0.00  0.00    -0.026 A 
ATOM     27  C   UNL     1       6.122  -8.028   8.513  0.00  0.00    -0.008 A 
ATOM     28  S   UNL     1       5.971  -6.997   7.066  0.00  0.00    -0.073 S 
ATOM     29  C   UNL     1       4.493  -7.700   6.381  0.00  0.00    +0.116 A 
ATOM     30  N   UNL     1       3.761  -7.461   5.297  0.00  0.00    -0.223 NA
ATOM     31  C   UNL     1       7.182  -7.986   9.584  0.00  0.00    +0.052 C 
ATOM     32  C   UNL     1       4.820  -9.899   9.475  0.00  0.00    +0.045 C 
ENDBRANCH  19  20
ENDBRANCH  18  19
ENDBRANCH  16  18
ENDBRANCH   5  16
BRANCH   3  33
ATOM     33  O   UNL     1       4.843  -5.743  -1.604  0.00  0.00    -0.390 OA
ATOM     34  H   UNL     1       4.833  -5.461  -2.529  0.00  0.00    +0.210 HD
ENDBRANCH   3  33
TORSDOF 7
