REMARK  Name = ZINC26240204
REMARK  6 active torsions:
REMARK  status: ('A' for Active; 'I' for Inactive)
REMARK    1  A    between atoms: C_6  and  O_26
REMARK    2  A    between atoms: C_7  and  C_11
REMARK    3  A    between atoms: C_11  and  O_13
REMARK    4  A    between atoms: O_13  and  C_14
REMARK    5  A    between atoms: C_14  and  C_15
REMARK    6  A    between atoms: C_15  and  C_17
REMARK                            x       y       z     vdW  Elec       q    Type
REMARK                         _______ _______ _______ _____ _____    ______ ____
ROOT
ATOM      1  C   UNL     1       2.579  -4.196  -0.046  0.00  0.00    +0.343 C 
ATOM      2  O   UNL     1       3.655  -4.758  -0.059  0.00  0.00    -0.245 OA
ENDROOT
BRANCH   1   9
ATOM      3  C   UNL     1      -0.016   1.356   0.009  0.00  0.00    +0.001 A 
ATOM      4  C   UNL     1       1.169   2.090   0.002  0.00  0.00    +0.001 A 
ATOM      5  C   UNL     1       2.379   1.467  -0.013  0.00  0.00    +0.008 A 
ATOM      6  C   UNL     1       2.440   0.063  -0.021  0.00  0.00    -0.014 A 
ATOM      7  C   UNL     1       3.675  -0.607  -0.037  0.00  0.00    +0.054 A 
ATOM      8  C   UNL     1       3.711  -1.970  -0.044  0.00  0.00    +0.131 A 
ATOM      9  C   UNL     1       2.517  -2.723  -0.037  0.00  0.00    +0.101 A 
ATOM     10  C   UNL     1       1.286  -2.085  -0.021  0.00  0.00    +0.027 A 
ATOM     11  C   UNL     1       1.234  -0.684  -0.013  0.00  0.00    -0.017 A 
ATOM     12  C   UNL     1       0.002  -0.004   0.002  0.00  0.00    +0.008 A 
BRANCH   8  13
ATOM     13  O   UNL     1       4.908  -2.610  -0.059  0.00  0.00    -0.506 OA
ATOM     14  H   UNL     1       5.263  -2.800   0.820  0.00  0.00    +0.292 HD
ENDBRANCH   8  13
ENDBRANCH   1   9
BRANCH   1  15
ATOM     15  O   UNL     1       1.441  -4.918  -0.039  0.00  0.00    -0.453 OA
BRANCH  15  16
ATOM     16  C   UNL     1       1.576  -6.341  -0.048  0.00  0.00    +0.311 C 
BRANCH  16  17
ATOM     17  C   UNL     1       0.209  -6.975  -0.039  0.00  0.00    +0.200 C 
ATOM     18  O   UNL     1      -0.783  -6.277  -0.025  0.00  0.00    -0.288 OA
BRANCH  17  19
ATOM     19  C   UNL     1       0.077  -8.437  -0.046  0.00  0.00    +0.021 A 
ATOM     20  C   UNL     1       1.219  -9.249  -0.056  0.00  0.00    +0.015 A 
ATOM     21  C   UNL     1       1.097 -10.607  -0.059  0.00  0.00    +0.046 A 
ATOM     22  C   UNL     1      -0.163 -11.208  -0.052  0.00  0.00    +0.124 A 
ATOM     23  C   UNL     1      -1.299 -10.402  -0.050  0.00  0.00    -0.002 A 
ATOM     24  C   UNL     1      -1.191  -9.034  -0.037  0.00  0.00    +0.018 A 
ATOM     25  C   UNL     1      -2.500 -11.327  -0.068  0.00  0.00    +0.080 C 
ATOM     26  C   UNL     1      -1.859 -12.674  -0.479  0.00  0.00    +0.234 C 
ATOM     27  O   UNL     1      -0.498 -12.526  -0.041  0.00  0.00    -0.491 OA
ENDBRANCH  17  19
ENDBRANCH  16  17
ENDBRANCH  15  16
ENDBRANCH   1  15
TORSDOF 6
