REMARK  Name = ZINC12503406
REMARK  12 active torsions:
REMARK  status: ('A' for Active; 'I' for Inactive)
REMARK    1  A    between atoms: C_1  and  C_2
REMARK    2  A    between atoms: C_7  and  O_8
REMARK    3  A    between atoms: O_8  and  C_9
REMARK    4  A    between atoms: C_9  and  C_10
REMARK    5  A    between atoms: N_12  and  C_13
REMARK    6  A    between atoms: C_13  and  N_15
REMARK    7  A    between atoms: N_15  and  N_16
REMARK    8  A    between atoms: C_17  and  C_19
REMARK    9  A    between atoms: C_19  and  C_20
REMARK   10  A    between atoms: C_20  and  C_21
REMARK   11  A    between atoms: N_23  and  C_24
REMARK   12  A    between atoms: C_24  and  C_25
REMARK                            x       y       z     vdW  Elec       q    Type
REMARK                         _______ _______ _______ _____ _____    ______ ____
ROOT
ATOM      1  N   UNL     1       2.951   6.517   0.009  0.00  0.00    -0.246 N 
ATOM      2  H   UNL     1       2.811   7.476   0.015  0.00  0.00    +0.172 HD
ENDROOT
BRANCH   1   3
ATOM      3  N   UNL     1       4.252   5.999  -0.006  0.00  0.00    -0.235 N 
ATOM      4  C   UNL     1       5.310   6.834  -0.012  0.00  0.00    +0.230 C 
ATOM      5  O   UNL     1       5.135   8.034  -0.004  0.00  0.00    -0.274 OA
ATOM      6  H   UNL     1       4.393   5.039  -0.013  0.00  0.00    +0.173 HD
BRANCH   4   7
ATOM      7  C   UNL     1       6.710   6.277  -0.028  0.00  0.00    +0.106 C 
BRANCH   7   8
ATOM      8  C   UNL     1       7.717   7.429  -0.032  0.00  0.00    +0.105 C 
BRANCH   8   9
ATOM      9  C   UNL     1       9.117   6.872  -0.048  0.00  0.00    +0.214 C 
ATOM     10  O   UNL     1       9.293   5.672  -0.056  0.00  0.00    -0.276 OA
ATOM     11  N   UNL     1      10.175   7.708  -0.054  0.00  0.00    -0.311 N 
ATOM     12  H   UNL     1      10.035   8.668  -0.047  0.00  0.00    +0.149 HD
BRANCH  11  13
ATOM     13  C   UNL     1      11.536   7.166  -0.070  0.00  0.00    +0.139 C 
BRANCH  13  14
ATOM     14  C   UNL     1      12.528   8.301  -0.073  0.00  0.00    -0.030 A 
ATOM     15  C   UNL     1      12.976   8.824  -1.272  0.00  0.00    +0.005 A 
ATOM     16  C   UNL     1      13.882   9.868  -1.275  0.00  0.00    +0.000 A 
ATOM     17  C   UNL     1      14.348  10.382  -0.079  0.00  0.00    +0.000 A 
ATOM     18  C   UNL     1      13.905   9.855   1.119  0.00  0.00    +0.000 A 
ATOM     19  C   UNL     1      12.994   8.815   1.123  0.00  0.00    +0.005 A 
ENDBRANCH  13  14
ENDBRANCH  11  13
ENDBRANCH   8   9
ENDBRANCH   7   8
ENDBRANCH   4   7
ENDBRANCH   1   3
BRANCH   1  20
ATOM     20  C   UNL     1       1.893   5.681   0.015  0.00  0.00    +0.153 C 
ATOM     21  S   UNL     1       0.302   6.314   0.033  0.00  0.00    -0.017 S 
BRANCH  20  24
ATOM     22  C   UNL     1       1.030   3.512   0.011  0.00  0.00    +0.256 C 
ATOM     23  O   UNL     1      -0.096   3.960   0.024  0.00  0.00    -0.272 OA
ATOM     24  N   UNL     1       2.088   4.348   0.005  0.00  0.00    -0.264 N 
ATOM     25  H   UNL     1       2.989   3.989  -0.005  0.00  0.00    +0.157 HD
BRANCH  22  26
ATOM     26  C   UNL     1       1.248   2.021   0.001  0.00  0.00    +0.325 C 
BRANCH  26  27
ATOM     27  O   UNL     1      -0.016   1.355   0.009  0.00  0.00    -0.482 OA
BRANCH  27  34
ATOM     28  C   UNL     1      -2.505   0.019   0.038  0.00  0.00    +0.047 C 
ATOM     29  C   UNL     1      -1.189  -0.715   0.015  0.00  0.00    -0.007 A 
ATOM     30  C   UNL     1      -1.168  -2.096   0.003  0.00  0.00    +0.027 A 
ATOM     31  C   UNL     1       0.040  -2.771  -0.012  0.00  0.00    +0.041 A 
ATOM     32  C   UNL     1       1.229  -2.063  -0.020  0.00  0.00    +0.023 A 
ATOM     33  C   UNL     1       1.212  -0.682  -0.013  0.00  0.00    +0.047 A 
ATOM     34  C   UNL     1       0.002  -0.004   0.002  0.00  0.00    +0.124 A 
ATOM     35 CL   UNL     1       0.063  -4.506  -0.021  0.00  0.00    -0.084 Cl
ENDBRANCH  27  34
ENDBRANCH  26  27
ENDBRANCH  22  26
ENDBRANCH  20  24
ENDBRANCH   1  20
TORSDOF 11
