REMARK  Name = ZINC63883815
REMARK  8 active torsions:
REMARK  status: ('A' for Active; 'I' for Inactive)
REMARK    1  A    between atoms: C_1  and  C_2
REMARK    2  A    between atoms: C_4  and  C_17
REMARK    3  A    between atoms: N_8  and  C_9
REMARK    4  A    between atoms: C_17  and  C_19
REMARK    5  A    between atoms: C_17  and  N_20
REMARK    6  A    between atoms: N_20  and  C_21
REMARK    7  A    between atoms: C_21  and  C_22
REMARK    8  A    between atoms: C_27  and  C_28
REMARK                            x       y       z     vdW  Elec       q    Type
REMARK                         _______ _______ _______ _____ _____    ______ ____
ROOT
ATOM      1  C   UNL     1       0.089  -1.787  -1.801  0.00  0.00    -0.069 C 
ATOM      2  C   UNL     1      -1.358  -1.478  -2.190  0.00  0.00    -0.013 C 
ENDROOT
BRANCH   1   5
ATOM      3  C   UNL     1      -0.019   1.526   0.010  0.00  0.00    +0.030 C 
ATOM      4  C   UNL     1       0.002  -0.004   0.002  0.00  0.00    +0.091 C 
ATOM      5  C   UNL     1       0.751  -0.523  -1.249  0.00  0.00    +0.012 C 
ATOM      6  C   UNL     1       2.150  -0.838  -0.653  0.00  0.00    +0.106 C 
ATOM      7  N   UNL     1       1.800  -1.297   0.716  0.00  0.00    -0.240 NA
ATOM      8  N   UNL     1       0.765  -0.510   1.155  0.00  0.00    -0.261 N 
ATOM      9  H   UNL     1       1.537  -2.271   0.714  0.00  0.00    +0.144 HD
BRANCH   8  10
ATOM     10  C   UNL     1       0.478  -0.228   2.495  0.00  0.00    +0.080 A 
ATOM     11  C   UNL     1      -0.784  -0.497   3.008  0.00  0.00    +0.030 A 
ATOM     12  C   UNL     1      -1.065  -0.219   4.331  0.00  0.00    +0.040 A 
ATOM     13  C   UNL     1      -0.090   0.329   5.148  0.00  0.00    +0.126 A 
ATOM     14  C   UNL     1       1.169   0.599   4.641  0.00  0.00    +0.078 A 
ATOM     15  C   UNL     1       1.458   0.316   3.318  0.00  0.00    +0.148 A 
ATOM     16  F   UNL     1       2.689   0.574   2.824  0.00  0.00    -0.203 F 
ATOM     17  F   UNL     1      -0.369   0.601   6.442  0.00  0.00    -0.205 F 
ENDBRANCH   8  10
ENDBRANCH   1   5
BRANCH   1  18
ATOM     18  N   UNL     1       0.827  -2.248  -2.985  0.00  0.00    +0.382 N 
ATOM     19  H   UNL     1       0.745  -1.562  -3.720  0.00  0.00    -0.085 HD
ATOM     20  H   UNL     1       1.799  -2.374  -2.748  0.00  0.00    -0.085 HD
BRANCH  18  21
ATOM     21  C   UNL     1       0.266  -3.526  -3.444  0.00  0.00    -0.067 C 
BRANCH  21  22
ATOM     22  C   UNL     1       1.034  -4.006  -4.678  0.00  0.00    +0.066 C 
ATOM     23  C   UNL     1       0.758  -3.104  -5.864  0.00  0.00    +0.115 C 
ATOM     24  N   UNL     1       0.204  -3.851  -6.762  0.00  0.00    -0.161 NA
ATOM     25  N   UNL     1       0.061  -5.170  -6.343  0.00  0.00    -0.153 NA
ATOM     26  C   UNL     1       0.521  -5.358  -5.134  0.00  0.00    +0.077 C 
BRANCH  26  27
ATOM     27  C   UNL     1       0.537  -6.617  -4.372  0.00  0.00    +0.001 A 
ATOM     28  C   UNL     1       1.063  -6.647  -3.076  0.00  0.00    +0.010 A 
ATOM     29  C   UNL     1       1.076  -7.830  -2.367  0.00  0.00    +0.003 A 
ATOM     30  C   UNL     1       0.569  -8.986  -2.934  0.00  0.00    +0.038 A 
ATOM     31  C   UNL     1       0.046  -8.966  -4.217  0.00  0.00    +0.124 A 
ATOM     32  C   UNL     1       0.022  -7.787  -4.937  0.00  0.00    +0.048 A 
ATOM     33  F   UNL     1      -0.446 -10.099  -4.763  0.00  0.00    -0.205 F 
ENDBRANCH  26  27
ENDBRANCH  21  22
ENDBRANCH  18  21
ENDBRANCH   1  18
TORSDOF 6
