REMARK  Name = ZINC51483942
REMARK  5 active torsions:
REMARK  status: ('A' for Active; 'I' for Inactive)
REMARK    1  A    between atoms: C_2  and  C_10
REMARK    2  A    between atoms: C_5  and  S_6
REMARK    3  A    between atoms: S_6  and  N_9
REMARK    4  A    between atoms: C_16  and  C_19
REMARK    5  A    between atoms: N_21  and  C_22
REMARK                            x       y       z     vdW  Elec       q    Type
REMARK                         _______ _______ _______ _____ _____    ______ ____
ROOT
ATOM      1  C   UNL     1       1.404   3.454   0.007  0.00  0.00    +0.247 C 
ATOM      2  O   UNL     1       1.301   2.247   0.109  0.00  0.00    -0.270 OA
ATOM      3  N   UNL     1       2.623   4.020  -0.104  0.00  0.00    -0.297 N 
ATOM      4  C   UNL     1       3.825   3.187  -0.237  0.00  0.00    +0.108 C 
ATOM      5  C   UNL     1       4.831   3.596   0.844  0.00  0.00    +0.020 C 
ATOM      6  C   UNL     1       5.094   5.100   0.747  0.00  0.00    +0.016 C 
ATOM      7  C   UNL     1       3.790   5.865   0.986  0.00  0.00    +0.092 C 
ATOM      8  C   UNL     1       2.773   5.482  -0.099  0.00  0.00    +0.120 C 
ENDROOT
BRANCH   1  10
ATOM      9  C   UNL     1      -0.934   4.001   0.847  0.00  0.00    +0.049 A 
ATOM     10  C   UNL     1       0.198   4.298   0.003  0.00  0.00    +0.046 A 
ATOM     11  C   UNL     1       0.098   5.408  -0.805  0.00  0.00    +0.060 A 
ATOM     12  S   UNL     1      -1.423   6.029  -0.465  0.00  0.00    -0.076 S 
ATOM     13  C   UNL     1      -1.976   4.851   0.750  0.00  0.00    +0.143 A 
BRANCH  13  14
ATOM     14  S   UNL     1      -3.510   4.807   1.614  0.00  0.00    +0.062 S 
ATOM     15  O   UNL     1      -4.448   5.513   0.814  0.00  0.00    -0.153 OA
ATOM     16  O   UNL     1      -3.713   3.458   2.013  0.00  0.00    -0.153 OA
BRANCH  14  17
ATOM     17  N   UNL     1      -3.316   5.687   3.003  0.00  0.00    -0.203 NA
ATOM     18  H   UNL     1      -2.462   6.105   3.197  0.00  0.00    +0.144 HD
ATOM     19  H   UNL     1      -4.055   5.784   3.623  0.00  0.00    +0.144 HD
ENDBRANCH  14  17
ENDBRANCH  13  14
ENDBRANCH   1  10
BRANCH   7  20
ATOM     20  C   UNL     1       4.057   7.347   0.922  0.00  0.00    +0.218 C 
ATOM     21  O   UNL     1       5.180   7.752   0.708  0.00  0.00    -0.275 OA
ATOM     22  N   UNL     1       3.048   8.222   1.105  0.00  0.00    -0.312 N 
ATOM     23  H   UNL     1       2.150   7.897   1.277  0.00  0.00    +0.149 HD
BRANCH  22  24
ATOM     24  C   UNL     1       3.308   9.662   1.043  0.00  0.00    +0.073 C 
ATOM     25  C   UNL     1       2.656  10.544   2.111  0.00  0.00    +0.024 C 
ATOM     26  C   UNL     1       2.138  10.576   0.672  0.00  0.00    +0.024 C 
ENDBRANCH  22  24
ENDBRANCH   7  20
TORSDOF 5
