REMARK  Name = ZINC09452144
REMARK  13 active torsions:
REMARK  status: ('A' for Active; 'I' for Inactive)
REMARK    1  A    between atoms: C_1  and  C_2
REMARK    2  A    between atoms: C_2  and  N_63
REMARK    3  A    between atoms: C_3  and  C_4
REMARK    4  A    between atoms: C_3  and  N_63
REMARK    5  A    between atoms: C_5  and  C_6
REMARK    6  A    between atoms: C_5  and  N_63
REMARK    7  A    between atoms: C_6  and  N_7
REMARK    8  A    between atoms: C_8  and  C_28
REMARK    9  A    between atoms: C_10  and  C_15
REMARK   10  A    between atoms: C_11  and  O_14
REMARK   11  A    between atoms: C_15  and  C_17
REMARK   12  A    between atoms: C_24  and  C_27
REMARK   13  A    between atoms: C_32  and  O_34
REMARK                            x       y       z     vdW  Elec       q    Type
REMARK                         _______ _______ _______ _____ _____    ______ ____
ROOT
ATOM      1  N   UNL     1       2.434  -0.933   0.647  0.00  0.00    -0.285 N 
ATOM      2  C   UNL     1       1.069  -0.416   0.800  0.00  0.00    +0.144 C 
ATOM      3  C   UNL     1       1.206   1.073   1.017  0.00  0.00    +0.071 C 
ATOM      4  C   UNL     1       2.529   1.353   0.986  0.00  0.00    +0.188 C 
ATOM      5  C   UNL     1       3.284   0.103   0.757  0.00  0.00    +0.282 C 
ATOM      6  O   UNL     1       4.494   0.024   0.678  0.00  0.00    -0.267 OA
ENDROOT
BRANCH   2   7
ATOM      7  C   UNL     1       0.268  -0.687  -0.447  0.00  0.00    -0.019 A 
ATOM      8  C   UNL     1       0.817  -0.431  -1.690  0.00  0.00    +0.006 A 
ATOM      9  C   UNL     1       0.085  -0.679  -2.836  0.00  0.00    +0.004 A 
ATOM     10  C   UNL     1      -1.198  -1.183  -2.742  0.00  0.00    +0.045 A 
ATOM     11  C   UNL     1      -1.751  -1.441  -1.496  0.00  0.00    +0.117 A 
ATOM     12  C   UNL     1      -1.012  -1.196  -0.348  0.00  0.00    +0.051 A 
BRANCH  11  13
ATOM     13  O   UNL     1      -3.013  -1.937  -1.401  0.00  0.00    -0.507 OA
ATOM     14  H   UNL     1      -3.056  -2.903  -1.401  0.00  0.00    +0.292 HD
ENDBRANCH  11  13
ENDBRANCH   2   7
BRANCH   4  15
ATOM     15  O   UNL     1       3.075   2.581   1.141  0.00  0.00    -0.502 OA
ATOM     16  H   UNL     1       4.070   2.515   1.076  0.00  0.00    +0.292 HD
ENDBRANCH   4  15
BRANCH   3  17
ATOM     17  C   UNL     1       0.114   2.032   1.215  0.00  0.00    +0.195 C 
ATOM     18  O   UNL     1      -0.109   2.883   0.375  0.00  0.00    -0.287 OA
BRANCH  17  19
ATOM     19  C   UNL     1      -0.716   1.963   2.434  0.00  0.00    +0.023 A 
ATOM     20  C   UNL     1      -0.466   0.986   3.403  0.00  0.00    +0.015 A 
ATOM     21  C   UNL     1      -1.238   0.925   4.538  0.00  0.00    +0.046 A 
ATOM     22  C   UNL     1      -2.286   1.828   4.731  0.00  0.00    +0.124 A 
ATOM     23  C   UNL     1      -2.530   2.799   3.763  0.00  0.00    -0.002 A 
ATOM     24  C   UNL     1      -1.762   2.872   2.627  0.00  0.00    +0.019 A 
ATOM     25  C   UNL     1      -3.700   3.629   4.254  0.00  0.00    +0.083 C 
ATOM     26  C   UNL     1      -3.768   3.234   5.748  0.00  0.00    +0.175 C 
ATOM     27  O   UNL     1      -3.169   1.927   5.760  0.00  0.00    -0.488 OA
ATOM     28  C   UNL     1      -5.219   3.170   6.227  0.00  0.00    +0.052 C 
ENDBRANCH  17  19
ENDBRANCH   3  17
BRANCH   1  29
ATOM     29  C   UNL     1       2.805  -2.332   0.417  0.00  0.00    +0.090 C 
BRANCH  29  30
ATOM     30  C   UNL     1       2.856  -2.606  -1.087  0.00  0.00    -0.060 C 
BRANCH  30  31
ATOM     31  N   UNL     1       3.384  -3.969  -1.304  0.00  0.00    +0.380 N 
ATOM     32  H   UNL     1       4.192  -4.115  -0.688  0.00  0.00    -0.082 HD
BRANCH  31  34
ATOM     33  C   UNL     1       2.981  -6.362  -0.995  0.00  0.00    -0.017 C 
ATOM     34  C   UNL     1       2.346  -4.970  -0.979  0.00  0.00    -0.082 C 
ENDBRANCH  31  34
BRANCH  31  35
ATOM     35  C   UNL     1       3.816  -4.126  -2.708  0.00  0.00    -0.082 C 
ATOM     36  C   UNL     1       5.154  -3.407  -2.894  0.00  0.00    -0.017 C 
ENDBRANCH  31  35
ENDBRANCH  30  31
ENDBRANCH  29  30
ENDBRANCH   1  29
TORSDOF 10
