REMARK  Name = ZINC39323689
REMARK  6 active torsions:
REMARK  status: ('A' for Active; 'I' for Inactive)
REMARK    1  A    between atoms: C_1  and  C_2
REMARK    2  A    between atoms: C_10  and  N_31
REMARK    3  A    between atoms: C_11  and  C_15
REMARK    4  A    between atoms: N_17  and  C_18
REMARK    5  A    between atoms: C_23  and  O_24
REMARK    6  A    between atoms: O_24  and  C_25
REMARK                            x       y       z     vdW  Elec       q    Type
REMARK                         _______ _______ _______ _____ _____    ______ ____
ROOT
ATOM      1  C   UNL     1      -0.451   1.339  -0.111  0.00  0.00    +0.008 C 
ATOM      2  C   UNL     1      -0.555  -0.171   0.113  0.00  0.00    -0.009 C 
ATOM      3  C   UNL     1      -0.484  -0.898  -1.234  0.00  0.00    +0.010 C 
ATOM      4  C   UNL     1      -0.834  -2.368  -1.007  0.00  0.00    +0.056 C 
ATOM      5  C   UNL     1      -0.003  -2.943   0.111  0.00  0.00    +0.046 A 
ATOM      6  C   UNL     1       0.657  -2.149   1.031  0.00  0.00    -0.025 A 
ATOM      7  C   UNL     1       1.398  -2.732   2.040  0.00  0.00    +0.017 A 
ATOM      8  C   UNL     1       1.482  -4.142   2.122  0.00  0.00    +0.029 A 
ATOM      9  C   UNL     1       2.199  -4.960   3.088  0.00  0.00    +0.053 A 
ATOM     10  C   UNL     1       2.133  -6.330   2.961  0.00  0.00    +0.097 A 
ATOM     11  S   UNL     1       1.100  -6.562   1.528  0.00  0.00    -0.062 S 
ATOM     12  C   UNL     1       0.777  -4.862   1.131  0.00  0.00    +0.111 A 
ATOM     13  N   UNL     1       0.083  -4.263   0.192  0.00  0.00    -0.244 NA
ATOM     14  C   UNL     1       0.610  -0.643   0.980  0.00  0.00    +0.040 C 
ENDROOT
BRANCH  10  15
ATOM     15  C   UNL     1       2.743  -7.317   3.775  0.00  0.00    +0.257 C 
ATOM     16  O   UNL     1       3.426  -6.985   4.727  0.00  0.00    -0.269 OA
ATOM     17  N   UNL     1       2.566  -8.624   3.495  0.00  0.00    -0.278 N 
ATOM     18  H   UNL     1       2.002  -8.888   2.751  0.00  0.00    +0.155 HD
BRANCH  17  19
ATOM     19  C   UNL     1       3.195  -9.599   4.278  0.00  0.00    +0.076 A 
ATOM     20  C   UNL     1       3.589  -9.302   5.575  0.00  0.00    +0.027 A 
ATOM     21  C   UNL     1       4.210 -10.266   6.346  0.00  0.00    +0.002 A 
ATOM     22  C   UNL     1       4.441 -11.527   5.829  0.00  0.00    +0.004 A 
ATOM     23  C   UNL     1       4.051 -11.831   4.537  0.00  0.00    +0.048 A 
ATOM     24  C   UNL     1       3.422 -10.872   3.760  0.00  0.00    +0.150 A 
BRANCH  24  25
ATOM     25  O   UNL     1       3.034 -11.171   2.491  0.00  0.00    -0.454 OA
BRANCH  25  26
ATOM     26  C   UNL     1       3.184 -12.451   2.063  0.00  0.00    +0.129 A 
ATOM     27  C   UNL     1       2.314 -13.438   2.505  0.00  0.00    +0.046 A 
ATOM     28  C   UNL     1       2.469 -14.740   2.068  0.00  0.00    +0.004 A 
ATOM     29  C   UNL     1       3.490 -15.059   1.192  0.00  0.00    +0.000 A 
ATOM     30  C   UNL     1       4.357 -14.077   0.750  0.00  0.00    +0.004 A 
ATOM     31  C   UNL     1       4.203 -12.774   1.179  0.00  0.00    +0.046 A 
ENDBRANCH  25  26
ENDBRANCH  24  25
ENDBRANCH  17  19
ENDBRANCH  10  15
BRANCH   9  32
ATOM     32  N   UNL     1       2.929  -4.374   4.113  0.00  0.00    -0.356 N 
ATOM     33  H   UNL     1       2.967  -3.408   4.191  0.00  0.00    +0.142 HD
ATOM     34  H   UNL     1       3.402  -4.931   4.751  0.00  0.00    +0.142 HD
ENDBRANCH   9  32
TORSDOF 5
