REMARK  Name = ZINC64945823
REMARK  6 active torsions:
REMARK  status: ('A' for Active; 'I' for Inactive)
REMARK    1  A    between atoms: C_1  and  C_2
REMARK    2  A    between atoms: C_4  and  C_31
REMARK    3  A    between atoms: C_6  and  N_8
REMARK    4  A    between atoms: C_9  and  C_11
REMARK    5  A    between atoms: C_11  and  N_12
REMARK    6  A    between atoms: C_26  and  C_30
REMARK                            x       y       z     vdW  Elec       q    Type
REMARK                         _______ _______ _______ _____ _____    ______ ____
ROOT
ATOM      1  N   UNL     1       0.370  -1.959   5.973  0.00  0.00    -0.203 N 
ATOM      2  C   UNL     1      -0.665  -1.466   6.685  0.00  0.00    +0.353 A 
ATOM      3  O   UNL     1      -1.844  -1.725   6.513  0.00  0.00    -0.244 OA
ATOM      4  N   UNL     1      -0.163  -0.635   7.622  0.00  0.00    -0.233 N 
ATOM      5  C   UNL     1      -0.765   0.120   8.596  0.00  0.00    +0.211 A 
ATOM      6  N   UNL     1      -0.072   0.863   9.407  0.00  0.00    -0.229 NA
ATOM      7  C   UNL     1       1.256   0.941   9.348  0.00  0.00    +0.114 A 
ATOM      8  C   UNL     1       2.009   0.228   8.407  0.00  0.00    +0.056 A 
ATOM      9  C   UNL     1       1.212  -0.619   7.482  0.00  0.00    +0.173 A 
ATOM     10  N   UNL     1       1.547  -1.410   6.502  0.00  0.00    -0.148 NA
ATOM     11  C   UNL     1       3.414   0.397   8.451  0.00  0.00    -0.024 A 
ATOM     12  C   UNL     1       3.917   1.230   9.392  0.00  0.00    -0.004 A 
ATOM     13  S   UNL     1       2.494   1.824  10.267  0.00  0.00    -0.073 S 
ATOM     14  C   UNL     1       5.355   1.568   9.635  0.00  0.00    +0.046 C 
ATOM     15  C   UNL     1       6.172   1.112   8.417  0.00  0.00    -0.009 C 
ATOM     16  C   UNL     1       5.761  -0.319   8.058  0.00  0.00    +0.008 C 
ATOM     17  C   UNL     1       4.346  -0.326   7.480  0.00  0.00    +0.037 C 
ATOM     18  C   UNL     1       7.663   1.153   8.755  0.00  0.00    +0.008 C 
ENDROOT
BRANCH   1  19
ATOM     19  C   UNL     1       0.280  -2.900   4.854  0.00  0.00    +0.244 C 
BRANCH  19  21
ATOM     20  N   UNL     1       0.052  -2.797   2.393  0.00  0.00    -0.284 N 
ATOM     21  C   UNL     1       0.150  -2.134   3.562  0.00  0.00    +0.239 C 
ATOM     22  O   UNL     1       0.134  -0.922   3.575  0.00  0.00    -0.273 OA
ATOM     23  H   UNL     1      -0.012  -3.765   2.388  0.00  0.00    +0.155 HD
BRANCH  20  29
ATOM     24  C   UNL     1      -1.512  -2.365  -2.248  0.00  0.00    +0.044 C 
ATOM     25  C   UNL     1      -0.707  -1.857  -1.080  0.00  0.00    -0.048 A 
ATOM     26  C   UNL     1       0.025  -0.690  -1.201  0.00  0.00    +0.006 A 
ATOM     27  C   UNL     1       0.765  -0.220  -0.131  0.00  0.00    -0.048 A 
ATOM     28  C   UNL     1       0.776  -0.917   1.061  0.00  0.00    +0.026 A 
ATOM     29  C   UNL     1       0.043  -2.089   1.186  0.00  0.00    +0.034 A 
ATOM     30  C   UNL     1      -0.704  -2.555   0.112  0.00  0.00    +0.026 A 
ATOM     31  C   UNL     1       1.561   1.052  -0.268  0.00  0.00    +0.044 C 
ENDBRANCH  20  29
ENDBRANCH  19  21
ENDBRANCH   1  19
TORSDOF 3
