REMARK  Name = ZINC64650047
REMARK  4 active torsions:
REMARK  status: ('A' for Active; 'I' for Inactive)
REMARK    1  A    between atoms: C_1  and  C_2
REMARK    2  A    between atoms: C_2  and  N_3
REMARK    3  A    between atoms: C_6  and  C_14
REMARK    4  A    between atoms: C_17  and  C_20
REMARK                            x       y       z     vdW  Elec       q    Type
REMARK                         _______ _______ _______ _____ _____    ______ ____
ROOT
ATOM      1  C   UNL     1      -3.376   0.073  -3.904  0.00  0.00    +0.168 C 
ATOM      2  N   UNL     1      -4.005   0.780  -3.022  0.00  0.00    -0.067 NA
ATOM      3  O   UNL     1      -5.293   1.137  -3.487  0.00  0.00    -0.367 OA
ATOM      4  C   UNL     1      -5.428   0.568  -4.798  0.00  0.00    +0.318 C 
ATOM      5  N   UNL     1      -4.147  -0.116  -5.037  0.00  0.00    -0.288 N 
ATOM      6  H   UNL     1      -3.893  -0.606  -5.834  0.00  0.00    +0.151 HD
ENDROOT
BRANCH   1  10
ATOM      7  N   UNL     1       0.688  -0.476  -1.203  0.00  0.00    -0.266 N 
ATOM      8  C   UNL     1      -0.030  -0.712  -2.385  0.00  0.00    +0.079 A 
ATOM      9  C   UNL     1      -1.309  -0.212  -2.543  0.00  0.00    +0.038 A 
ATOM     10  C   UNL     1      -2.006  -0.458  -3.727  0.00  0.00    +0.020 A 
ATOM     11  C   UNL     1      -1.410  -1.206  -4.743  0.00  0.00    +0.015 A 
ATOM     12  C   UNL     1      -0.133  -1.702  -4.580  0.00  0.00    +0.048 A 
ATOM     13  C   UNL     1       0.561  -1.458  -3.405  0.00  0.00    +0.143 A 
ATOM     14  O   UNL     1       1.821  -1.940  -3.235  0.00  0.00    -0.481 OA
ATOM     15  C   UNL     1       2.714  -1.143  -2.454  0.00  0.00    +0.325 C 
ATOM     16  C   UNL     1       2.022  -0.687  -1.195  0.00  0.00    +0.257 C 
ATOM     17  O   UNL     1       2.660  -0.514  -0.178  0.00  0.00    -0.272 OA
BRANCH   7  19
ATOM     18  C   UNL     1      -0.019   1.526   0.010  0.00  0.00    +0.025 C 
ATOM     19  C   UNL     1       0.002  -0.004   0.002  0.00  0.00    +0.110 C 
ENDBRANCH   7  19
ENDBRANCH   1  10
BRANCH   4  20
ATOM     20  C   UNL     1      -5.644   1.669  -5.838  0.00  0.00    +0.165 C 
ATOM     21  C   UNL     1      -4.456   2.605  -5.861  0.00  0.00    +0.012 C 
ATOM     22  C   UNL     1      -4.934   3.826  -5.532  0.00  0.00    -0.004 A 
ATOM     23  C   UNL     1      -4.293   5.138  -5.382  0.00  0.00    +0.010 A 
ATOM     24  C   UNL     1      -5.051   6.203  -5.034  0.00  0.00    +0.001 A 
ATOM     25  C   UNL     1      -6.430   6.085  -4.812  0.00  0.00    +0.002 A 
ATOM     26  C   UNL     1      -7.090   4.914  -4.931  0.00  0.00    +0.026 A 
ATOM     27  C   UNL     1      -6.392   3.729  -5.293  0.00  0.00    +0.043 A 
ATOM     28  N   UNL     1      -6.800   2.494  -5.469  0.00  0.00    -0.373 N 
ATOM     29  H   UNL     1      -7.712   2.178  -5.371  0.00  0.00    +0.160 HD
ENDBRANCH   4  20
TORSDOF 3
