REMARK  Name = ZINC20321031
REMARK  6 active torsions:
REMARK  status: ('A' for Active; 'I' for Inactive)
REMARK    1  A    between atoms: C_1  and  C_2
REMARK    2  A    between atoms: C_2  and  O_3
REMARK    3  A    between atoms: O_3  and  C_4
REMARK    4  A    between atoms: C_7  and  C_10
REMARK    5  A    between atoms: C_11  and  C_20
REMARK    6  A    between atoms: C_15  and  N_19
REMARK                            x       y       z     vdW  Elec       q    Type
REMARK                         _______ _______ _______ _____ _____    ______ ____
ROOT
ATOM      1  C   UNL     1       3.442  -0.614  -0.710  0.00  0.00    +0.005 A 
ATOM      2  C   UNL     1       3.256  -1.921  -1.007  0.00  0.00    -0.003 A 
ATOM      3  S   UNL     1       1.507  -2.159  -0.763  0.00  0.00    -0.073 S 
ATOM      4  C   UNL     1       1.065  -0.514  -0.271  0.00  0.00    +0.114 A 
ATOM      5  C   UNL     1       2.289   0.185  -0.307  0.00  0.00    +0.055 A 
ATOM      6  C   UNL     1       2.218   1.558   0.051  0.00  0.00    +0.128 A 
ATOM      7  N   UNL     1       1.048   2.078   0.386  0.00  0.00    -0.220 NA
ATOM      8  C   UNL     1      -0.061   1.363   0.399  0.00  0.00    +0.224 A 
ATOM      9  N   UNL     1      -0.058   0.084   0.075  0.00  0.00    -0.228 NA
ATOM     10  C   UNL     1       4.285  -2.934  -1.441  0.00  0.00    +0.052 C 
ENDROOT
BRANCH   1  14
ATOM     11  C   UNL     1       7.312   1.133  -0.943  0.00  0.00    +0.121 A 
ATOM     12  C   UNL     1       7.014   0.245   0.081  0.00  0.00    +0.046 A 
ATOM     13  C   UNL     1       5.760  -0.323   0.160  0.00  0.00    +0.012 A 
ATOM     14  C   UNL     1       4.791  -0.005  -0.791  0.00  0.00    -0.016 A 
ATOM     15  C   UNL     1       5.096   0.883  -1.822  0.00  0.00    +0.012 A 
ATOM     16  C   UNL     1       6.350   1.452  -1.892  0.00  0.00    +0.046 A 
BRANCH  11  17
ATOM     17  O   UNL     1       8.549   1.692  -1.018  0.00  0.00    -0.492 OA
BRANCH  17  19
ATOM     18  C   UNL     1      10.224   3.119  -2.016  0.00  0.00    +0.048 C 
ATOM     19  C   UNL     1       8.789   2.597  -2.098  0.00  0.00    +0.225 C 
ENDBRANCH  17  19
ENDBRANCH  11  17
ENDBRANCH   1  14
BRANCH   6  20
ATOM     20  N   UNL     1       3.358   2.341   0.050  0.00  0.00    -0.343 N 
ATOM     21  H   UNL     1       3.296   3.403   0.328  0.00  0.00    +0.144 HD
ATOM     22  H   UNL     1       4.327   1.902  -0.230  0.00  0.00    +0.144 HD
ENDBRANCH   6  20
TORSDOF 4
