REMARK  Name = ZINC66131082
REMARK  4 active torsions:
REMARK  status: ('A' for Active; 'I' for Inactive)
REMARK    1  A    between atoms: C_1  and  C_2
REMARK    2  A    between atoms: C_2  and  C_20
REMARK    3  A    between atoms: N_12  and  C_13
REMARK    4  A    between atoms: C_13  and  C_14
REMARK                            x       y       z     vdW  Elec       q    Type
REMARK                         _______ _______ _______ _____ _____    ______ ____
ROOT
ATOM      1  C   UNL     1      -0.033   1.473  -0.023  0.00  0.00    +0.062 C 
ATOM      2  C   UNL     1       0.055  -0.053   0.043  0.00  0.00    +0.158 C 
ATOM      3  N   UNL     1      -1.298  -0.620   0.007  0.00  0.00    -0.317 N 
ATOM      4  C   UNL     1      -2.073  -0.576   1.161  0.00  0.00    +0.041 A 
ATOM      5  C   UNL     1      -3.456  -0.522   1.108  0.00  0.00    +0.024 A 
ATOM      6  C   UNL     1      -4.184  -0.491   2.282  0.00  0.00    +0.002 A 
ATOM      7  C   UNL     1      -3.542  -0.514   3.510  0.00  0.00    +0.001 A 
ATOM      8  C   UNL     1      -2.166  -0.563   3.580  0.00  0.00    +0.015 A 
ATOM      9  C   UNL     1      -1.418  -0.591   2.405  0.00  0.00    +0.058 A 
ATOM     10  C   UNL     1       0.055  -0.619   2.427  0.00  0.00    +0.251 C 
ATOM     11  O   UNL     1       0.649  -0.798   3.472  0.00  0.00    -0.270 OA
ATOM     12  N   UNL     1       0.737  -0.446   1.277  0.00  0.00    -0.266 N 
ATOM     13  H   UNL     1      -1.645  -1.018  -0.806  0.00  0.00    +0.149 HD
ENDROOT
BRANCH   2  14
ATOM     14  C   UNL     1       0.836  -0.560  -1.141  0.00  0.00    +0.146 A 
ATOM     15  C   UNL     1       0.639  -1.733  -1.770  0.00  0.00    +0.048 A 
ATOM     16  C   UNL     1       1.587  -1.801  -2.817  0.00  0.00    +0.041 A 
ATOM     17  C   UNL     1       2.306  -0.666  -2.766  0.00  0.00    +0.195 A 
ATOM     18  O   UNL     1       1.843   0.085  -1.752  0.00  0.00    -0.464 OA
ENDBRANCH   2  14
BRANCH  12  19
ATOM     19  C   UNL     1       2.187  -0.653   1.263  0.00  0.00    +0.145 C 
BRANCH  19  20
ATOM     20  C   UNL     1       2.879   0.604   1.722  0.00  0.00    -0.030 A 
ATOM     21  C   UNL     1       3.236   1.573   0.803  0.00  0.00    +0.005 A 
ATOM     22  C   UNL     1       3.871   2.726   1.225  0.00  0.00    +0.000 A 
ATOM     23  C   UNL     1       4.148   2.911   2.566  0.00  0.00    +0.000 A 
ATOM     24  C   UNL     1       3.791   1.943   3.486  0.00  0.00    +0.000 A 
ATOM     25  C   UNL     1       3.152   0.792   3.065  0.00  0.00    +0.005 A 
ENDBRANCH  19  20
ENDBRANCH  12  19
TORSDOF 3
