REMARK  Name = ZINC59973282
REMARK  8 active torsions:
REMARK  status: ('A' for Active; 'I' for Inactive)
REMARK    1  A    between atoms: C_1  and  C_2
REMARK    2  A    between atoms: C_2  and  C_3
REMARK    3  A    between atoms: C_3  and  C_4
REMARK    4  A    between atoms: C_4  and  N_5
REMARK    5  A    between atoms: N_5  and  C_6
REMARK    6  A    between atoms: C_6  and  C_7
REMARK    7  A    between atoms: C_10  and  C_12
REMARK    8  A    between atoms: C_18  and  N_22
REMARK                            x       y       z     vdW  Elec       q    Type
REMARK                         _______ _______ _______ _____ _____    ______ ____
ROOT
ATOM      1  N   UNL     1      -2.922  -2.551   0.102  0.00  0.00    -0.288 N 
ATOM      2  C   UNL     1      -3.407  -2.931   1.301  0.00  0.00    +0.263 C 
ATOM      3  O   UNL     1      -2.793  -2.665   2.317  0.00  0.00    -0.268 OA
ENDROOT
BRANCH   2   4
ATOM      4  C   UNL     1      -4.678  -3.666   1.381  0.00  0.00    +0.103 A 
ATOM      5  C   UNL     1      -5.347  -3.961   2.526  0.00  0.00    +0.041 A 
ATOM      6  C   UNL     1      -6.518  -4.674   2.171  0.00  0.00    +0.002 A 
ATOM      7  C   UNL     1      -7.571  -5.226   2.915  0.00  0.00    +0.010 A 
ATOM      8  C   UNL     1      -8.589  -5.874   2.278  0.00  0.00    +0.002 A 
ATOM      9  C   UNL     1      -8.596  -5.994   0.894  0.00  0.00    +0.025 A 
ATOM     10  C   UNL     1      -7.570  -5.459   0.136  0.00  0.00    +0.049 A 
ATOM     11  C   UNL     1      -6.518  -4.790   0.770  0.00  0.00    +0.068 A 
ATOM     12  N   UNL     1      -5.385  -4.162   0.304  0.00  0.00    -0.349 N 
ATOM     13  H   UNL     1      -5.125  -4.083  -0.627  0.00  0.00    +0.166 HD
BRANCH  10  14
ATOM     14  N   UNL     1      -7.586  -5.585  -1.256  0.00  0.00    -0.356 N 
ATOM     15  H   UNL     1      -8.317  -6.049  -1.693  0.00  0.00    +0.142 HD
ATOM     16  H   UNL     1      -6.865  -5.209  -1.785  0.00  0.00    +0.142 HD
ENDBRANCH  10  14
ENDBRANCH   2   4
BRANCH   1  17
ATOM     17  C   UNL     1      -1.595  -1.938   0.009  0.00  0.00    +0.108 C 
BRANCH  17  18
ATOM     18  C   UNL     1      -1.723  -0.420   0.151  0.00  0.00    +0.019 C 
BRANCH  18  20
ATOM     19  C   UNL     1      -0.464   1.737   0.197  0.00  0.00    +0.004 C 
ATOM     20  C   UNL     1      -0.337   0.219   0.054  0.00  0.00    -0.002 C 
ENDBRANCH  18  20
ENDBRANCH  17  18
ENDBRANCH   1  17
BRANCH   1  21
ATOM     21  C   UNL     1      -3.723  -2.751  -1.108  0.00  0.00    +0.203 C 
BRANCH  21  22
ATOM     22  C   UNL     1      -3.454  -4.124  -1.668  0.00  0.00    +0.228 C 
ATOM     23  O   UNL     1      -2.670  -4.863  -1.111  0.00  0.00    -0.274 OA
ATOM     24  N   UNL     1      -4.083  -4.531  -2.788  0.00  0.00    -0.328 N 
ATOM     25  H   UNL     1      -4.711  -3.940  -3.233  0.00  0.00    +0.145 HD
ATOM     26  H   UNL     1      -3.910  -5.415  -3.148  0.00  0.00    +0.145 HD
ENDBRANCH  21  22
ENDBRANCH   1  21
TORSDOF 7
