REMARK  Name = ZINC13371715
REMARK  5 active torsions:
REMARK  status: ('A' for Active; 'I' for Inactive)
REMARK    1  A    between atoms: C_1  and  C_2
REMARK    2  A    between atoms: C_2  and  C_3
REMARK    3  A    between atoms: C_2  and  N_4
REMARK    4  A    between atoms: N_12  and  N_13
REMARK    5  A    between atoms: C_14  and  C_16
REMARK                            x       y       z     vdW  Elec       q    Type
REMARK                         _______ _______ _______ _____ _____    ______ ____
ROOT
ATOM      1  N   UNL     1      -1.372  -0.511   0.012  0.00  0.00    -0.263 N 
ATOM      2  C   UNL     1      -1.916  -1.320  -0.979  0.00  0.00    +0.046 A 
ATOM      3  C   UNL     1      -1.374  -1.834  -2.152  0.00  0.00    +0.024 A 
ATOM      4  C   UNL     1      -2.142  -2.627  -2.981  0.00  0.00    +0.002 A 
ATOM      5  C   UNL     1      -3.456  -2.920  -2.658  0.00  0.00    +0.001 A 
ATOM      6  C   UNL     1      -4.011  -2.419  -1.497  0.00  0.00    +0.012 A 
ATOM      7  C   UNL     1      -3.246  -1.619  -0.656  0.00  0.00    +0.028 A 
ATOM      8  C   UNL     1      -3.527  -0.939   0.629  0.00  0.00    +0.153 C 
ATOM      9  N   UNL     1      -4.649  -0.945   1.307  0.00  0.00    -0.174 NA
ATOM     10  C   UNL     1      -2.265  -0.258   0.984  0.00  0.00    +0.272 C 
ATOM     11  O   UNL     1      -2.070   0.416   1.979  0.00  0.00    -0.268 OA
ENDROOT
BRANCH   9  12
ATOM     12  N   UNL     1      -4.742  -0.241   2.515  0.00  0.00    -0.203 N 
ATOM     13  C   UNL     1      -5.895  -0.247   3.212  0.00  0.00    +0.276 C 
ATOM     14  O   UNL     1      -6.853  -0.861   2.793  0.00  0.00    -0.270 OA
ATOM     15  H   UNL     1      -3.975   0.251   2.850  0.00  0.00    +0.177 HD
BRANCH  13  16
ATOM     16  C   UNL     1      -5.995   0.510   4.511  0.00  0.00    +0.297 C 
ATOM     17  C   UNL     1      -5.862   2.016   4.244  0.00  0.00    +0.283 C 
ATOM     18  O   UNL     1      -5.974   2.704   5.494  0.00  0.00    -0.484 OA
ATOM     19  C   UNL     1      -6.991   2.321   6.314  0.00  0.00    +0.162 A 
ATOM     20  C   UNL     1      -7.384   3.157   7.348  0.00  0.00    +0.049 A 
ATOM     21  C   UNL     1      -8.412   2.780   8.191  0.00  0.00    +0.004 A 
ATOM     22  C   UNL     1      -9.052   1.569   8.005  0.00  0.00    +0.004 A 
ATOM     23  C   UNL     1      -8.666   0.731   6.976  0.00  0.00    +0.049 A 
ATOM     24  C   UNL     1      -7.636   1.104   6.126  0.00  0.00    +0.163 A 
ATOM     25  O   UNL     1      -7.272   0.272   5.112  0.00  0.00    -0.472 OA
ENDBRANCH  13  16
ENDBRANCH   9  12
BRANCH   1  27
ATOM     26  C   UNL     1      -0.019   1.526   0.010  0.00  0.00    +0.028 C 
ATOM     27  C   UNL     1       0.002  -0.004   0.002  0.00  0.00    +0.076 C 
ATOM     28  C   UNL     1       0.742  -0.511   1.242  0.00  0.00    +0.028 C 
ENDBRANCH   1  27
TORSDOF 3
