REMARK  Name = ZINC13722760
REMARK  16 active torsions:
REMARK  status: ('A' for Active; 'I' for Inactive)
REMARK    1  A    between atoms: C_1  and  C_2
REMARK    2  A    between atoms: C_3  and  C_9
REMARK    3  A    between atoms: C_4  and  C_8
REMARK    4  A    between atoms: N_5  and  C_7
REMARK    5  A    between atoms: C_9  and  C_11
REMARK    6  A    between atoms: N_15  and  C_28
REMARK    7  A    between atoms: C_16  and  C_18
REMARK    8  A    between atoms: C_20  and  O_26
REMARK    9  A    between atoms: C_23  and  O_24
REMARK   10  A    between atoms: O_24  and  C_25
REMARK   11  A    between atoms: O_26  and  C_27
REMARK   12  A    between atoms: C_28  and  C_29
REMARK   13  A    between atoms: C_29  and  C_30
REMARK   14  A    between atoms: C_30  and  N_31
REMARK   15  A    between atoms: N_31  and  C_32
REMARK   16  A    between atoms: N_31  and  C_33
REMARK                            x       y       z     vdW  Elec       q    Type
REMARK                         _______ _______ _______ _____ _____    ______ ____
ROOT
ATOM      1  C   UNL     1       0.717   2.470  -0.203  0.00  0.00    +0.077 C 
ATOM      2  C   UNL     1       0.553   1.128  -0.247  0.00  0.00    +0.249 C 
ATOM      3  C   UNL     1       1.790   0.471   0.228  0.00  0.00    +0.288 C 
ATOM      4  O   UNL     1       1.954  -0.730   0.311  0.00  0.00    -0.266 OA
ATOM      5  N   UNL     1       2.708   1.401   0.551  0.00  0.00    -0.283 N 
ATOM      6  C   UNL     1       2.114   2.722   0.314  0.00  0.00    +0.148 C 
ATOM      7  O   UNL     1      -0.567   0.488  -0.655  0.00  0.00    -0.282 OA
ENDROOT
BRANCH   6   8
ATOM      8  C   UNL     1       2.919   3.474  -0.715  0.00  0.00    +0.023 A 
ATOM      9  C   UNL     1       3.701   2.783  -1.620  0.00  0.00    +0.055 A 
ATOM     10  C   UNL     1       4.441   3.476  -2.567  0.00  0.00    +0.121 A 
ATOM     11  C   UNL     1       4.396   4.862  -2.605  0.00  0.00    +0.049 A 
ATOM     12  C   UNL     1       3.614   5.552  -1.699  0.00  0.00    +0.049 A 
ATOM     13  C   UNL     1       2.870   4.859  -0.756  0.00  0.00    +0.126 A 
BRANCH  13  14
ATOM     14  O   UNL     1       2.095   5.539   0.132  0.00  0.00    -0.495 OA
ATOM     15  C   UNL     1       2.018   6.957  -0.027  0.00  0.00    +0.277 C 
ENDBRANCH  13  14
BRANCH  10  16
ATOM     16  O   UNL     1       5.211   2.796  -3.458  0.00  0.00    -0.495 OA
ATOM     17  C   UNL     1       5.947   3.573  -4.405  0.00  0.00    +0.277 C 
ENDBRANCH  10  16
ENDBRANCH   6   8
BRANCH   1  18
ATOM     18  C   UNL     1      -0.272   3.485  -0.583  0.00  0.00    +0.199 C 
ATOM     19  O   UNL     1      -0.837   4.135   0.276  0.00  0.00    -0.287 OA
BRANCH  18  22
ATOM     20  C   UNL     1       0.868   1.811  -3.028  0.00  0.00    +0.068 C 
ATOM     21  C   UNL     1      -0.081   2.980  -3.104  0.00  0.00    +0.071 A 
ATOM     22  C   UNL     1      -0.580   3.716  -2.006  0.00  0.00    +0.065 A 
ATOM     23  C   UNL     1      -1.408   4.698  -2.517  0.00  0.00    +0.047 A 
ATOM     24  N   UNL     1      -1.415   4.562  -3.853  0.00  0.00    -0.271 N 
ATOM     25  N   UNL     1      -0.587   3.486  -4.194  0.00  0.00    -0.176 NA
ATOM     26  C   UNL     1      -2.164   5.398  -4.794  0.00  0.00    +0.172 C 
ATOM     27  C   UNL     1      -2.163   5.731  -1.721  0.00  0.00    +0.066 C 
ENDBRANCH  18  22
ENDBRANCH   1  18
BRANCH   5  28
ATOM     28  C   UNL     1       4.058   1.139   1.056  0.00  0.00    +0.107 C 
BRANCH  28  29
ATOM     29  C   UNL     1       4.025   1.066   2.584  0.00  0.00    +0.000 C 
BRANCH  29  30
ATOM     30  C   UNL     1       5.435   0.793   3.112  0.00  0.00    -0.078 C 
BRANCH  30  31
ATOM     31  N   UNL     1       5.404   0.722   4.579  0.00  0.00    +0.376 N 
ATOM     32  C   UNL     1       4.630  -0.441   5.033  0.00  0.00    -0.097 C 
ATOM     33  C   UNL     1       6.764   0.699   5.134  0.00  0.00    -0.097 C 
ATOM     34  H   UNL     1       4.902   1.628   4.950  0.00  0.00    -0.083 HD
ENDBRANCH  30  31
ENDBRANCH  29  30
ENDBRANCH  28  29
ENDBRANCH   5  28
TORSDOF 9
