REMARK  Name = ZINC36331142
REMARK  3 active torsions:
REMARK  status: ('A' for Active; 'I' for Inactive)
REMARK    1  A    between atoms: C_5  and  N_8
REMARK    2  A    between atoms: C_6  and  N_7
REMARK    3  A    between atoms: N_8  and  C_9
REMARK                            x       y       z     vdW  Elec       q    Type
REMARK                         _______ _______ _______ _____ _____    ______ ____
ROOT
ATOM      1  C   UNL     1      -0.017   1.383   0.010  0.00  0.00    +0.030 A 
ATOM      2  C   UNL     1       1.168   2.087   0.002  0.00  0.00    -0.016 A 
ATOM      3  C   UNL     1       2.391   1.429  -0.013  0.00  0.00    +0.039 A 
ATOM      4  C   UNL     1       2.410   0.035  -0.022  0.00  0.00    +0.048 A 
ATOM      5  C   UNL     1       1.224  -0.677  -0.016  0.00  0.00    +0.050 A 
ATOM      6  C   UNL     1       0.002  -0.004   0.002  0.00  0.00    +0.046 A 
ATOM      7  N   UNL     1       3.438   2.355  -0.017  0.00  0.00    -0.285 N 
ATOM      8  C   UNL     1       2.994   3.623  -0.006  0.00  0.00    +0.222 C 
ATOM      9  O   UNL     1       3.677   4.625  -0.007  0.00  0.00    -0.275 OA
ATOM     10  C   UNL     1       1.482   3.566   0.008  0.00  0.00    +0.133 C 
ATOM     11  H   UNL     1       4.376   2.110  -0.027  0.00  0.00    +0.155 HD
ENDROOT
BRANCH   6  12
ATOM     12  N   UNL     1      -1.200  -0.726   0.010  0.00  0.00    -0.357 N 
ATOM     13  H   UNL     1      -2.048  -0.255   0.021  0.00  0.00    +0.142 HD
ATOM     14  H   UNL     1      -1.184  -1.695   0.005  0.00  0.00    +0.142 HD
ENDBRANCH   6  12
BRANCH   5  15
ATOM     15  N   UNL     1       1.250  -2.077  -0.025  0.00  0.00    -0.339 N 
ATOM     16  H   UNL     1       0.419  -2.578  -0.021  0.00  0.00    +0.146 HD
BRANCH  15  17
ATOM     17  C   UNL     1       2.532  -2.786  -0.041  0.00  0.00    +0.073 C 
ATOM     18  C   UNL     1       3.034  -2.883  -1.479  0.00  0.00    +0.045 C 
ATOM     19  C   UNL     1       4.484  -3.374  -1.494  0.00  0.00    +0.167 C 
ATOM     20  S   UNL     1       4.544  -5.051  -0.797  0.00  0.00    -0.031 S 
ATOM     21  O   UNL     1       5.902  -5.391  -0.554  0.00  0.00    -0.174 OA
ATOM     22  O   UNL     1       3.751  -5.906  -1.609  0.00  0.00    -0.174 OA
ATOM     23  C   UNL     1       3.709  -4.828   0.801  0.00  0.00    +0.167 C 
ATOM     24  C   UNL     1       2.345  -4.176   0.560  0.00  0.00    +0.045 C 
ENDBRANCH  15  17
ENDBRANCH   5  15
TORSDOF 3
