REMARK  Name = ZINC39997869
REMARK  9 active torsions:
REMARK  status: ('A' for Active; 'I' for Inactive)
REMARK    1  A    between atoms: C_1  and  C_2
REMARK    2  A    between atoms: C_2  and  C_3
REMARK    3  A    between atoms: C_3  and  C_4
REMARK    4  A    between atoms: C_7  and  N_9
REMARK    5  A    between atoms: C_10  and  C_12
REMARK    6  A    between atoms: C_12  and  C_35
REMARK    7  A    between atoms: C_13  and  C_14
REMARK    8  A    between atoms: N_16  and  C_29
REMARK    9  A    between atoms: C_18  and  C_19
REMARK                            x       y       z     vdW  Elec       q    Type
REMARK                         _______ _______ _______ _____ _____    ______ ____
ROOT
ATOM      1  C   UNL     1       1.143 -10.696   1.143  0.00  0.00    +0.018 A 
ATOM      2  C   UNL     1       0.011 -11.151   1.801  0.00  0.00    +0.122 A 
ATOM      3  N   UNL     1       0.102 -12.492   1.874  0.00  0.00    -0.239 N 
ATOM      4  N   UNL     1       1.295 -12.890   1.260  0.00  0.00    -0.170 NA
ATOM      5  C   UNL     1       1.919 -11.835   0.817  0.00  0.00    +0.077 A 
ENDROOT
BRANCH   5   6
ATOM      6  C   UNL     1       3.239 -11.828   0.089  0.00  0.00    +0.016 C 
ATOM      7  C   UNL     1       4.256 -11.009   0.885  0.00  0.00    +0.016 C 
ATOM      8  C   UNL     1       5.596 -11.002   0.146  0.00  0.00    -0.010 C 
ATOM      9  C   UNL     1       6.103 -12.438  -0.005  0.00  0.00    +0.007 C 
ATOM     10  C   UNL     1       5.085 -13.257  -0.801  0.00  0.00    -0.010 C 
ATOM     11  C   UNL     1       3.745 -13.264  -0.062  0.00  0.00    +0.016 C 
ATOM     12  C   UNL     1       4.900 -12.633  -2.186  0.00  0.00    +0.007 C 
ATOM     13  C   UNL     1       4.393 -11.197  -2.035  0.00  0.00    -0.010 C 
ATOM     14  C   UNL     1       5.411 -10.378  -1.239  0.00  0.00    +0.007 C 
ATOM     15  C   UNL     1       3.054 -11.204  -1.296  0.00  0.00    +0.016 C 
ENDBRANCH   5   6
BRANCH   3  16
ATOM     16  C   UNL     1      -0.839 -13.346   2.465  0.00  0.00    +0.065 A 
ATOM     17  C   UNL     1      -1.990 -12.822   3.038  0.00  0.00    +0.028 A 
ATOM     18  C   UNL     1      -2.916 -13.666   3.619  0.00  0.00    +0.002 A 
ATOM     19  C   UNL     1      -2.697 -15.031   3.631  0.00  0.00    +0.000 A 
ATOM     20  C   UNL     1      -1.552 -15.556   3.061  0.00  0.00    +0.002 A 
ATOM     21  C   UNL     1      -0.625 -14.717   2.473  0.00  0.00    +0.028 A 
ENDBRANCH   3  16
BRANCH   1  23
ATOM     22  C   UNL     1       0.488  -8.336   0.889  0.00  0.00    +0.118 C 
ATOM     23  C   UNL     1       1.470  -9.302   0.838  0.00  0.00    +0.035 C 
BRANCH  22  25
ATOM     24  N   UNL     1      -0.094  -5.997   0.779  0.00  0.00    -0.180 NA
ATOM     25  C   UNL     1       0.843  -6.919   0.731  0.00  0.00    +0.290 C 
ATOM     26  O   UNL     1       2.133  -6.562   0.535  0.00  0.00    -0.264 OA
BRANCH  24  30
ATOM     27  C   UNL     1       0.513  -2.049   0.388  0.00  0.00    +0.104 A 
ATOM     28  N   UNL     1       1.546  -2.868   0.319  0.00  0.00    -0.144 NA
ATOM     29  N   UNL     1       1.423  -4.117   0.434  0.00  0.00    -0.121 NA
ATOM     30  C   UNL     1       0.234  -4.687   0.633  0.00  0.00    +0.218 A 
ATOM     31  S   UNL     1      -0.805  -3.229   0.661  0.00  0.00    -0.031 S 
BRANCH  27  32
ATOM     32  C   UNL     1       0.460  -0.547   0.276  0.00  0.00    +0.064 C 
BRANCH  32  34
ATOM     33  C   UNL     1       0.195   1.372  -1.301  0.00  0.00    +0.004 C 
ATOM     34  C   UNL     1       0.249  -0.152  -1.187  0.00  0.00    +0.003 C 
ENDBRANCH  32  34
ENDBRANCH  27  32
ENDBRANCH  24  30
ENDBRANCH  22  25
BRANCH  22  35
ATOM     35  C   UNL     1      -0.878  -8.713   1.095  0.00  0.00    +0.105 C 
ATOM     36  N   UNL     1      -1.961  -9.012   1.260  0.00  0.00    -0.191 NA
ENDBRANCH  22  35
ENDBRANCH   1  23
TORSDOF 8
