REMARK  Name = ZINC67390590
REMARK  11 active torsions:
REMARK  status: ('A' for Active; 'I' for Inactive)
REMARK    1  A    between atoms: C_1  and  C_2
REMARK    2  A    between atoms: C_2  and  C_3
REMARK    3  A    between atoms: C_2  and  C_4
REMARK    4  A    between atoms: C_2  and  O_5
REMARK    5  A    between atoms: O_5  and  C_6
REMARK    6  A    between atoms: N_8  and  C_9
REMARK    7  A    between atoms: N_8  and  C_24
REMARK    8  A    between atoms: C_9  and  C_10
REMARK    9  A    between atoms: C_10  and  N_11
REMARK   10  A    between atoms: C_17  and  C_20
REMARK   11  A    between atoms: C_20  and  C_21
REMARK                            x       y       z     vdW  Elec       q    Type
REMARK                         _______ _______ _______ _____ _____    ______ ____
ROOT
ATOM      1  N   UNL     1       6.336  -0.341  -2.168  0.00  0.00    -0.298 N 
ATOM      2  C   UNL     1       7.396  -1.000  -1.659  0.00  0.00    +0.302 C 
ATOM      3  O   UNL     1       7.238  -2.072  -1.108  0.00  0.00    -0.253 OA
ATOM      4  N   UNL     1       8.631  -0.470  -1.761  0.00  0.00    -0.286 N 
ATOM      5  C   UNL     1       8.854   0.770  -2.517  0.00  0.00    +0.109 C 
ATOM      6  C   UNL     1       9.956   0.525  -3.552  0.00  0.00    +0.023 C 
ATOM      7  C   UNL     1      11.203  -0.013  -2.847  0.00  0.00    +0.001 C 
ATOM      8  C   UNL     1      10.872  -1.345  -2.169  0.00  0.00    +0.023 C 
ATOM      9  C   UNL     1       9.780  -1.118  -1.113  0.00  0.00    +0.109 C 
ATOM     10  H   UNL     1       6.470   0.478  -2.670  0.00  0.00    +0.150 HD
ENDROOT
BRANCH   1  11
ATOM     11  C   UNL     1       4.982  -0.862  -1.962  0.00  0.00    +0.125 C 
BRANCH  11  12
ATOM     12  C   UNL     1       3.971   0.067  -2.636  0.00  0.00    +0.130 C 
BRANCH  12  15
ATOM     13  C   UNL     1       1.906  -0.074  -1.350  0.00  0.00    +0.404 C 
ATOM     14  O   UNL     1       2.419   0.626  -0.500  0.00  0.00    -0.226 OA
ATOM     15  N   UNL     1       2.617  -0.454  -2.431  0.00  0.00    -0.263 N 
BRANCH  15  16
ATOM     16  C   UNL     1       2.036  -1.387  -3.399  0.00  0.00    +0.079 C 
ATOM     17  C   UNL     1       2.981  -2.026  -4.419  0.00  0.00    +0.024 C 
ATOM     18  C   UNL     1       1.991  -0.947  -4.864  0.00  0.00    +0.024 C 
ENDBRANCH  15  16
BRANCH  13  19
ATOM     19  O   UNL     1       0.627  -0.471  -1.213  0.00  0.00    -0.445 OA
BRANCH  19  21
ATOM     20  C   UNL     1      -0.106   1.497  -0.018  0.00  0.00    +0.055 C 
ATOM     21  C   UNL     1      -0.067  -0.032  -0.043  0.00  0.00    +0.107 C 
ATOM     22  C   UNL     1       0.659  -0.544   1.202  0.00  0.00    +0.055 C 
ATOM     23  C   UNL     1      -1.496  -0.579  -0.062  0.00  0.00    +0.055 C 
ENDBRANCH  19  21
ENDBRANCH  13  19
ENDBRANCH  12  15
ENDBRANCH  11  12
ENDBRANCH   1  11
BRANCH   7  24
ATOM     24  C   UNL     1      12.317  -0.226  -3.873  0.00  0.00    +0.099 C 
BRANCH  24  25
ATOM     25  C   UNL     1      13.581  -0.639  -3.163  0.00  0.00    +0.211 C 
ATOM     26  O   UNL     1      13.590  -0.751  -1.956  0.00  0.00    -0.276 OA
ATOM     27  N   UNL     1      14.702  -0.883  -3.871  0.00  0.00    -0.329 N 
ATOM     28  H   UNL     1      14.695  -0.792  -4.837  0.00  0.00    +0.145 HD
ATOM     29  H   UNL     1      15.516  -1.148  -3.414  0.00  0.00    +0.145 HD
ENDBRANCH  24  25
ENDBRANCH   7  24
TORSDOF 8
