REMARK  Name = ZINC05518976
REMARK  7 active torsions:
REMARK  status: ('A' for Active; 'I' for Inactive)
REMARK    1  A    between atoms: C_4  and  C_7
REMARK    2  A    between atoms: C_8  and  C_9
REMARK    3  A    between atoms: C_8  and  C_11
REMARK    4  A    between atoms: N_13  and  N_14
REMARK    5  A    between atoms: N_14  and  S_15
REMARK    6  A    between atoms: S_15  and  C_18
REMARK    7  A    between atoms: C_22  and  N_24
REMARK                            x       y       z     vdW  Elec       q    Type
REMARK                         _______ _______ _______ _____ _____    ______ ____
ROOT
ATOM      1  C   UNL     1      -1.899   6.643  -3.005  0.00  0.00    +0.269 C 
ATOM      2  O   UNL     1      -1.548   7.806  -2.952  0.00  0.00    -0.268 OA
ATOM      3  N   UNL     1      -1.251   5.709  -2.281  0.00  0.00    -0.227 N 
ATOM      4  H   UNL     1      -1.532   4.781  -2.324  0.00  0.00    +0.171 HD
ENDROOT
BRANCH   1   6
ATOM      5  C   UNL     1      -3.691   7.202  -4.593  0.00  0.00    +0.032 C 
ATOM      6  C   UNL     1      -3.034   6.255  -3.860  0.00  0.00    +0.115 C 
BRANCH   5  10
ATOM      7  C   UNL     1      -6.667   6.037  -7.378  0.00  0.00    +0.000 A 
ATOM      8  C   UNL     1      -6.753   7.270  -6.753  0.00  0.00    +0.001 A 
ATOM      9  C   UNL     1      -5.790   7.657  -5.847  0.00  0.00    +0.008 A 
ATOM     10  C   UNL     1      -4.721   6.799  -5.557  0.00  0.00    -0.024 A 
ATOM     11  C   UNL     1      -4.639   5.556  -6.198  0.00  0.00    +0.008 A 
ATOM     12  C   UNL     1      -5.614   5.183  -7.098  0.00  0.00    +0.001 A 
ENDBRANCH   5  10
BRANCH   6  13
ATOM     13  C   UNL     1      -3.448   4.886  -3.923  0.00  0.00    +0.104 C 
ATOM     14  N   UNL     1      -3.777   3.800  -3.973  0.00  0.00    -0.191 NA
ENDBRANCH   6  13
ENDBRANCH   1   6
BRANCH   3  15
ATOM     15  N   UNL     1      -0.172   6.078  -1.468  0.00  0.00    -0.108 NA
ATOM     16  H   UNL     1       0.581   6.558  -1.848  0.00  0.00    +0.172 HD
BRANCH  15  17
ATOM     17  S   UNL     1      -0.180   5.694   0.143  0.00  0.00    +0.074 S 
ATOM     18  O   UNL     1      -1.395   6.205   0.675  0.00  0.00    -0.152 OA
ATOM     19  O   UNL     1       1.092   6.066   0.656  0.00  0.00    -0.152 OA
BRANCH  17  20
ATOM     20  C   UNL     1      -0.277   3.939   0.261  0.00  0.00    +0.109 A 
ATOM     21  C   UNL     1       0.880   3.184   0.297  0.00  0.00    +0.029 A 
ATOM     22  C   UNL     1       0.805   1.807   0.389  0.00  0.00    +0.004 A 
ATOM     23  C   UNL     1      -0.429   1.185   0.445  0.00  0.00    +0.033 A 
ATOM     24  C   UNL     1      -1.586   1.939   0.403  0.00  0.00    +0.128 A 
ATOM     25  C   UNL     1      -1.510   3.317   0.317  0.00  0.00    +0.061 A 
BRANCH  24  26
ATOM     26  N   UNL     1      -2.906   1.273   0.456  0.00  0.00    +0.056 N 
ATOM     27  O   UNL     1      -2.973   0.059   0.537  0.00  0.00    -0.126 OA
ATOM     28  O   UNL     1      -3.926   1.938   0.419  0.00  0.00    -0.126 OA
ENDBRANCH  24  26
ENDBRANCH  17  20
ENDBRANCH  15  17
ENDBRANCH   3  15
TORSDOF 7
