REMARK  Name = ZINC36485123
REMARK  15 active torsions:
REMARK  status: ('A' for Active; 'I' for Inactive)
REMARK    1  A    between atoms: C_1  and  C_2
REMARK    2  A    between atoms: C_2  and  C_3
REMARK    3  A    between atoms: C_2  and  C_4
REMARK    4  A    between atoms: C_2  and  C_5
REMARK    5  A    between atoms: C_5  and  C_6
REMARK    6  A    between atoms: C_6  and  C_7
REMARK    7  A    between atoms: C_6  and  C_8
REMARK    8  A    between atoms: C_6  and  N_9
REMARK    9  A    between atoms: C_10  and  C_12
REMARK   10  A    between atoms: C_12  and  C_14
REMARK   11  A    between atoms: C_12  and  N_19
REMARK   12  A    between atoms: N_19  and  C_20
REMARK   13  A    between atoms: C_27  and  C_29
REMARK   14  A    between atoms: C_33  and  O_36
REMARK   15  A    between atoms: C_34  and  O_35
REMARK                            x       y       z     vdW  Elec       q    Type
REMARK                         _______ _______ _______ _____ _____    ______ ____
ROOT
ATOM      1  N   UNL     1       6.980   0.009  -1.535  0.00  0.00    -0.248 N 
ATOM      2  C   UNL     1       8.021  -0.685  -2.037  0.00  0.00    +0.256 C 
ATOM      3  O   UNL     1       9.140  -0.212  -2.003  0.00  0.00    -0.269 OA
ENDROOT
BRANCH   1   4
ATOM      4  C   UNL     1       7.170   1.313  -1.067  0.00  0.00    +0.039 A 
ATOM      5  C   UNL     1       6.125   1.992  -0.453  0.00  0.00    +0.023 A 
ATOM      6  C   UNL     1       6.316   3.279   0.008  0.00  0.00    +0.003 A 
ATOM      7  C   UNL     1       7.545   3.894  -0.141  0.00  0.00    +0.020 A 
ATOM      8  C   UNL     1       8.589   3.222  -0.752  0.00  0.00    +0.043 A 
ATOM      9  C   UNL     1       8.406   1.931  -1.210  0.00  0.00    +0.043 A 
ATOM     10 CL   UNL     1      10.130   3.998  -0.937  0.00  0.00    -0.083 Cl
ENDBRANCH   1   4
BRANCH   2  11
ATOM     11  C   UNL     1       7.801  -2.018  -2.629  0.00  0.00    +0.082 A 
ATOM     12  C   UNL     1       6.589  -2.317  -3.258  0.00  0.00    +0.017 A 
ATOM     13  C   UNL     1       6.387  -3.563  -3.809  0.00  0.00    +0.005 A 
ATOM     14  C   UNL     1       7.381  -4.526  -3.744  0.00  0.00    +0.049 A 
ATOM     15  C   UNL     1       8.586  -4.246  -3.123  0.00  0.00    +0.159 A 
ATOM     16  C   UNL     1       8.807  -2.990  -2.568  0.00  0.00    +0.171 A 
BRANCH  16  17
ATOM     17  O   UNL     1       9.990  -2.709  -1.964  0.00  0.00    -0.503 OA
ATOM     18  H   UNL     1      10.009  -2.916  -1.020  0.00  0.00    +0.292 HD
ENDBRANCH  16  17
BRANCH  15  19
ATOM     19  O   UNL     1       9.557  -5.197  -3.062  0.00  0.00    -0.503 OA
ATOM     20  H   UNL     1      10.166  -5.186  -3.813  0.00  0.00    +0.292 HD
ENDBRANCH  15  19
ENDBRANCH   2  11
BRANCH   1  21
ATOM     21  C   UNL     1       5.650  -0.603  -1.479  0.00  0.00    +0.233 C 
BRANCH  21  22
ATOM     22  C   UNL     1       4.665   0.269  -2.215  0.00  0.00    +0.135 A 
ATOM     23  C   UNL     1       3.671  -0.166  -3.010  0.00  0.00    +0.047 A 
ATOM     24  C   UNL     1       2.999   0.982  -3.489  0.00  0.00    +0.041 A 
ATOM     25  C   UNL     1       3.622   2.049  -2.959  0.00  0.00    +0.195 A 
ATOM     26  O   UNL     1       4.627   1.611  -2.183  0.00  0.00    -0.465 OA
ENDBRANCH  21  22
BRANCH  21  28
ATOM     27  N   UNL     1       4.024  -1.283   0.256  0.00  0.00    -0.308 N 
ATOM     28  C   UNL     1       5.222  -0.742  -0.041  0.00  0.00    +0.242 C 
ATOM     29  O   UNL     1       5.955  -0.367   0.850  0.00  0.00    -0.273 OA
ATOM     30  H   UNL     1       3.437  -1.583  -0.456  0.00  0.00    +0.149 HD
BRANCH  27  31
ATOM     31  C   UNL     1       3.607  -1.419   1.654  0.00  0.00    +0.030 C 
ATOM     32  C   UNL     1       3.699  -0.058   2.347  0.00  0.00    +0.031 C 
ATOM     33  C   UNL     1       4.523  -2.417   2.365  0.00  0.00    +0.031 C 
BRANCH  31  34
ATOM     34  C   UNL     1       2.163  -1.923   1.709  0.00  0.00    +0.031 C 
BRANCH  34  36
ATOM     35  C   UNL     1       1.658  -1.267  -0.648  0.00  0.00    +0.010 C 
ATOM     36  C   UNL     1       1.282  -1.045   0.818  0.00  0.00    -0.036 C 
ATOM     37  C   UNL     1       1.494   0.426   1.181  0.00  0.00    +0.010 C 
ATOM     38  C   UNL     1      -0.187  -1.416   1.030  0.00  0.00    +0.010 C 
ENDBRANCH  34  36
ENDBRANCH  31  34
ENDBRANCH  27  31
ENDBRANCH  21  28
ENDBRANCH   1  21
TORSDOF 10
