REMARK  Name = ZINC04525004
REMARK  5 active torsions:
REMARK  status: ('A' for Active; 'I' for Inactive)
REMARK    1  A    between atoms: C_1  and  C_2
REMARK    2  A    between atoms: C_2  and  O_3
REMARK    3  A    between atoms: O_3  and  C_4
REMARK    4  A    between atoms: C_17  and  C_20
REMARK    5  A    between atoms: C_23  and  O_26
REMARK                            x       y       z     vdW  Elec       q    Type
REMARK                         _______ _______ _______ _____ _____    ______ ____
ROOT
ATOM      1  C   UNL     1      -1.497  -1.836   0.006  0.00  0.00    +0.403 C 
ATOM      2  O   UNL     1      -0.523  -2.563  -0.007  0.00  0.00    -0.226 OA
ATOM      3  N   UNL     1      -2.735  -2.368   0.015  0.00  0.00    -0.262 N 
ATOM      4  C   UNL     1      -2.939  -3.824   0.016  0.00  0.00    +0.116 C 
ATOM      5  C   UNL     1      -3.619  -4.246   1.320  0.00  0.00    +0.056 C 
ATOM      6  C   UNL     1      -4.804  -3.328   1.586  0.00  0.00    -0.020 A 
ATOM      7  C   UNL     1      -4.906  -2.118   0.993  0.00  0.00    +0.013 A 
ATOM      8  S   UNL     1      -6.421  -1.435   1.605  0.00  0.00    -0.076 S 
ATOM      9  C   UNL     1      -6.906  -2.680   2.589  0.00  0.00    +0.080 A 
ATOM     10  C   UNL     1      -5.905  -3.655   2.477  0.00  0.00    +0.068 A 
ATOM     11  C   UNL     1      -6.062  -4.897   3.269  0.00  0.00    +0.248 C 
ATOM     12  O   UNL     1      -5.158  -5.707   3.365  0.00  0.00    -0.270 OA
ATOM     13  N   UNL     1      -7.249  -5.093   3.881  0.00  0.00    -0.289 N 
ATOM     14  C   UNL     1      -8.413  -4.238   3.672  0.00  0.00    +0.190 C 
ATOM     15  N   UNL     1      -8.015  -2.849   3.382  0.00  0.00    -0.316 N 
ATOM     16  C   UNL     1      -3.937  -1.510   0.032  0.00  0.00    +0.153 C 
ATOM     17  H   UNL     1      -7.333  -5.842   4.492  0.00  0.00    +0.151 HD
ATOM     18  H   UNL     1      -8.510  -2.093   3.734  0.00  0.00    +0.149 HD
ENDROOT
BRANCH  14  19
ATOM     19  C   UNL     1      -9.215  -4.772   2.513  0.00  0.00    -0.009 A 
ATOM     20  C   UNL     1      -9.945  -3.905   1.721  0.00  0.00    +0.010 A 
ATOM     21  C   UNL     1     -10.681  -4.392   0.658  0.00  0.00    +0.046 A 
ATOM     22  C   UNL     1     -10.687  -5.752   0.386  0.00  0.00    +0.117 A 
ATOM     23  C   UNL     1      -9.954  -6.620   1.181  0.00  0.00    +0.046 A 
ATOM     24  C   UNL     1      -9.215  -6.128   2.240  0.00  0.00    +0.010 A 
BRANCH  22  25
ATOM     25  O   UNL     1     -11.411  -6.234  -0.659  0.00  0.00    -0.507 OA
ATOM     26  H   UNL     1     -10.922  -6.270  -1.492  0.00  0.00    +0.292 HD
ENDBRANCH  22  25
ENDBRANCH  14  19
BRANCH   1  27
ATOM     27  O   UNL     1      -1.339  -0.499   0.012  0.00  0.00    -0.451 OA
BRANCH  27  29
ATOM     28  C   UNL     1      -0.019   1.526   0.010  0.00  0.00    +0.048 C 
ATOM     29  C   UNL     1       0.002  -0.004   0.002  0.00  0.00    +0.230 C 
ENDBRANCH  27  29
ENDBRANCH   1  27
TORSDOF 4
