REMARK  Name = ZINC36818983
REMARK  8 active torsions:
REMARK  status: ('A' for Active; 'I' for Inactive)
REMARK    1  A    between atoms: C_1  and  C_2
REMARK    2  A    between atoms: C_2  and  C_3
REMARK    3  A    between atoms: C_6  and  C_15
REMARK    4  A    between atoms: C_13  and  O_14
REMARK    5  A    between atoms: C_15  and  S_16
REMARK    6  A    between atoms: S_16  and  C_17
REMARK    7  A    between atoms: C_20  and  C_23
REMARK    8  A    between atoms: N_21  and  C_22
REMARK                            x       y       z     vdW  Elec       q    Type
REMARK                         _______ _______ _______ _____ _____    ______ ____
ROOT
ATOM      1  S   UNL     1       5.284  -0.070  -0.557  0.00  0.00    -0.081 S 
ENDROOT
BRANCH   1   2
ATOM      2  C   UNL     1       6.167  -0.217   0.960  0.00  0.00    +0.192 A 
ATOM      3  N   UNL     1       6.421  -1.329   1.611  0.00  0.00    -0.122 NA
ATOM      4  N   UNL     1       7.086  -1.067   2.679  0.00  0.00    -0.130 NA
ATOM      5  C   UNL     1       7.294   0.216   2.774  0.00  0.00    +0.178 A 
ATOM      6  N   UNL     1       6.721   0.803   1.679  0.00  0.00    -0.306 N 
ATOM      7  C   UNL     1       6.703   2.230   1.349  0.00  0.00    +0.153 C 
BRANCH   5   8
ATOM      8  C   UNL     1       8.034   0.921   3.881  0.00  0.00    +0.278 C 
ATOM      9  C   UNL     1       9.542   0.682   3.729  0.00  0.00    +0.281 C 
ATOM     10  O   UNL     1      10.212   1.353   4.803  0.00  0.00    -0.484 OA
ATOM     11  C   UNL     1       9.693   1.183   6.049  0.00  0.00    +0.162 A 
ATOM     12  C   UNL     1      10.470   1.486   7.157  0.00  0.00    +0.049 A 
ATOM     13  C   UNL     1       9.955   1.321   8.429  0.00  0.00    +0.004 A 
ATOM     14  C   UNL     1       8.666   0.854   8.601  0.00  0.00    +0.004 A 
ATOM     15  C   UNL     1       7.887   0.548   7.501  0.00  0.00    +0.049 A 
ATOM     16  C   UNL     1       8.398   0.710   6.221  0.00  0.00    +0.163 A 
ATOM     17  O   UNL     1       7.621   0.397   5.148  0.00  0.00    -0.474 OA
ENDBRANCH   5   8
ENDBRANCH   1   2
BRANCH   1  18
ATOM     18  C   UNL     1       4.828  -1.777  -0.967  0.00  0.00    +0.113 C 
BRANCH  18  22
ATOM     19  C   UNL     1       0.707  -0.490  -1.238  0.00  0.00    -0.005 A 
ATOM     20  C   UNL     1       2.008  -0.898  -1.162  0.00  0.00    +0.019 A 
ATOM     21  C   UNL     1       2.663  -1.349  -2.313  0.00  0.00    +0.022 A 
ATOM     22  C   UNL     1       4.057  -1.794  -2.262  0.00  0.00    -0.020 A 
ATOM     23  C   UNL     1       4.637  -2.221  -3.414  0.00  0.00    +0.097 A 
ATOM     24  C   UNL     1       3.895  -2.227  -4.613  0.00  0.00    +0.338 A 
ATOM     25  O   UNL     1       4.428  -2.613  -5.638  0.00  0.00    -0.245 OA
ATOM     26  O   UNL     1       2.617  -1.819  -4.653  0.00  0.00    -0.422 OA
ATOM     27  C   UNL     1       1.982  -1.382  -3.545  0.00  0.00    +0.143 A 
ATOM     28  C   UNL     1       0.661  -0.963  -3.604  0.00  0.00    +0.092 A 
ATOM     29  C   UNL     1       0.026  -0.525  -2.453  0.00  0.00    +0.124 A 
BRANCH  19  31
ATOM     30  C   UNL     1      -0.019   1.526   0.010  0.00  0.00    +0.009 C 
ATOM     31  C   UNL     1       0.002  -0.004   0.002  0.00  0.00    +0.035 C 
ENDBRANCH  19  31
BRANCH  29  32
ATOM     32  O   UNL     1      -1.268  -0.121  -2.510  0.00  0.00    -0.506 OA
ATOM     33  H   UNL     1      -1.379   0.820  -2.700  0.00  0.00    +0.292 HD
ENDBRANCH  29  32
ENDBRANCH  18  22
ENDBRANCH   1  18
TORSDOF 6
