REMARK  Name = ZINC10001541
REMARK  14 active torsions:
REMARK  status: ('A' for Active; 'I' for Inactive)
REMARK    1  A    between atoms: C_1  and  C_2
REMARK    2  A    between atoms: C_2  and  C_3
REMARK    3  A    between atoms: C_2  and  C_4
REMARK    4  A    between atoms: C_4  and  C_6
REMARK    5  A    between atoms: C_4  and  N_30
REMARK    6  A    between atoms: N_8  and  N_9
REMARK    7  A    between atoms: C_10  and  C_11
REMARK    8  A    between atoms: C_13  and  O_28
REMARK    9  A    between atoms: C_14  and  O_20
REMARK   10  A    between atoms: C_16  and  N_17
REMARK   11  A    between atoms: O_20  and  C_21
REMARK   12  A    between atoms: C_21  and  C_22
REMARK   13  A    between atoms: O_28  and  C_29
REMARK   14  A    between atoms: C_31  and  C_33
REMARK                            x       y       z     vdW  Elec       q    Type
REMARK                         _______ _______ _______ _____ _____    ______ ____
ROOT
ATOM      1  N   UNL     1       4.921   1.931  -2.747  0.00  0.00    -0.188 NA
ATOM      2  C   UNL     1       6.023   1.451  -3.237  0.00  0.00    +0.140 C 
ENDROOT
BRANCH   2   3
ATOM      3  C   UNL     1       6.633   2.073  -4.426  0.00  0.00    +0.028 A 
ATOM      4  C   UNL     1       6.130   3.279  -4.922  0.00  0.00    +0.061 A 
ATOM      5  C   UNL     1       6.709   3.860  -6.035  0.00  0.00    +0.162 A 
ATOM      6  C   UNL     1       7.785   3.238  -6.665  0.00  0.00    +0.165 A 
ATOM      7  C   UNL     1       8.281   2.039  -6.177  0.00  0.00    +0.082 A 
ATOM      8  C   UNL     1       7.712   1.456  -5.064  0.00  0.00    +0.138 A 
BRANCH   8   9
ATOM      9  N   UNL     1       8.244   0.176  -4.545  0.00  0.00    +0.057 N 
ATOM     10  O   UNL     1       9.254  -0.305  -5.028  0.00  0.00    -0.126 OA
ATOM     11  O   UNL     1       7.673  -0.397  -3.634  0.00  0.00    -0.126 OA
ENDBRANCH   8   9
BRANCH   5  12
ATOM     12  O   UNL     1       6.225   5.036  -6.517  0.00  0.00    -0.491 OA
ATOM     13  C   UNL     1       5.121   5.617  -5.822  0.00  0.00    +0.277 C 
ENDBRANCH   5  12
BRANCH   6  14
ATOM     14  O   UNL     1       8.350   3.809  -7.762  0.00  0.00    -0.484 OA
BRANCH  14  15
ATOM     15  C   UNL     1       9.449   3.118  -8.360  0.00  0.00    +0.264 C 
BRANCH  15  16
ATOM     16  C   UNL     1       9.941   3.894  -9.554  0.00  0.00    -0.010 A 
ATOM     17  C   UNL     1       9.411   3.646 -10.806  0.00  0.00    +0.007 A 
ATOM     18  C   UNL     1       9.859   4.361 -11.901  0.00  0.00    +0.000 A 
ATOM     19  C   UNL     1      10.844   5.318 -11.745  0.00  0.00    +0.000 A 
ATOM     20  C   UNL     1      11.378   5.563 -10.493  0.00  0.00    +0.000 A 
ATOM     21  C   UNL     1      10.927   4.851  -9.398  0.00  0.00    +0.007 A 
ENDBRANCH  15  16
ENDBRANCH  14  15
ENDBRANCH   6  14
ENDBRANCH   2   3
BRANCH   1  24
ATOM     22  C   UNL     1       3.197   1.839  -1.109  0.00  0.00    +0.253 C 
ATOM     23  O   UNL     1       2.718   2.852  -1.572  0.00  0.00    -0.272 OA
ATOM     24  N   UNL     1       4.341   1.340  -1.617  0.00  0.00    -0.205 N 
ATOM     25  H   UNL     1       4.763   0.573  -1.201  0.00  0.00    +0.177 HD
BRANCH  22  26
ATOM     26  C   UNL     1       2.513   1.137   0.036  0.00  0.00    +0.163 C 
BRANCH  26  27
ATOM     27  N   UNL     1       1.161   1.676   0.201  0.00  0.00    -0.300 N 
ATOM     28  C   UNL     1       0.201   0.924   0.775  0.00  0.00    +0.247 C 
ATOM     29  O   UNL     1       0.457  -0.202   1.156  0.00  0.00    -0.270 OA
ATOM     30  H   UNL     1       0.956   2.574  -0.103  0.00  0.00    +0.150 HD
BRANCH  28  31
ATOM     31  C   UNL     1      -1.164   1.464   0.936  0.00  0.00    +0.072 A 
ATOM     32  C   UNL     1      -1.461   2.759   0.505  0.00  0.00    +0.016 A 
ATOM     33  C   UNL     1      -2.738   3.256   0.654  0.00  0.00    +0.001 A 
ATOM     34  C   UNL     1      -3.725   2.480   1.238  0.00  0.00    +0.003 A 
ATOM     35  C   UNL     1      -3.439   1.200   1.673  0.00  0.00    +0.039 A 
ATOM     36  C   UNL     1      -2.164   0.685   1.526  0.00  0.00    +0.135 A 
ATOM     37  F   UNL     1      -1.885  -0.567   1.951  0.00  0.00    -0.205 F 
ENDBRANCH  28  31
ENDBRANCH  26  27
BRANCH  26  39
ATOM     38  C   UNL     1       3.264   2.843   1.700  0.00  0.00    +0.009 C 
ATOM     39  C   UNL     1       3.311   1.361   1.322  0.00  0.00    +0.012 C 
ATOM     40  C   UNL     1       2.704   0.526   2.451  0.00  0.00    +0.009 C 
ENDBRANCH  26  39
ENDBRANCH  22  26
ENDBRANCH   1  24
TORSDOF 11
