REMARK  Name = ZINC37031327
REMARK  3 active torsions:
REMARK  status: ('A' for Active; 'I' for Inactive)
REMARK    1  A    between atoms: C_6  and  N_7
REMARK    2  A    between atoms: C_8  and  C_10
REMARK    3  A    between atoms: C_10  and  N_16
REMARK                            x       y       z     vdW  Elec       q    Type
REMARK                         _______ _______ _______ _____ _____    ______ ____
ROOT
ATOM      1  N   UNL     1      -1.204  -0.718   0.013  0.00  0.00    -0.287 N 
ATOM      2  C   UNL     1      -2.375  -0.061   0.131  0.00  0.00    +0.206 C 
ATOM      3  O   UNL     1      -2.392   1.151   0.138  0.00  0.00    -0.277 OA
ATOM      4  H   UNL     1      -1.196  -1.685  -0.068  0.00  0.00    +0.155 HD
ENDROOT
BRANCH   1  10
ATOM      5  C   UNL     1       0.122   1.157   0.757  0.00  0.00    +0.024 A 
ATOM      6  C   UNL     1       1.313   1.860   0.752  0.00  0.00    +0.018 A 
ATOM      7  C   UNL     1       2.381   1.405  -0.002  0.00  0.00    +0.030 A 
ATOM      8  C   UNL     1       2.270   0.241  -0.764  0.00  0.00    +0.049 A 
ATOM      9  C   UNL     1       1.071  -0.461  -0.752  0.00  0.00    +0.047 A 
ATOM     10  C   UNL     1       0.002  -0.004   0.005  0.00  0.00    +0.035 A 
ATOM     11  N   UNL     1       3.328  -0.228  -1.538  0.00  0.00    -0.284 N 
ATOM     12  C   UNL     1       4.616   0.062  -1.369  0.00  0.00    +0.227 C 
ATOM     13  O   UNL     1       5.420  -0.439  -2.126  0.00  0.00    -0.275 OA
ATOM     14  C   UNL     1       5.129   0.976  -0.290  0.00  0.00    +0.170 C 
ATOM     15  S   UNL     1       3.906   2.294  -0.010  0.00  0.00    -0.114 S 
ATOM     16  H   UNL     1       3.106  -0.823  -2.271  0.00  0.00    +0.155 HD
ENDBRANCH   1  10
BRANCH   2  17
ATOM     17  C   UNL     1      -3.663  -0.834   0.255  0.00  0.00    +0.007 C 
ATOM     18  C   UNL     1      -4.111  -1.304  -1.130  0.00  0.00    -0.004 C 
ATOM     19  C   UNL     1      -4.330  -0.090  -2.035  0.00  0.00    -0.001 C 
ATOM     20  C   UNL     1      -5.408   0.810  -1.428  0.00  0.00    -0.000 C 
ATOM     21  C   UNL     1      -4.960   1.280  -0.043  0.00  0.00    -0.001 C 
ATOM     22  C   UNL     1      -4.741   0.066   0.862  0.00  0.00    -0.004 C 
BRANCH  17  23
ATOM     23  N   UNL     1      -3.452  -2.000   1.124  0.00  0.00    +0.388 N 
ATOM     24  H   UNL     1      -3.157  -1.689   2.038  0.00  0.00    -0.089 HD
ATOM     25  H   UNL     1      -4.315  -2.517   1.207  0.00  0.00    -0.089 HD
ATOM     26  H   UNL     1      -2.741  -2.593   0.724  0.00  0.00    -0.089 HD
ENDBRANCH  17  23
ENDBRANCH   2  17
TORSDOF 3
