REMARK  Name = ZINC52841574
REMARK  4 active torsions:
REMARK  status: ('A' for Active; 'I' for Inactive)
REMARK    1  A    between atoms: C_1  and  C_2
REMARK    2  A    between atoms: N_5  and  C_7
REMARK    3  A    between atoms: C_10  and  N_14
REMARK    4  A    between atoms: C_12  and  N_13
REMARK                            x       y       z     vdW  Elec       q    Type
REMARK                         _______ _______ _______ _____ _____    ______ ____
ROOT
ATOM      1  C   UNL     1       0.023  -3.231   1.474  0.00  0.00    +0.086 A 
ATOM      2  C   UNL     1       0.125  -3.106   2.851  0.00  0.00    +0.032 A 
ATOM      3  C   UNL     1       0.172  -4.236   3.646  0.00  0.00    +0.035 A 
ATOM      4  C   UNL     1       0.118  -5.493   3.072  0.00  0.00    +0.128 A 
ATOM      5  C   UNL     1       0.016  -5.627   1.701  0.00  0.00    +0.057 A 
ATOM      6  C   UNL     1      -0.038  -4.498   0.895  0.00  0.00    +0.052 A 
ENDROOT
BRANCH   1  11
ATOM      7  C   UNL     1       1.068   1.202  -0.478  0.00  0.00    +0.047 C 
ATOM      8  C   UNL     1       0.424  -0.133  -0.205  0.00  0.00    -0.013 A 
ATOM      9  C   UNL     1      -0.668  -0.674  -0.890  0.00  0.00    +0.138 A 
ATOM     10  N   UNL     1      -0.939  -1.845  -0.370  0.00  0.00    -0.174 NA
ATOM     11  N   UNL     1      -0.026  -2.086   0.665  0.00  0.00    -0.238 N 
ATOM     12  C   UNL     1       0.805  -1.022   0.742  0.00  0.00    +0.118 A 
ENDBRANCH   1  11
BRANCH   6  13
ATOM     13  N   UNL     1      -0.146  -4.632  -0.492  0.00  0.00    -0.356 N 
ATOM     14  H   UNL     1      -0.087  -3.848  -1.060  0.00  0.00    +0.142 HD
ATOM     15  H   UNL     1      -0.282  -5.508  -0.886  0.00  0.00    +0.142 HD
ENDBRANCH   6  13
BRANCH   4  16
ATOM     16  N   UNL     1       0.170  -6.698   3.930  0.00  0.00    +0.056 N 
ATOM     17  O   UNL     1       0.259  -6.582   5.130  0.00  0.00    -0.126 OA
ATOM     18  O   UNL     1       0.122  -7.798   3.430  0.00  0.00    -0.126 OA
ENDBRANCH   4  16
TORSDOF 3
