REMARK  Name = ZINC44649606
REMARK  8 active torsions:
REMARK  status: ('A' for Active; 'I' for Inactive)
REMARK    1  A    between atoms: C_1  and  C_2
REMARK    2  A    between atoms: C_2  and  N_3
REMARK    3  A    between atoms: C_7  and  C_12
REMARK    4  A    between atoms: C_12  and  O_14
REMARK    5  A    between atoms: O_14  and  C_15
REMARK    6  A    between atoms: C_15  and  C_17
REMARK    7  A    between atoms: C_15  and  C_18
REMARK    8  A    between atoms: C_18  and  C_20
REMARK                            x       y       z     vdW  Elec       q    Type
REMARK                         _______ _______ _______ _____ _____    ______ ____
ROOT
ATOM      1  C   UNL     1      -0.759  -1.887   6.426  0.00  0.00    +0.340 C 
ATOM      2  O   UNL     1       0.129  -2.263   7.166  0.00  0.00    -0.245 OA
ENDROOT
BRANCH   1   7
ATOM      3  N   UNL     1       0.711  -0.489   1.189  0.00  0.00    -0.250 N 
ATOM      4  C   UNL     1       0.131  -0.781   2.421  0.00  0.00    +0.068 A 
ATOM      5  C   UNL     1      -1.176  -0.715   2.886  0.00  0.00    +0.027 A 
ATOM      6  C   UNL     1      -1.467  -1.073   4.184  0.00  0.00    +0.017 A 
ATOM      7  C   UNL     1      -0.447  -1.505   5.037  0.00  0.00    +0.061 A 
ATOM      8  C   UNL     1       0.871  -1.573   4.571  0.00  0.00    +0.041 A 
ATOM      9  C   UNL     1       1.156  -1.212   3.270  0.00  0.00    +0.066 A 
ATOM     10  N   UNL     1       2.345  -1.174   2.532  0.00  0.00    -0.263 N 
ATOM     11  N   UNL     1       2.050  -0.738   1.273  0.00  0.00    -0.160 NA
ATOM     12  H   UNL     1       3.226  -1.418   2.858  0.00  0.00    +0.168 HD
ATOM     13  H   UNL     1       2.586   0.085   1.042  0.00  0.00    +0.168 HD
BRANCH   3  15
ATOM     14  C   UNL     1      -0.019   1.526   0.010  0.00  0.00    +0.026 C 
ATOM     15  C   UNL     1       0.002  -0.004   0.002  0.00  0.00    +0.122 C 
ENDBRANCH   3  15
ENDBRANCH   1   7
BRANCH   1  16
ATOM     16  O   UNL     1      -2.028  -1.821   6.874  0.00  0.00    -0.450 OA
BRANCH  16  17
ATOM     17  C   UNL     1      -2.258  -2.207   8.230  0.00  0.00    +0.244 C 
ATOM     18  C   UNL     1      -2.561  -3.706   8.290  0.00  0.00    +0.061 C 
BRANCH  17  19
ATOM     19  C   UNL     1      -3.429  -1.435   8.781  0.00  0.00    +0.202 C 
ATOM     20  O   UNL     1      -4.228  -0.922   8.023  0.00  0.00    -0.288 OA
BRANCH  19  21
ATOM     21  C   UNL     1      -3.599  -1.310  10.176  0.00  0.00    +0.027 C 
ATOM     22  C   UNL     1      -4.615  -0.645  10.839  0.00  0.00    +0.006 A 
ATOM     23  C   UNL     1      -5.744   0.080  10.389  0.00  0.00    +0.010 A 
ATOM     24  C   UNL     1      -6.593   0.639  11.280  0.00  0.00    +0.001 A 
ATOM     25  C   UNL     1      -6.406   0.534  12.668  0.00  0.00    +0.002 A 
ATOM     26  C   UNL     1      -5.361  -0.136  13.200  0.00  0.00    +0.026 A 
ATOM     27  C   UNL     1      -4.388  -0.776  12.299  0.00  0.00    +0.043 A 
ATOM     28  N   UNL     1      -3.312  -1.470  12.534  0.00  0.00    -0.380 N 
ATOM     29  C   UNL     1      -2.711  -1.879  11.261  0.00  0.00    +0.152 C 
ATOM     30  H   UNL     1      -2.964  -1.685  13.413  0.00  0.00    +0.160 HD
ENDBRANCH  19  21
ENDBRANCH  17  19
ENDBRANCH  16  17
ENDBRANCH   1  16
TORSDOF 6
