REMARK  Name = ZINC15574443
REMARK  9 active torsions:
REMARK  status: ('A' for Active; 'I' for Inactive)
REMARK    1  A    between atoms: C_1  and  S_2
REMARK    2  A    between atoms: S_2  and  C_3
REMARK    3  A    between atoms: C_3  and  C_4
REMARK    4  A    between atoms: C_4  and  C_5
REMARK    5  A    between atoms: C_5  and  C_7
REMARK    6  A    between atoms: C_5  and  N_19
REMARK    7  A    between atoms: N_9  and  C_10
REMARK    8  A    between atoms: C_14  and  C_16
REMARK    9  A    between atoms: C_20  and  C_22
REMARK                            x       y       z     vdW  Elec       q    Type
REMARK                         _______ _______ _______ _____ _____    ______ ____
ROOT
ATOM      1  C   UNL     1      -0.862   1.590   1.360  0.00  0.00    +0.160 C 
ENDROOT
BRANCH   1   2
ATOM      2  C   UNL     1      -0.215   0.976   2.574  0.00  0.00    +0.238 C 
ATOM      3  O   UNL     1       0.139   1.681   3.495  0.00  0.00    -0.273 OA
ATOM      4  N   UNL     1      -0.031  -0.358   2.638  0.00  0.00    -0.284 N 
ATOM      5  H   UNL     1      -0.383  -0.930   1.938  0.00  0.00    +0.155 HD
BRANCH   4   6
ATOM      6  C   UNL     1       0.667  -0.917   3.714  0.00  0.00    +0.034 A 
ATOM      7  C   UNL     1       0.318  -2.175   4.191  0.00  0.00    +0.023 A 
ATOM      8  C   UNL     1       1.005  -2.733   5.252  0.00  0.00    +0.003 A 
ATOM      9  C   UNL     1       2.043  -2.044   5.846  0.00  0.00    +0.013 A 
ATOM     10  C   UNL     1       2.401  -0.780   5.375  0.00  0.00    +0.038 A 
ATOM     11  C   UNL     1       1.711  -0.220   4.300  0.00  0.00    +0.036 A 
BRANCH  10  12
ATOM     12  C   UNL     1       3.513  -0.040   6.010  0.00  0.00    +0.242 C 
ATOM     13  O   UNL     1       3.824   1.061   5.598  0.00  0.00    -0.270 OA
ATOM     14  N   UNL     1       4.182  -0.585   7.045  0.00  0.00    -0.325 N 
ATOM     15  H   UNL     1       3.934  -1.464   7.373  0.00  0.00    +0.145 HD
ATOM     16  H   UNL     1       4.912  -0.100   7.461  0.00  0.00    +0.145 HD
ENDBRANCH  10  12
ENDBRANCH   4   6
ENDBRANCH   1   2
BRANCH   1  17
ATOM     17  N   UNL     1      -0.948   3.042   1.534  0.00  0.00    -0.300 N 
ATOM     18  C   UNL     1      -1.890   3.746   0.875  0.00  0.00    +0.246 C 
ATOM     19  O   UNL     1      -2.669   3.175   0.137  0.00  0.00    -0.270 OA
ATOM     20  H   UNL     1      -0.326   3.497   2.123  0.00  0.00    +0.150 HD
BRANCH  18  21
ATOM     21  C   UNL     1      -1.976   5.210   1.051  0.00  0.00    +0.055 A 
ATOM     22  C   UNL     1      -1.086   5.868   1.903  0.00  0.00    +0.014 A 
ATOM     23  C   UNL     1      -1.168   7.236   2.057  0.00  0.00    +0.001 A 
ATOM     24  C   UNL     1      -2.137   7.956   1.380  0.00  0.00    +0.001 A 
ATOM     25  C   UNL     1      -3.025   7.312   0.539  0.00  0.00    +0.021 A 
ATOM     26  C   UNL     1      -2.951   5.943   0.369  0.00  0.00    +0.053 A 
ATOM     27 CL   UNL     1      -4.067   5.134  -0.686  0.00  0.00    -0.083 Cl
ENDBRANCH  18  21
ENDBRANCH   1  17
BRANCH   1  28
ATOM     28  C   UNL     1      -0.023   1.274   0.120  0.00  0.00    +0.042 C 
BRANCH  28  29
ATOM     29  C   UNL     1      -0.742   1.789  -1.128  0.00  0.00    +0.071 C 
BRANCH  29  31
ATOM     30  C   UNL     1      -0.725   2.081  -3.972  0.00  0.00    +0.084 C 
ATOM     31  S   UNL     1       0.253   1.414  -2.598  0.00  0.00    -0.164 S 
ENDBRANCH  29  31
ENDBRANCH  28  29
ENDBRANCH   1  28
TORSDOF 8
