REMARK  Name = ZINC13138893
REMARK  8 active torsions:
REMARK  status: ('A' for Active; 'I' for Inactive)
REMARK    1  A    between atoms: C_6  and  S_7
REMARK    2  A    between atoms: S_7  and  N_10
REMARK    3  A    between atoms: C_12  and  O_34
REMARK    4  A    between atoms: C_15  and  C_17
REMARK    5  A    between atoms: C_17  and  O_19
REMARK    6  A    between atoms: O_19  and  C_20
REMARK    7  A    between atoms: C_20  and  C_21
REMARK    8  A    between atoms: C_21  and  C_23
REMARK                            x       y       z     vdW  Elec       q    Type
REMARK                         _______ _______ _______ _____ _____    ______ ____
ROOT
ATOM      1  C   UNL     1       2.881   1.324  -1.836  0.00  0.00    +0.327 C 
ATOM      2  O   UNL     1       2.743   2.466  -2.204  0.00  0.00    -0.249 OA
ENDROOT
BRANCH   1   7
ATOM      3  N   UNL     1       1.401   1.942  -0.001  0.00  0.00    -0.160 NA
ATOM      4  C   UNL     1      -0.019   1.545   0.011  0.00  0.00    +0.141 C 
ATOM      5  C   UNL     1       0.002  -0.004   0.002  0.00  0.00    +0.132 C 
ATOM      6  C   UNL     1       1.211  -0.294  -0.926  0.00  0.00    +0.064 C 
ATOM      7  C   UNL     1       2.191   0.848  -0.584  0.00  0.00    +0.191 C 
BRANCH   3   8
ATOM      8  S   UNL     1       2.005   3.381   0.550  0.00  0.00    +0.062 S 
ATOM      9  O   UNL     1       3.238   3.590  -0.125  0.00  0.00    -0.153 OA
ATOM     10  O   UNL     1       0.938   4.318   0.494  0.00  0.00    -0.153 OA
BRANCH   8  16
ATOM     11  C   UNL     1       1.445   3.434   3.221  0.00  0.00    +0.030 A 
ATOM     12  C   UNL     1       1.749   3.260   4.558  0.00  0.00    +0.022 A 
ATOM     13  C   UNL     1       3.008   2.824   4.930  0.00  0.00    +0.041 A 
ATOM     14  C   UNL     1       3.961   2.558   3.962  0.00  0.00    +0.022 A 
ATOM     15  C   UNL     1       3.654   2.729   2.625  0.00  0.00    +0.030 A 
ATOM     16  C   UNL     1       2.395   3.164   2.255  0.00  0.00    +0.106 A 
ATOM     17 CL   UNL     1       3.393   2.610   6.609  0.00  0.00    -0.084 Cl
ENDBRANCH   8  16
ENDBRANCH   3   8
BRANCH   5  18
ATOM     18  O   UNL     1      -1.206  -0.530  -0.551  0.00  0.00    -0.390 OA
ATOM     19  H   UNL     1      -2.002  -0.290  -0.057  0.00  0.00    +0.210 HD
ENDBRANCH   5  18
ENDBRANCH   1   7
BRANCH   1  20
ATOM     20  O   UNL     1       3.648   0.479  -2.542  0.00  0.00    -0.455 OA
BRANCH  20  21
ATOM     21  C   UNL     1       4.282   1.007  -3.738  0.00  0.00    +0.311 C 
BRANCH  21  22
ATOM     22  C   UNL     1       5.097  -0.077  -4.395  0.00  0.00    +0.200 C 
ATOM     23  O   UNL     1       5.140  -1.185  -3.904  0.00  0.00    -0.288 OA
BRANCH  22  24
ATOM     24  C   UNL     1       5.839   0.208  -5.629  0.00  0.00    +0.023 A 
ATOM     25  C   UNL     1       5.786   1.486  -6.201  0.00  0.00    +0.015 A 
ATOM     26  C   UNL     1       6.487   1.755  -7.356  0.00  0.00    +0.048 A 
ATOM     27  C   UNL     1       7.239   0.758  -7.962  0.00  0.00    +0.142 A 
ATOM     28  C   UNL     1       7.292  -0.521  -7.401  0.00  0.00    +0.076 A 
ATOM     29  C   UNL     1       6.597  -0.798  -6.241  0.00  0.00    +0.038 A 
ATOM     30  N   UNL     1       8.057  -1.514  -8.030  0.00  0.00    -0.280 N 
ATOM     31  C   UNL     1       8.963  -1.148  -8.963  0.00  0.00    +0.255 C 
ATOM     32  O   UNL     1       9.615  -1.992  -9.542  0.00  0.00    -0.272 OA
ATOM     33  C   UNL     1       9.161   0.312  -9.281  0.00  0.00    +0.325 C 
ATOM     34  O   UNL     1       7.928   1.014  -9.104  0.00  0.00    -0.481 OA
ATOM     35  H   UNL     1       7.937  -2.448  -7.800  0.00  0.00    +0.155 HD
ENDBRANCH  22  24
ENDBRANCH  21  22
ENDBRANCH  20  21
ENDBRANCH   1  20
TORSDOF 8
