REMARK  Name = ZINC18325447
REMARK  8 active torsions:
REMARK  status: ('A' for Active; 'I' for Inactive)
REMARK    1  A    between atoms: C_4  and  C_7
REMARK    2  A    between atoms: C_7  and  S_8
REMARK    3  A    between atoms: S_8  and  C_9
REMARK    4  A    between atoms: C_12  and  S_15
REMARK    5  A    between atoms: N_13  and  N_14
REMARK    6  A    between atoms: S_15  and  C_16
REMARK    7  A    between atoms: C_16  and  C_17
REMARK    8  A    between atoms: C_25  and  N_27
REMARK                            x       y       z     vdW  Elec       q    Type
REMARK                         _______ _______ _______ _____ _____    ______ ____
ROOT
ATOM      1  C   UNL     1      -5.272  -2.941  -1.983  0.00  0.00    +0.209 A 
ATOM      2  N   UNL     1      -5.150  -2.886  -0.679  0.00  0.00    -0.120 NA
ATOM      3  N   UNL     1      -3.951  -2.224  -0.384  0.00  0.00    -0.120 NA
ATOM      4  C   UNL     1      -3.385  -1.887  -1.517  0.00  0.00    +0.209 A 
ATOM      5  N   UNL     1      -4.184  -2.325  -2.535  0.00  0.00    -0.219 N 
ENDROOT
BRANCH   5   6
ATOM      6  N   UNL     1      -3.939  -2.173  -3.870  0.00  0.00    -0.294 N 
ATOM      7  H   UNL     1      -3.413  -2.954  -4.233  0.00  0.00    +0.163 HD
ATOM      8  H   UNL     1      -4.798  -2.046  -4.384  0.00  0.00    +0.163 HD
ENDBRANCH   5   6
BRANCH   1   9
ATOM      9  S   UNL     1      -6.605  -3.679  -2.869  0.00  0.00    -0.080 S 
BRANCH   9  10
ATOM     10  C   UNL     1      -7.701  -4.308  -1.567  0.00  0.00    +0.112 C 
BRANCH  10  14
ATOM     11  C   UNL     1     -11.094  -6.193  -3.352  0.00  0.00    +0.000 A 
ATOM     12  C   UNL     1      -9.959  -6.932  -3.074  0.00  0.00    +0.000 A 
ATOM     13  C   UNL     1      -8.861  -6.322  -2.497  0.00  0.00    +0.004 A 
ATOM     14  C   UNL     1      -8.898  -4.973  -2.197  0.00  0.00    -0.037 A 
ATOM     15  C   UNL     1     -10.035  -4.235  -2.470  0.00  0.00    +0.004 A 
ATOM     16  C   UNL     1     -11.131  -4.844  -3.052  0.00  0.00    +0.000 A 
ENDBRANCH  10  14
ENDBRANCH   9  10
ENDBRANCH   1   9
BRANCH   4  17
ATOM     17  S   UNL     1      -1.857  -1.028  -1.695  0.00  0.00    -0.077 S 
BRANCH  17  18
ATOM     18  C   UNL     1      -1.312  -0.741   0.011  0.00  0.00    +0.153 C 
BRANCH  18  19
ATOM     19  C   UNL     1       0.002  -0.004   0.002  0.00  0.00    +0.142 A 
ATOM     20  N   UNL     1       1.112  -0.703  -0.012  0.00  0.00    -0.231 NA
ATOM     21  C   UNL     1       2.304  -0.087  -0.021  0.00  0.00    +0.076 A 
ATOM     22  C   UNL     1       3.509  -0.802  -0.037  0.00  0.00    +0.028 A 
ATOM     23  C   UNL     1       4.692  -0.125  -0.045  0.00  0.00    +0.002 A 
ATOM     24  C   UNL     1       4.723   1.266  -0.039  0.00  0.00    +0.001 A 
ATOM     25  C   UNL     1       3.569   1.993  -0.023  0.00  0.00    +0.013 A 
ATOM     26  C   UNL     1       2.337   1.329  -0.013  0.00  0.00    +0.040 A 
ATOM     27  C   UNL     1       1.106   2.027   0.002  0.00  0.00    +0.127 A 
ATOM     28  N   UNL     1      -0.016   1.319   0.009  0.00  0.00    -0.216 NA
BRANCH  27  29
ATOM     29  N   UNL     1       1.073   3.405   0.010  0.00  0.00    -0.343 N 
ATOM     30  H   UNL     1       0.222   3.870   0.020  0.00  0.00    +0.144 HD
ATOM     31  H   UNL     1       1.901   3.910   0.004  0.00  0.00    +0.144 HD
ENDBRANCH  27  29
ENDBRANCH  18  19
ENDBRANCH  17  18
ENDBRANCH   4  17
TORSDOF 8
