REMARK  Name = ZINC59166223
REMARK  11 active torsions:
REMARK  status: ('A' for Active; 'I' for Inactive)
REMARK    1  A    between atoms: C_1  and  C_2
REMARK    2  A    between atoms: C_2  and  O_3
REMARK    3  A    between atoms: O_3  and  C_4
REMARK    4  A    between atoms: N_6  and  N_7
REMARK    5  A    between atoms: C_8  and  C_9
REMARK    6  A    between atoms: C_11  and  C_18
REMARK    7  A    between atoms: C_12  and  O_16
REMARK    8  A    between atoms: C_14  and  C_15
REMARK    9  A    between atoms: O_16  and  C_17
REMARK   10  A    between atoms: C_18  and  C_19
REMARK   11  A    between atoms: C_18  and  C_20
REMARK                            x       y       z     vdW  Elec       q    Type
REMARK                         _______ _______ _______ _____ _____    ______ ____
ROOT
ATOM      1  C   UNL     1      -6.231  -1.117  -0.194  0.00  0.00    -0.002 A 
ATOM      2  C   UNL     1      -7.514  -1.664  -0.283  0.00  0.00    +0.017 A 
ATOM      3  C   UNL     1      -8.615  -0.878  -0.020  0.00  0.00    -0.003 A 
ATOM      4  C   UNL     1      -8.451   0.455   0.332  0.00  0.00    +0.124 A 
ATOM      5  C   UNL     1      -7.178   1.003   0.422  0.00  0.00    +0.050 A 
ATOM      6  C   UNL     1      -6.071   0.223   0.167  0.00  0.00    -0.038 A 
ATOM      7  C   UNL     1      -4.690   0.817   0.270  0.00  0.00    +0.044 C 
ENDROOT
BRANCH   3   8
ATOM      8  C   UNL     1      -9.999  -1.467  -0.116  0.00  0.00    +0.016 C 
ATOM      9  C   UNL     1     -10.239  -1.977  -1.539  0.00  0.00    +0.012 C 
ATOM     10  C   UNL     1     -10.129  -2.629   0.871  0.00  0.00    +0.012 C 
ENDBRANCH   3   8
BRANCH   1  12
ATOM     11  N   UNL     1      -3.867  -1.420  -0.496  0.00  0.00    -0.185 NA
ATOM     12  C   UNL     1      -5.050  -1.953  -0.474  0.00  0.00    +0.138 C 
BRANCH  11  15
ATOM     13  C   UNL     1      -1.516  -1.660  -0.785  0.00  0.00    +0.420 C 
ATOM     14  O   UNL     1      -0.542  -2.349  -1.015  0.00  0.00    -0.225 OA
ATOM     15  N   UNL     1      -2.744  -2.215  -0.762  0.00  0.00    -0.172 N 
ATOM     16  H   UNL     1      -2.851  -3.164  -0.929  0.00  0.00    +0.181 HD
BRANCH  13  17
ATOM     17  O   UNL     1      -1.368  -0.342  -0.552  0.00  0.00    -0.450 OA
BRANCH  17  19
ATOM     18  C   UNL     1      -0.069   1.681  -0.305  0.00  0.00    +0.048 C 
ATOM     19  C   UNL     1      -0.038   0.179  -0.592  0.00  0.00    +0.230 C 
ENDBRANCH  17  19
ENDBRANCH  13  17
ENDBRANCH  11  15
ENDBRANCH   1  12
BRANCH   4  20
ATOM     20  O   UNL     1      -9.540   1.226   0.590  0.00  0.00    -0.495 OA
ATOM     21  C   UNL     1      -9.300   2.589   0.947  0.00  0.00    +0.277 C 
ENDBRANCH   4  20
TORSDOF 6
