REMARK  Name = ZINC41027068
REMARK  5 active torsions:
REMARK  status: ('A' for Active; 'I' for Inactive)
REMARK    1  A    between atoms: C_4  and  C_10
REMARK    2  A    between atoms: C_6  and  N_7
REMARK    3  A    between atoms: C_10  and  S_11
REMARK    4  A    between atoms: S_11  and  C_12
REMARK    5  A    between atoms: C_18  and  N_20
REMARK                            x       y       z     vdW  Elec       q    Type
REMARK                         _______ _______ _______ _____ _____    ______ ____
ROOT
ATOM      1  S   UNL     1       4.255  -1.014   1.666  0.00  0.00    -0.083 S 
ENDROOT
BRANCH   1   2
ATOM      2  C   UNL     1       5.784  -1.871   1.478  0.00  0.00    +0.171 A 
ATOM      3  N   UNL     1       6.471  -2.261   2.587  0.00  0.00    -0.302 N 
ATOM      4  H   UNL     1       6.116  -2.067   3.469  0.00  0.00    +0.171 HD
ATOM      5  C   UNL     1       7.643  -2.918   2.462  0.00  0.00    +0.254 A 
ATOM      6  O   UNL     1       8.264  -3.272   3.452  0.00  0.00    -0.268 OA
ATOM      7  C   UNL     1       8.133  -3.186   1.181  0.00  0.00    +0.113 A 
ATOM      8  C   UNL     1       7.395  -2.767   0.082  0.00  0.00    +0.124 A 
ATOM      9  N   UNL     1       6.237  -2.124   0.267  0.00  0.00    -0.209 NA
BRANCH   8  10
ATOM     10  N   UNL     1       7.853  -3.017  -1.196  0.00  0.00    -0.343 N 
ATOM     11  H   UNL     1       8.691  -3.486  -1.328  0.00  0.00    +0.144 HD
ATOM     12  H   UNL     1       7.336  -2.723  -1.962  0.00  0.00    +0.144 HD
ENDBRANCH   8  10
ENDBRANCH   1   2
BRANCH   1  13
ATOM     13  C   UNL     1       3.711  -0.710  -0.038  0.00  0.00    +0.114 C 
BRANCH  13  17
ATOM     14  C   UNL     1      -0.017   1.378   0.010  0.00  0.00    +0.034 A 
ATOM     15  C   UNL     1       1.171   2.086   0.002  0.00  0.00    +0.022 A 
ATOM     16  C   UNL     1       2.378   1.410  -0.013  0.00  0.00    +0.045 A 
ATOM     17  C   UNL     1       2.396   0.027  -0.021  0.00  0.00    -0.017 A 
ATOM     18  C   UNL     1       1.208  -0.680  -0.013  0.00  0.00    +0.038 A 
ATOM     19  C   UNL     1       0.002  -0.004   0.002  0.00  0.00    +0.127 A 
ATOM     20 CL   UNL     1       3.870   2.298  -0.023  0.00  0.00    -0.083 Cl
BRANCH  19  21
ATOM     21  N   UNL     1      -1.270  -0.761   0.011  0.00  0.00    +0.056 N 
ATOM     22  O   UNL     1      -2.325  -0.171   0.024  0.00  0.00    -0.126 OA
ATOM     23  O   UNL     1      -1.254  -1.970   0.004  0.00  0.00    -0.126 OA
ENDBRANCH  19  21
ENDBRANCH  13  17
ENDBRANCH   1  13
TORSDOF 5
