REMARK  Name = ZINC03977851
REMARK  8 active torsions:
REMARK  status: ('A' for Active; 'I' for Inactive)
REMARK    1  A    between atoms: C_1  and  C_2
REMARK    2  A    between atoms: C_16  and  O_36
REMARK    3  A    between atoms: C_19  and  C_35
REMARK    4  A    between atoms: C_25  and  C_31
REMARK    5  A    between atoms: C_27  and  C_29
REMARK    6  A    between atoms: C_27  and  C_30
REMARK    7  A    between atoms: C_31  and  C_33
REMARK    8  A    between atoms: C_33  and  O_34
REMARK                            x       y       z     vdW  Elec       q    Type
REMARK                         _______ _______ _______ _____ _____    ______ ____
ROOT
ATOM      1  C   UNL     1      -0.418   1.299  -0.221  0.00  0.00    +0.016 C 
ATOM      2  C   UNL     1      -0.260  -0.232  -0.267  0.00  0.00    -0.002 C 
ATOM      3  C   UNL     1      -1.655  -0.775  -0.486  0.00  0.00    +0.019 C 
ATOM      4  C   UNL     1      -2.416  -1.022   0.813  0.00  0.00    +0.080 C 
ATOM      5  C   UNL     1      -1.558  -1.854   1.740  0.00  0.00    +0.156 C 
ATOM      6  O   UNL     1      -1.994  -2.838   2.303  0.00  0.00    -0.293 OA
ATOM      7  C   UNL     1      -0.170  -1.417   1.925  0.00  0.00    +0.049 C 
ATOM      8  C   UNL     1       0.406  -0.643   1.013  0.00  0.00    -0.027 C 
ATOM      9  C   UNL     1       1.808  -0.127   1.275  0.00  0.00    +0.193 C 
ATOM     10  C   UNL     1       2.694  -0.381   0.054  0.00  0.00    +0.045 C 
ATOM     11  C   UNL     1       2.030   0.128  -1.222  0.00  0.00    +0.002 C 
ATOM     12  C   UNL     1       0.681  -0.580  -1.419  0.00  0.00    +0.031 C 
ATOM     13  C   UNL     1       1.008  -2.075  -1.466  0.00  0.00    +0.119 C 
ATOM     14  C   UNL     1       1.727  -2.337  -2.791  0.00  0.00    +0.042 C 
ATOM     15  C   UNL     1       2.977  -1.512  -2.973  0.00  0.00    +0.012 C 
ATOM     16  C   UNL     1       2.928  -0.087  -2.436  0.00  0.00    +0.004 C 
ATOM     17  C   UNL     1       4.381   0.261  -2.047  0.00  0.00    +0.039 C 
ATOM     18  C   UNL     1       5.170  -1.048  -1.965  0.00  0.00    +0.162 C 
ATOM     19  C   UNL     1       4.252  -2.190  -2.461  0.00  0.00    +0.164 C 
ATOM     20  O   UNL     1       3.993  -2.978  -1.286  0.00  0.00    -0.332 OA
ATOM     21  C   UNL     1       5.082  -2.726  -0.388  0.00  0.00    +0.166 C 
ATOM     22  O   UNL     1       5.488  -1.368  -0.601  0.00  0.00    -0.343 OA
ATOM     23  C   UNL     1       4.646  -2.930   1.061  0.00  0.00    +0.074 C 
ATOM     24  C   UNL     1       6.252  -3.666  -0.684  0.00  0.00    +0.074 C 
ATOM     25  C   UNL     1       3.158  -1.384  -4.514  0.00  0.00    +0.015 C 
ATOM     26  F   UNL     1       2.348  -0.785   2.388  0.00  0.00    -0.241 F 
ENDROOT
BRANCH  19  27
ATOM     27  C   UNL     1       4.901  -3.012  -3.566  0.00  0.00    +0.193 C 
ATOM     28  O   UNL     1       5.753  -2.518  -4.264  0.00  0.00    -0.292 OA
BRANCH  27  29
ATOM     29  C   UNL     1       4.480  -4.442  -3.788  0.00  0.00    +0.233 C 
BRANCH  29  30
ATOM     30  O   UNL     1       5.143  -4.959  -4.943  0.00  0.00    -0.387 OA
ATOM     31  H   UNL     1       4.918  -5.878  -5.146  0.00  0.00    +0.210 HD
ENDBRANCH  29  30
ENDBRANCH  27  29
ENDBRANCH  19  27
BRANCH  13  32
ATOM     32  O   UNL     1      -0.158  -2.894  -1.419  0.00  0.00    -0.391 OA
ATOM     33  H   UNL     1       0.026  -3.843  -1.448  0.00  0.00    +0.210 HD
ENDBRANCH  13  32
TORSDOF 4
