REMARK  Name = ZINC63373687
REMARK  2 active torsions:
REMARK  status: ('A' for Active; 'I' for Inactive)
REMARK    1  A    between atoms: C_8  and  C_16
REMARK    2  A    between atoms: N_20  and  C_23
REMARK                            x       y       z     vdW  Elec       q    Type
REMARK                         _______ _______ _______ _____ _____    ______ ____
ROOT
ATOM      1  C   UNL     1       5.153  -3.159   0.824  0.00  0.00    +0.100 A 
ATOM      2  C   UNL     1       6.046  -2.676   1.734  0.00  0.00    +0.263 A 
ATOM      3  N   UNL     1       7.387  -2.906   1.552  0.00  0.00    -0.274 N 
ATOM      4  C   UNL     1       7.820  -3.602   0.485  0.00  0.00    +0.332 A 
ATOM      5  N   UNL     1       6.955  -4.086  -0.424  0.00  0.00    -0.257 N 
ATOM      6  C   UNL     1       5.630  -3.889  -0.280  0.00  0.00    +0.265 A 
ATOM      7  O   UNL     1       4.849  -4.334  -1.104  0.00  0.00    -0.267 OA
ATOM      8  O   UNL     1       9.012  -3.796   0.341  0.00  0.00    -0.246 OA
ATOM      9  O   UNL     1       5.615  -1.977   2.805  0.00  0.00    -0.267 OA
ATOM     10  H   UNL     1       8.026  -2.565   2.197  0.00  0.00    +0.173 HD
ENDROOT
BRANCH   1  17
ATOM     11  C   UNL     1      -0.016   1.347   0.009  0.00  0.00    +0.001 A 
ATOM     12  C   UNL     1       1.165   2.101   0.002  0.00  0.00    +0.002 A 
ATOM     13  C   UNL     1       2.390   1.534  -0.017  0.00  0.00    +0.026 A 
ATOM     14  C   UNL     1       2.529   0.120  -0.031  0.00  0.00    +0.043 A 
ATOM     15  N   UNL     1       3.593  -0.653  -0.026  0.00  0.00    -0.376 N 
ATOM     16  C   UNL     1       3.155  -2.041  -0.140  0.00  0.00    +0.128 C 
ATOM     17  C   UNL     1       3.676  -2.919   1.001  0.00  0.00    +0.121 C 
ATOM     18  N   UNL     1       2.957  -4.202   0.964  0.00  0.00    -0.307 NA
ATOM     19  C   UNL     1       1.532  -4.075   1.282  0.00  0.00    +0.086 C 
ATOM     20  C   UNL     1       0.819  -3.248   0.195  0.00  0.00    +0.048 C 
ATOM     21  C   UNL     1       1.640  -1.996  -0.015  0.00  0.00    -0.035 C 
ATOM     22  C   UNL     1       1.294  -0.703  -0.014  0.00  0.00    -0.001 A 
ATOM     23  C   UNL     1       0.002  -0.004   0.002  0.00  0.00    +0.010 A 
ATOM     24  H   UNL     1       3.089  -4.665   0.077  0.00  0.00    +0.123 HD
ATOM     25  H   UNL     1       4.512  -0.352   0.043  0.00  0.00    +0.160 HD
ENDBRANCH   1  17
BRANCH   5  26
ATOM     26  C   UNL     1       7.456  -4.840  -1.576  0.00  0.00    +0.095 C 
ATOM     27  C   UNL     1       8.214  -6.076  -1.087  0.00  0.00    +0.025 C 
ATOM     28  C   UNL     1       8.738  -6.862  -2.290  0.00  0.00    +0.002 C 
ATOM     29  C   UNL     1       9.681  -5.977  -3.107  0.00  0.00    +0.000 C 
ATOM     30  C   UNL     1       8.923  -4.741  -3.596  0.00  0.00    +0.002 C 
ATOM     31  C   UNL     1       8.399  -3.954  -2.393  0.00  0.00    +0.025 C 
ENDBRANCH   5  26
TORSDOF 2
