REMARK  Name = ZINC01065219
REMARK  5 active torsions:
REMARK  status: ('A' for Active; 'I' for Inactive)
REMARK    1  A    between atoms: C_1  and  O_2
REMARK    2  A    between atoms: O_2  and  C_3
REMARK    3  A    between atoms: C_6  and  C_18
REMARK    4  A    between atoms: C_8  and  N_9
REMARK    5  A    between atoms: C_10  and  C_12
REMARK                            x       y       z     vdW  Elec       q    Type
REMARK                         _______ _______ _______ _____ _____    ______ ____
ROOT
ATOM      1  C   UNL     1      -1.208  -0.642   0.023  0.00  0.00    +0.141 A 
ATOM      2  C   UNL     1      -2.382   0.095   0.043  0.00  0.00    +0.048 A 
ATOM      3  C   UNL     1      -3.603  -0.548   0.058  0.00  0.00    +0.012 A 
ATOM      4  C   UNL     1      -3.659  -1.942   0.053  0.00  0.00    -0.009 A 
ATOM      5  C   UNL     1      -2.479  -2.685   0.034  0.00  0.00    +0.035 A 
ATOM      6  C   UNL     1      -1.256  -2.035   0.013  0.00  0.00    +0.076 A 
ENDROOT
BRANCH   4   7
ATOM      7  C   UNL     1      -4.970  -2.632   0.070  0.00  0.00    +0.067 A 
ATOM      8  C   UNL     1      -5.847  -2.527  -0.983  0.00  0.00    +0.027 A 
ATOM      9  C   UNL     1      -7.119  -3.245  -0.875  0.00  0.00    +0.018 A 
ATOM     10  C   UNL     1      -7.947  -3.413  -1.991  0.00  0.00    +0.011 A 
ATOM     11  C   UNL     1      -9.128  -4.089  -1.863  0.00  0.00    +0.001 A 
ATOM     12  C   UNL     1      -9.512  -4.611  -0.636  0.00  0.00    +0.004 A 
ATOM     13  C   UNL     1      -8.712  -4.456   0.477  0.00  0.00    +0.047 A 
ATOM     14  C   UNL     1      -7.509  -3.772   0.371  0.00  0.00    +0.139 A 
ATOM     15  O   UNL     1      -6.710  -3.603   1.451  0.00  0.00    -0.422 OA
ATOM     16  C   UNL     1      -5.383  -3.464   1.214  0.00  0.00    +0.345 A 
ATOM     17  O   UNL     1      -4.557  -4.005   1.925  0.00  0.00    -0.245 OA
ENDBRANCH   4   7
BRANCH   6  18
ATOM     18  N   UNL     1      -0.069  -2.777  -0.012  0.00  0.00    -0.276 N 
ATOM     19  C   UNL     1      -0.068  -4.031  -0.507  0.00  0.00    +0.284 C 
ATOM     20  O   UNL     1      -1.074  -4.481  -1.024  0.00  0.00    -0.266 OA
ATOM     21  H   UNL     1       0.753  -2.389   0.327  0.00  0.00    +0.155 HD
BRANCH  19  22
ATOM     22  C   UNL     1       1.143  -4.851  -0.424  0.00  0.00    +0.191 A 
ATOM     23  C   UNL     1       1.282  -6.128  -0.889  0.00  0.00    +0.056 A 
ATOM     24  C   UNL     1       2.596  -6.523  -0.600  0.00  0.00    +0.058 A 
ATOM     25  C   UNL     1       3.197  -5.482   0.022  0.00  0.00    +0.171 A 
ATOM     26  O   UNL     1       2.320  -4.474   0.120  0.00  0.00    -0.444 OA
ATOM     27 BR   UNL     1       4.984  -5.451   0.641  0.00  0.00    -0.008 Br
ENDBRANCH  19  22
ENDBRANCH   6  18
BRANCH   1  29
ATOM     28  C   UNL     1      -0.031   1.425   0.020  0.00  0.00    +0.277 C 
ATOM     29  O   UNL     1      -0.007  -0.004   0.008  0.00  0.00    -0.493 OA
ENDBRANCH   1  29
TORSDOF 4
