REMARK  Name = ZINC53266200
REMARK  5 active torsions:
REMARK  status: ('A' for Active; 'I' for Inactive)
REMARK    1  A    between atoms: C_1  and  N_2
REMARK    2  A    between atoms: C_11  and  C_13
REMARK    3  A    between atoms: N_15  and  C_16
REMARK    4  A    between atoms: C_16  and  C_18
REMARK    5  A    between atoms: C_16  and  C_24
REMARK                            x       y       z     vdW  Elec       q    Type
REMARK                         _______ _______ _______ _____ _____    ______ ____
ROOT
ATOM      1  C   UNL     1       0.062  -3.002   4.780  0.00  0.00    +0.245 C 
ATOM      2  O   UNL     1      -0.445  -4.107   4.809  0.00  0.00    -0.270 OA
ATOM      3  N   UNL     1       0.640  -2.498   5.888  0.00  0.00    -0.296 N 
ATOM      4  H   UNL     1       1.045  -1.616   5.865  0.00  0.00    +0.150 HD
ENDROOT
BRANCH   1  15
ATOM      5  C   UNL     1      -0.018   1.461   0.010  0.00  0.00    +0.130 C 
ATOM      6  N   UNL     1       0.002  -0.004   0.002  0.00  0.00    -0.323 N 
ATOM      7  C   UNL     1       0.006  -0.755  -1.262  0.00  0.00    +0.200 C 
ATOM      8  C   UNL     1      -0.935  -1.926  -1.142  0.00  0.00    +0.235 C 
ATOM      9  O   UNL     1      -1.492  -2.352  -2.132  0.00  0.00    -0.274 OA
ATOM     10  N   UNL     1      -1.166  -2.504   0.052  0.00  0.00    -0.283 N 
ATOM     11  C   UNL     1      -0.572  -1.999   1.216  0.00  0.00    +0.055 A 
ATOM     12  C   UNL     1       0.023  -0.730   1.194  0.00  0.00    +0.051 A 
ATOM     13  C   UNL     1       0.616  -0.209   2.334  0.00  0.00    +0.026 A 
ATOM     14  C   UNL     1       0.629  -0.946   3.500  0.00  0.00    +0.015 A 
ATOM     15  C   UNL     1       0.046  -2.215   3.533  0.00  0.00    +0.039 A 
ATOM     16  C   UNL     1      -0.565  -2.740   2.380  0.00  0.00    +0.038 A 
ATOM     17  H   UNL     1      -1.749  -3.277   0.106  0.00  0.00    +0.155 HD
ENDBRANCH   1  15
BRANCH   3  18
ATOM     18  C   UNL     1       0.657  -3.280   7.127  0.00  0.00    +0.189 C 
BRANCH  18  19
ATOM     19  C   UNL     1       0.768  -2.349   8.307  0.00  0.00    -0.018 A 
ATOM     20  C   UNL     1       1.595  -1.243   8.239  0.00  0.00    +0.006 A 
ATOM     21  C   UNL     1       1.697  -0.390   9.322  0.00  0.00    +0.000 A 
ATOM     22  C   UNL     1       0.972  -0.641  10.472  0.00  0.00    +0.000 A 
ATOM     23  C   UNL     1       0.144  -1.747  10.538  0.00  0.00    +0.000 A 
ATOM     24  C   UNL     1       0.039  -2.598   9.454  0.00  0.00    +0.006 A 
ENDBRANCH  18  19
BRANCH  18  25
ATOM     25  C   UNL     1       1.837  -4.217   7.113  0.00  0.00    +0.235 C 
ATOM     26  O   UNL     1       2.590  -4.230   6.162  0.00  0.00    -0.274 OA
ATOM     27  N   UNL     1       2.056  -5.040   8.158  0.00  0.00    -0.328 N 
ATOM     28  H   UNL     1       1.454  -5.029   8.918  0.00  0.00    +0.145 HD
ATOM     29  H   UNL     1       2.816  -5.643   8.149  0.00  0.00    +0.145 HD
ENDBRANCH  18  25
ENDBRANCH   3  18
TORSDOF 4
