REMARK  Name = ZINC65408107
REMARK  8 active torsions:
REMARK  status: ('A' for Active; 'I' for Inactive)
REMARK    1  A    between atoms: C_1  and  C_2
REMARK    2  A    between atoms: C_2  and  C_3
REMARK    3  A    between atoms: C_2  and  C_4
REMARK    4  A    between atoms: C_4  and  C_5
REMARK    5  A    between atoms: C_7  and  C_11
REMARK    6  A    between atoms: N_13  and  C_14
REMARK    7  A    between atoms: N_13  and  C_15
REMARK    8  A    between atoms: C_15  and  C_16
REMARK                            x       y       z     vdW  Elec       q    Type
REMARK                         _______ _______ _______ _____ _____    ______ ____
ROOT
ATOM      1  C   UNL     1      -0.066  -4.884   0.521  0.00  0.00    +0.240 C 
ATOM      2  O   UNL     1       0.694  -4.920  -0.423  0.00  0.00    -0.273 OA
ATOM      3  N   UNL     1       0.314  -5.386   1.712  0.00  0.00    -0.300 N 
ATOM      4  C   UNL     1      -0.605  -5.342   2.852  0.00  0.00    +0.132 C 
ENDROOT
BRANCH   1   7
ATOM      5  C   UNL     1      -1.416  -2.035  -0.119  0.00  0.00    +0.124 C 
ATOM      6  C   UNL     1      -1.465  -2.861   0.904  0.00  0.00    +0.047 C 
ATOM      7  C   UNL     1      -1.437  -4.277   0.361  0.00  0.00    +0.204 C 
ATOM      8  N   UNL     1      -1.767  -4.082  -1.075  0.00  0.00    -0.140 NA
ATOM      9  O   UNL     1      -1.354  -2.687  -1.305  0.00  0.00    -0.410 OA
ATOM     10  H   UNL     1      -1.242  -4.718  -1.656  0.00  0.00    +0.168 HD
BRANCH   5  11
ATOM     11  C   UNL     1      -1.433  -0.534   0.013  0.00  0.00    +0.079 C 
BRANCH  11  13
ATOM     12  C   UNL     1      -0.019   1.526   0.010  0.00  0.00    +0.007 C 
ATOM     13  C   UNL     1       0.002  -0.004   0.002  0.00  0.00    -0.010 C 
ATOM     14  C   UNL     1       0.742  -0.511   1.242  0.00  0.00    +0.007 C 
ENDBRANCH  11  13
ENDBRANCH   5  11
ENDBRANCH   1   7
BRANCH   3  15
ATOM     15  C   UNL     1       1.646  -5.975   1.867  0.00  0.00    +0.140 C 
BRANCH  15  16
ATOM     16  C   UNL     1       2.637  -4.891   2.296  0.00  0.00    +0.173 C 
ATOM     17  C   UNL     1       4.054  -5.426   2.287  0.00  0.00    -0.019 C 
ATOM     18  C   UNL     1       4.693  -4.679   1.389  0.00  0.00    +0.065 C 
ATOM     19  C   UNL     1       6.141  -5.123   1.285  0.00  0.00    +0.057 C 
ATOM     20  C   UNL     1       6.396  -5.961   2.558  0.00  0.00    +0.011 C 
ATOM     21  C   UNL     1       4.972  -6.452   2.900  0.00  0.00    +0.035 C 
ATOM     22  N   UNL     1       3.839  -3.762   0.857  0.00  0.00    -0.158 NA
ATOM     23  N   UNL     1       2.687  -3.807   1.301  0.00  0.00    -0.178 NA
ENDBRANCH  15  16
ENDBRANCH   3  15
TORSDOF 5
