REMARK  Name = ZINC15017293
REMARK  8 active torsions:
REMARK  status: ('A' for Active; 'I' for Inactive)
REMARK    1  A    between atoms: C_1  and  O_2
REMARK    2  A    between atoms: O_2  and  C_3
REMARK    3  A    between atoms: C_6  and  C_12
REMARK    4  A    between atoms: C_8  and  N_9
REMARK    5  A    between atoms: C_14  and  C_32
REMARK    6  A    between atoms: C_16  and  C_25
REMARK    7  A    between atoms: C_16  and  O_31
REMARK    8  A    between atoms: C_20  and  C_22
REMARK                            x       y       z     vdW  Elec       q    Type
REMARK                         _______ _______ _______ _____ _____    ______ ____
ROOT
ATOM      1  C   UNL     1      -2.238   1.590  -1.100  0.00  0.00    +0.061 C 
ATOM      2  C   UNL     1      -0.749   1.927  -1.236  0.00  0.00    +0.155 C 
ATOM      3  C   UNL     1      -0.017   1.425   0.010  0.00  0.00    +0.175 C 
ATOM      4  N   UNL     1      -0.692   1.891   1.215  0.00  0.00    -0.282 N 
ATOM      5  C   UNL     1      -1.948   2.324   1.254  0.00  0.00    +0.228 C 
ATOM      6  O   UNL     1      -2.413   2.649   2.326  0.00  0.00    -0.275 OA
ATOM      7  C   UNL     1      -2.823   2.430   0.038  0.00  0.00    +0.169 C 
ATOM      8  H   UNL     1      -0.192   1.886   2.046  0.00  0.00    +0.152 HD
ENDROOT
BRANCH   1  12
ATOM      9  C   UNL     1      -4.260   2.507  -4.752  0.00  0.00    +0.150 A 
ATOM     10  C   UNL     1      -3.600   3.507  -4.053  0.00  0.00    +0.048 A 
ATOM     11  C   UNL     1      -2.947   3.208  -2.873  0.00  0.00    +0.008 A 
ATOM     12  C   UNL     1      -2.951   1.913  -2.388  0.00  0.00    -0.039 A 
ATOM     13  C   UNL     1      -3.603   0.913  -3.086  0.00  0.00    +0.040 A 
ATOM     14  C   UNL     1      -4.262   1.208  -4.263  0.00  0.00    +0.168 A 
BRANCH  14  15
ATOM     15  N   UNL     1      -4.965   0.139  -5.007  0.00  0.00    +0.060 N 
ATOM     16  O   UNL     1      -4.967  -1.001  -4.577  0.00  0.00    -0.126 OA
ATOM     17  O   UNL     1      -5.542   0.398  -6.048  0.00  0.00    -0.126 OA
ENDBRANCH  14  15
BRANCH   9  19
ATOM     18  C   UNL     1      -4.857   4.156  -6.356  0.00  0.00    +0.277 C 
ATOM     19  O   UNL     1      -4.902   2.798  -5.913  0.00  0.00    -0.493 OA
ENDBRANCH   9  19
ENDBRANCH   1  12
BRANCH   3  20
ATOM     20  C   UNL     1       1.398   1.942  -0.001  0.00  0.00    +0.003 A 
ATOM     21  C   UNL     1       2.378   1.259  -0.696  0.00  0.00    +0.008 A 
ATOM     22  C   UNL     1       3.676   1.736  -0.709  0.00  0.00    +0.000 A 
ATOM     23  C   UNL     1       3.995   2.891  -0.020  0.00  0.00    +0.000 A 
ATOM     24  C   UNL     1       3.015   3.571   0.679  0.00  0.00    +0.000 A 
ATOM     25  C   UNL     1       1.717   3.097   0.689  0.00  0.00    +0.008 A 
ENDBRANCH   3  20
BRANCH   7  26
ATOM     26  C   UNL     1      -4.205   1.930   0.370  0.00  0.00    +0.223 C 
ATOM     27  O   UNL     1      -4.675   0.994  -0.242  0.00  0.00    -0.275 OA
ATOM     28  N   UNL     1      -4.919   2.522   1.348  0.00  0.00    -0.329 N 
ATOM     29  H   UNL     1      -4.543   3.270   1.838  0.00  0.00    +0.145 HD
ATOM     30  H   UNL     1      -5.809   2.200   1.562  0.00  0.00    +0.145 HD
ENDBRANCH   7  26
BRANCH   3  31
ATOM     31  O   UNL     1       0.002  -0.004   0.002  0.00  0.00    -0.366 OA
ATOM     32  H   UNL     1       0.456  -0.395   0.761  0.00  0.00    +0.212 HD
ENDBRANCH   3  31
BRANCH   2  33
ATOM     33  C   UNL     1      -0.197   1.270  -2.431  0.00  0.00    +0.071 C 
ATOM     34  N   UNL     1       0.229   0.762  -3.354  0.00  0.00    -0.196 NA
ENDBRANCH   2  33
TORSDOF 7
