REMARK  Name = ZINC36358070
REMARK  4 active torsions:
REMARK  status: ('A' for Active; 'I' for Inactive)
REMARK    1  A    between atoms: C_1  and  C_2
REMARK    2  A    between atoms: C_8  and  N_9
REMARK    3  A    between atoms: N_9  and  C_10
REMARK    4  A    between atoms: C_24  and  C_27
REMARK                            x       y       z     vdW  Elec       q    Type
REMARK                         _______ _______ _______ _____ _____    ______ ____
ROOT
ATOM      1  C   UNL     1      -0.018   1.503   0.010  0.00  0.00    +0.068 C 
ATOM      2  C   UNL     1       0.002  -0.004   0.002  0.00  0.00    +0.070 C 
ATOM      3  N   UNL     1       0.008  -0.765  -1.049  0.00  0.00    -0.175 NA
ATOM      4  N   UNL     1       0.029  -2.115  -0.698  0.00  0.00    -0.136 N 
ATOM      5  C   UNL     1       0.036  -2.244   0.644  0.00  0.00    +0.275 C 
ATOM      6  O   UNL     1       0.054  -3.285   1.280  0.00  0.00    -0.268 OA
ATOM      7  C   UNL     1       0.025  -0.879   1.184  0.00  0.00    +0.075 C 
ATOM      8  C   UNL     1       0.032  -0.499   2.515  0.00  0.00    +0.087 C 
ATOM      9  C   UNL     1       0.039  -3.177  -1.605  0.00  0.00    +0.170 A 
ATOM     10  C   UNL     1       0.035  -2.911  -2.987  0.00  0.00    +0.051 A 
ATOM     11  C   UNL     1       0.045  -3.937  -3.879  0.00  0.00    +0.053 A 
ATOM     12  C   UNL     1       0.059  -5.261  -3.401  0.00  0.00    +0.178 A 
ATOM     13  N   UNL     1       0.071  -6.447  -3.988  0.00  0.00    -0.128 NA
ATOM     14  N   UNL     1       0.081  -7.366  -3.087  0.00  0.00    -0.123 NA
ATOM     15  C   UNL     1       0.077  -6.828  -1.892  0.00  0.00    +0.258 A 
ATOM     16  N   UNL     1       0.064  -5.487  -2.046  0.00  0.00    -0.187 N 
ATOM     17  N   UNL     1       0.058  -4.410  -1.157  0.00  0.00    -0.146 NA
ENDROOT
BRANCH  15  18
ATOM     18  C   UNL     1       0.087  -7.572  -0.582  0.00  0.00    +0.454 C 
ATOM     19  F   UNL     1       0.443  -8.907  -0.806  0.00  0.00    -0.163 F 
ATOM     20  F   UNL     1       1.014  -6.982   0.283  0.00  0.00    -0.163 F 
ATOM     21  F   UNL     1      -1.187  -7.520  -0.006  0.00  0.00    -0.163 F 
ENDBRANCH  15  18
BRANCH   8  22
ATOM     22  N   UNL     1       0.054  -1.437   3.485  0.00  0.00    -0.319 N 
ATOM     23  H   UNL     1       0.065  -2.377   3.249  0.00  0.00    +0.152 HD
BRANCH  22  24
ATOM     24  C   UNL     1       0.061  -1.052   4.829  0.00  0.00    +0.050 A 
ATOM     25  C   UNL     1       0.039   0.294   5.168  0.00  0.00    +0.026 A 
ATOM     26  C   UNL     1       0.046   0.671   6.497  0.00  0.00    +0.022 A 
ATOM     27  C   UNL     1       0.074  -0.291   7.491  0.00  0.00    +0.042 A 
ATOM     28  C   UNL     1       0.096  -1.634   7.157  0.00  0.00    +0.041 A 
ATOM     29  C   UNL     1       0.084  -2.017   5.830  0.00  0.00    +0.063 A 
ATOM     30 CL   UNL     1       0.103  -3.702   5.411  0.00  0.00    -0.082 Cl
ATOM     31 CL   UNL     1       0.083   0.187   9.160  0.00  0.00    -0.083 Cl
ENDBRANCH  22  24
ENDBRANCH   8  22
TORSDOF 3
