REMARK  Name = ZINC48935195
REMARK  8 active torsions:
REMARK  status: ('A' for Active; 'I' for Inactive)
REMARK    1  A    between atoms: C_1  and  C_2
REMARK    2  A    between atoms: C_2  and  C_4
REMARK    3  A    between atoms: C_2  and  N_13
REMARK    4  A    between atoms: C_7  and  O_11
REMARK    5  A    between atoms: O_11  and  C_12
REMARK    6  A    between atoms: C_14  and  C_16
REMARK    7  A    between atoms: C_16  and  C_18
REMARK    8  A    between atoms: C_16  and  N_19
REMARK                            x       y       z     vdW  Elec       q    Type
REMARK                         _______ _______ _______ _____ _____    ______ ____
ROOT
ATOM      1  N   UNL     1       0.688  -0.476  -1.203  0.00  0.00    -0.307 N 
ATOM      2  C   UNL     1       2.031  -0.587  -1.215  0.00  0.00    +0.234 C 
ATOM      3  O   UNL     1       2.672  -0.295  -0.228  0.00  0.00    -0.274 OA
ATOM      4  H   UNL     1       0.175  -0.710  -1.993  0.00  0.00    +0.149 HD
ENDROOT
BRANCH   1   6
ATOM      5  C   UNL     1      -0.019   1.526   0.010  0.00  0.00    +0.033 C 
ATOM      6  C   UNL     1       0.002  -0.004   0.002  0.00  0.00    +0.100 C 
BRANCH   6   7
ATOM      7  C   UNL     1      -1.412  -0.526   0.013  0.00  0.00    -0.026 A 
ATOM      8  C   UNL     1      -2.141  -0.568  -1.162  0.00  0.00    +0.009 A 
ATOM      9  C   UNL     1      -3.437  -1.046  -1.155  0.00  0.00    +0.047 A 
ATOM     10  C   UNL     1      -4.008  -1.483   0.031  0.00  0.00    +0.134 A 
ATOM     11  C   UNL     1      -3.274  -1.440   1.209  0.00  0.00    +0.060 A 
ATOM     12  C   UNL     1      -1.976  -0.966   1.196  0.00  0.00    +0.024 A 
ATOM     13 BR   UNL     1      -4.049  -2.034   2.829  0.00  0.00    -0.047 Br
BRANCH  10  14
ATOM     14  O   UNL     1      -5.283  -1.952   0.041  0.00  0.00    -0.494 OA
ATOM     15  C   UNL     1      -5.978  -1.967  -1.208  0.00  0.00    +0.277 C 
ENDBRANCH  10  14
ENDBRANCH   6   7
ENDBRANCH   1   6
BRANCH   2  16
ATOM     16  C   UNL     1       2.736  -1.073  -2.455  0.00  0.00    +0.157 C 
ATOM     17  C   UNL     1       2.247  -2.480  -2.801  0.00  0.00    +0.038 C 
BRANCH  16  18
ATOM     18  N   UNL     1       4.181  -1.104  -2.214  0.00  0.00    -0.289 N 
ATOM     19  C   UNL     1       5.039  -1.007  -3.249  0.00  0.00    +0.298 C 
ATOM     20  O   UNL     1       4.614  -0.895  -4.383  0.00  0.00    -0.253 OA
ATOM     21  N   UNL     1       6.368  -1.036  -3.028  0.00  0.00    -0.313 N 
ATOM     22  H   UNL     1       4.520  -1.194  -1.310  0.00  0.00    +0.151 HD
ATOM     23  H   UNL     1       6.707  -1.126  -2.124  0.00  0.00    +0.146 HD
ATOM     24  H   UNL     1       6.985  -0.967  -3.773  0.00  0.00    +0.146 HD
ENDBRANCH  16  18
ENDBRANCH   2  16
TORSDOF 5
