REMARK  Name = ZINC13127032
REMARK  5 active torsions:
REMARK  status: ('A' for Active; 'I' for Inactive)
REMARK    1  A    between atoms: C_1  and  C_2
REMARK    2  A    between atoms: C_3  and  C_17
REMARK    3  A    between atoms: C_4  and  C_12
REMARK    4  A    between atoms: N_19  and  C_20
REMARK    5  A    between atoms: C_20  and  C_21
REMARK                            x       y       z     vdW  Elec       q    Type
REMARK                         _______ _______ _______ _____ _____    ______ ____
ROOT
ATOM      1  C   UNL     1      -0.018   1.503   0.010  0.00  0.00    +0.061 C 
ATOM      2  C   UNL     1       0.002  -0.004   0.002  0.00  0.00    +0.018 C 
ATOM      3  C   UNL     1      -1.163  -0.668   0.004  0.00  0.00    +0.060 C 
ATOM      4  C   UNL     1      -1.253  -2.171   0.008  0.00  0.00    +0.184 C 
ATOM      5  N   UNL     1       0.061  -2.737  -0.281  0.00  0.00    -0.220 N 
ATOM      6  C   UNL     1       1.208  -2.013  -0.279  0.00  0.00    +0.218 A 
ATOM      7  N   UNL     1       2.193  -2.818  -0.568  0.00  0.00    -0.201 NA
ATOM      8  C   UNL     1       1.720  -4.052  -0.765  0.00  0.00    +0.247 A 
ATOM      9  N   UNL     1       0.420  -4.046  -0.600  0.00  0.00    -0.156 NA
ATOM     10  N   UNL     1       1.213  -0.651  -0.013  0.00  0.00    -0.287 N 
ATOM     11  H   UNL     1       2.041  -0.176   0.159  0.00  0.00    +0.155 HD
ENDROOT
BRANCH   4  12
ATOM     12  C   UNL     1      -1.716  -2.642   1.363  0.00  0.00    +0.019 A 
ATOM     13  C   UNL     1      -2.818  -3.362   1.685  0.00  0.00    +0.013 A 
ATOM     14  C   UNL     1      -3.044  -3.686   3.010  0.00  0.00    +0.008 A 
ATOM     15  C   UNL     1      -2.156  -3.273   3.948  0.00  0.00    +0.045 A 
ATOM     16  S   UNL     1      -0.951  -2.405   2.958  0.00  0.00    -0.099 S 
ENDBRANCH   4  12
BRANCH   3  17
ATOM     17  C   UNL     1      -2.365   0.080   0.003  0.00  0.00    +0.244 C 
ATOM     18  O   UNL     1      -2.325   1.297  -0.001  0.00  0.00    -0.270 OA
ATOM     19  N   UNL     1      -3.553  -0.556   0.005  0.00  0.00    -0.307 N 
ATOM     20  H   UNL     1      -3.585  -1.525   0.007  0.00  0.00    +0.149 HD
BRANCH  19  21
ATOM     21  C   UNL     1      -4.797   0.218   0.003  0.00  0.00    +0.139 C 
BRANCH  21  22
ATOM     22  C   UNL     1      -5.974  -0.723   0.006  0.00  0.00    -0.030 A 
ATOM     23  C   UNL     1      -6.511  -1.163  -1.190  0.00  0.00    +0.005 A 
ATOM     24  C   UNL     1      -7.590  -2.026  -1.187  0.00  0.00    +0.000 A 
ATOM     25  C   UNL     1      -8.133  -2.451   0.011  0.00  0.00    +0.000 A 
ATOM     26  C   UNL     1      -7.596  -2.012   1.207  0.00  0.00    +0.000 A 
ATOM     27  C   UNL     1      -6.513  -1.152   1.204  0.00  0.00    +0.005 A 
ENDBRANCH  21  22
ENDBRANCH  19  21
ENDBRANCH   3  17
TORSDOF 4
