REMARK  Name = ZINC03022616
REMARK  9 active torsions:
REMARK  status: ('A' for Active; 'I' for Inactive)
REMARK    1  A    between atoms: C_1  and  O_2
REMARK    2  A    between atoms: O_2  and  C_3
REMARK    3  A    between atoms: C_5  and  C_10
REMARK    4  A    between atoms: C_8  and  O_9
REMARK    5  A    between atoms: C_12  and  C_36
REMARK    6  A    between atoms: C_18  and  C_22
REMARK    7  A    between atoms: C_28  and  O_35
REMARK    8  A    between atoms: C_30  and  O_34
REMARK    9  A    between atoms: C_36  and  O_37
REMARK                            x       y       z     vdW  Elec       q    Type
REMARK                         _______ _______ _______ _____ _____    ______ ____
ROOT
ATOM      1  C   UNL     1       1.106   5.888  -0.348  0.00  0.00    +0.246 C 
ATOM      2  C   UNL     1       2.288   5.229   0.376  0.00  0.00    +0.244 C 
ATOM      3  O   UNL     1       2.337   3.850  -0.008  0.00  0.00    -0.479 OA
ATOM      4  C   UNL     1       1.160   3.169   0.007  0.00  0.00    +0.163 A 
ATOM      5  C   UNL     1       1.175   1.782   0.000  0.00  0.00    +0.050 A 
ATOM      6  C   UNL     1      -0.013   1.076   0.008  0.00  0.00    +0.011 A 
ATOM      7  C   UNL     1      -1.220   1.750   0.017  0.00  0.00    -0.003 A 
ATOM      8  C   UNL     1      -1.243   3.131   0.031  0.00  0.00    +0.056 A 
ATOM      9  C   UNL     1      -0.054   3.846   0.025  0.00  0.00    +0.163 A 
ATOM     10  O   UNL     1      -0.092   5.206   0.039  0.00  0.00    -0.477 OA
ENDROOT
BRANCH   7  11
ATOM     11  C   UNL     1      -2.513   0.976   0.018  0.00  0.00    +0.211 C 
ATOM     12  C   UNL     1      -2.880   0.592   1.460  0.00  0.00    +0.129 C 
ATOM     13  C   UNL     1      -4.167  -0.210   1.397  0.00  0.00    +0.174 C 
ATOM     14  O   UNL     1      -5.051  -0.063   2.215  0.00  0.00    -0.292 OA
ATOM     15  C   UNL     1      -4.287  -1.173   0.296  0.00  0.00    +0.101 A 
ATOM     16  C   UNL     1      -5.314  -2.131   0.291  0.00  0.00    +0.134 A 
ATOM     17  C   UNL     1      -5.413  -3.017  -0.766  0.00  0.00    +0.091 A 
ATOM     18  C   UNL     1      -4.500  -2.958  -1.812  0.00  0.00    +0.124 A 
ATOM     19  C   UNL     1      -3.480  -2.016  -1.810  0.00  0.00    +0.092 A 
ATOM     20  C   UNL     1      -3.360  -1.121  -0.761  0.00  0.00    +0.139 A 
ATOM     21  O   UNL     1      -2.359  -0.210  -0.761  0.00  0.00    -0.483 OA
BRANCH  18  22
ATOM     22  O   UNL     1      -4.608  -3.829  -2.847  0.00  0.00    -0.507 OA
ATOM     23  H   UNL     1      -4.114  -4.651  -2.722  0.00  0.00    +0.292 HD
ENDBRANCH  18  22
BRANCH  16  24
ATOM     24  O   UNL     1      -6.201  -2.186   1.315  0.00  0.00    -0.506 OA
ATOM     25  H   UNL     1      -5.932  -2.769   2.038  0.00  0.00    +0.292 HD
ENDBRANCH  16  24
ENDBRANCH   7  11
BRANCH   1  28
ATOM     26  C   UNL     1       1.412   9.652  -0.448  0.00  0.00    +0.162 A 
ATOM     27  C   UNL     1       1.499   8.316  -0.805  0.00  0.00    +0.056 A 
ATOM     28  C   UNL     1       1.015   7.340   0.045  0.00  0.00    -0.000 A 
ATOM     29  C   UNL     1       0.452   7.692   1.257  0.00  0.00    +0.011 A 
ATOM     30  C   UNL     1       0.366   9.023   1.623  0.00  0.00    +0.049 A 
ATOM     31  C   UNL     1       0.845  10.007   0.773  0.00  0.00    +0.158 A 
BRANCH  26  33
ATOM     32  C   UNL     1       2.451  10.176  -2.521  0.00  0.00    +0.277 C 
ATOM     33  O   UNL     1       1.883  10.614  -1.285  0.00  0.00    -0.491 OA
ENDBRANCH  26  33
BRANCH  31  34
ATOM     34  O   UNL     1       0.762  11.316   1.131  0.00  0.00    -0.503 OA
ATOM     35  H   UNL     1       1.531  11.640   1.618  0.00  0.00    +0.292 HD
ENDBRANCH  31  34
ENDBRANCH   1  28
BRANCH   2  36
ATOM     36  C   UNL     1       3.591   5.924  -0.026  0.00  0.00    +0.204 C 
BRANCH  36  37
ATOM     37  O   UNL     1       4.673   5.385   0.737  0.00  0.00    -0.391 OA
ATOM     38  H   UNL     1       5.532   5.780   0.534  0.00  0.00    +0.210 HD
ENDBRANCH  36  37
ENDBRANCH   2  36
TORSDOF 8
