REMARK  Name = ZINC16265986
REMARK  5 active torsions:
REMARK  status: ('A' for Active; 'I' for Inactive)
REMARK    1  A    between atoms: C_1  and  C_2
REMARK    2  A    between atoms: C_9  and  N_24
REMARK    3  A    between atoms: C_10  and  C_22
REMARK    4  A    between atoms: C_11  and  C_13
REMARK    5  A    between atoms: C_16  and  O_20
REMARK                            x       y       z     vdW  Elec       q    Type
REMARK                         _______ _______ _______ _____ _____    ______ ____
ROOT
ATOM      1  C   UNL     1       1.741   3.251   0.002  0.00  0.00    +0.068 C 
ATOM      2  C   UNL     1       1.298   1.811  -0.001  0.00  0.00    +0.068 A 
ATOM      3  C   UNL     1      -0.017   1.363   0.009  0.00  0.00    +0.049 A 
ATOM      4  C   UNL     1       0.002  -0.004   0.002  0.00  0.00    +0.222 A 
ATOM      5  N   UNL     1       1.287  -0.392  -0.011  0.00  0.00    -0.246 N 
ATOM      6  H   UNL     1       1.617  -1.336  -0.018  0.00  0.00    +0.192 HD
ATOM      7  N   UNL     1       2.086   0.762  -0.013  0.00  0.00    -0.176 NA
ATOM      8  O   UNL     1      -1.129  -0.752   0.006  0.00  0.00    -0.423 OA
ATOM      9  C   UNL     1      -2.293  -0.124  -0.259  0.00  0.00    +0.200 C 
ATOM     10  C   UNL     1      -2.439   1.219  -0.267  0.00  0.00    +0.098 C 
ATOM     11  C   UNL     1      -1.296   2.159   0.032  0.00  0.00    +0.101 C 
ENDROOT
BRANCH  11  12
ATOM     12  C   UNL     1      -1.483   2.783   1.390  0.00  0.00    -0.032 A 
ATOM     13  C   UNL     1      -1.579   1.980   2.512  0.00  0.00    +0.028 A 
ATOM     14  C   UNL     1      -1.746   2.550   3.760  0.00  0.00    +0.084 A 
ATOM     15  C   UNL     1      -1.828   3.930   3.886  0.00  0.00    +0.153 A 
ATOM     16  C   UNL     1      -1.737   4.734   2.758  0.00  0.00    +0.084 A 
ATOM     17  C   UNL     1      -1.564   4.158   1.512  0.00  0.00    +0.028 A 
ATOM     18 CL   UNL     1      -1.840   6.460   2.910  0.00  0.00    -0.080 Cl
ATOM     19 CL   UNL     1      -1.859   1.541   5.168  0.00  0.00    -0.080 Cl
BRANCH  15  20
ATOM     20  O   UNL     1      -1.998   4.493   5.111  0.00  0.00    -0.504 OA
ATOM     21  H   UNL     1      -2.924   4.613   5.364  0.00  0.00    +0.292 HD
ENDBRANCH  15  20
ENDBRANCH  11  12
BRANCH   9  22
ATOM     22  N   UNL     1      -3.395  -0.895  -0.535  0.00  0.00    -0.328 N 
ATOM     23  H   UNL     1      -3.322  -1.863  -0.537  0.00  0.00    +0.145 HD
ATOM     24  H   UNL     1      -4.246  -0.473  -0.730  0.00  0.00    +0.145 HD
ENDBRANCH   9  22
BRANCH  10  25
ATOM     25  C   UNL     1      -3.726   1.772  -0.567  0.00  0.00    +0.101 C 
ATOM     26  N   UNL     1      -4.747   2.210  -0.804  0.00  0.00    -0.191 NA
ENDBRANCH  10  25
TORSDOF 4
