REMARK  Name = ZINC39730298
REMARK  13 active torsions:
REMARK  status: ('A' for Active; 'I' for Inactive)
REMARK    1  A    between atoms: C_1  and  C_2
REMARK    2  A    between atoms: C_2  and  C_3
REMARK    3  A    between atoms: C_3  and  C_4
REMARK    4  A    between atoms: C_4  and  C_5
REMARK    5  A    between atoms: C_5  and  N_6
REMARK    6  A    between atoms: C_10  and  S_11
REMARK    7  A    between atoms: S_11  and  C_12
REMARK    8  A    between atoms: C_12  and  C_13
REMARK    9  A    between atoms: C_18  and  C_35
REMARK   10  A    between atoms: C_19  and  C_24
REMARK   11  A    between atoms: N_26  and  C_27
REMARK   12  A    between atoms: C_30  and  C_34
REMARK   13  A    between atoms: C_32  and  C_33
REMARK                            x       y       z     vdW  Elec       q    Type
REMARK                         _______ _______ _______ _____ _____    ______ ____
ROOT
ATOM      1  C   UNL     1       6.043  -5.318  -0.224  0.00  0.00    +0.134 C 
ATOM      2  N   UNL     1       6.319  -4.045  -0.374  0.00  0.00    -0.160 NA
ATOM      3  C   UNL     1       7.411  -3.611  -1.012  0.00  0.00    +0.271 C 
ATOM      4  O   UNL     1       7.638  -2.419  -1.133  0.00  0.00    -0.268 OA
ATOM      5  C   UNL     1       8.347  -4.637  -1.573  0.00  0.00    +0.071 C 
ATOM      6  C   UNL     1       9.492  -4.439  -2.243  0.00  0.00    -0.036 C 
ATOM      7  C   UNL     1      10.257  -5.659  -2.704  0.00  0.00    +0.165 C 
ATOM      8  S   UNL     1       9.188  -7.023  -2.090  0.00  0.00    -0.088 S 
ATOM      9  C   UNL     1       7.922  -6.033  -1.337  0.00  0.00    +0.112 C 
ATOM     10  N   UNL     1       6.815  -6.291  -0.682  0.00  0.00    -0.227 NA
ATOM     11  C   UNL     1       9.998  -3.048  -2.528  0.00  0.00    +0.041 C 
ENDROOT
BRANCH   7  12
ATOM     12  C   UNL     1      11.622  -5.713  -2.067  0.00  0.00    +0.235 C 
ATOM     13  O   UNL     1      11.777  -5.319  -0.931  0.00  0.00    -0.274 OA
ATOM     14  N   UNL     1      12.670  -6.199  -2.761  0.00  0.00    -0.284 N 
ATOM     15  H   UNL     1      12.533  -6.587  -3.639  0.00  0.00    +0.155 HD
BRANCH  14  16
ATOM     16  C   UNL     1      13.957  -6.143  -2.214  0.00  0.00    +0.036 A 
ATOM     17  C   UNL     1      14.267  -5.182  -1.260  0.00  0.00    +0.024 A 
ATOM     18  C   UNL     1      15.537  -5.130  -0.722  0.00  0.00    +0.005 A 
ATOM     19  C   UNL     1      16.502  -6.031  -1.134  0.00  0.00    -0.050 A 
ATOM     20  C   UNL     1      16.197  -6.988  -2.084  0.00  0.00    +0.008 A 
ATOM     21  C   UNL     1      14.926  -7.050  -2.621  0.00  0.00    -0.029 A 
ATOM     22  C   UNL     1      14.593  -8.098  -3.651  0.00  0.00    +0.045 C 
ATOM     23  C   UNL     1      17.888  -5.971  -0.545  0.00  0.00    +0.044 C 
ENDBRANCH  14  16
ENDBRANCH   7  12
BRANCH   1  24
ATOM     24  C   UNL     1       4.783  -5.693   0.513  0.00  0.00    +0.150 C 
BRANCH  24  25
ATOM     25  S   UNL     1       3.914  -4.188   1.030  0.00  0.00    -0.081 S 
BRANCH  25  30
ATOM     26  N   UNL     1       1.518  -3.971   2.437  0.00  0.00    -0.292 N 
ATOM     27  C   UNL     1       0.503  -4.866   3.019  0.00  0.00    +0.230 C 
ATOM     28  N   UNL     1       1.008  -6.217   2.720  0.00  0.00    -0.249 N 
ATOM     29  N   UNL     1       2.210  -6.038   2.025  0.00  0.00    -0.163 NA
ATOM     30  C   UNL     1       2.483  -4.787   1.866  0.00  0.00    +0.175 C 
ATOM     31  H   UNL     1       0.591  -7.060   2.956  0.00  0.00    +0.170 HD
BRANCH  26  32
ATOM     32  C   UNL     1       1.506  -2.506   2.451  0.00  0.00    +0.108 C 
BRANCH  32  33
ATOM     33  C   UNL     1       0.773  -1.990   1.212  0.00  0.00    +0.019 C 
BRANCH  33  34
ATOM     34  C   UNL     1       0.762  -0.460   1.227  0.00  0.00    +0.001 C 
BRANCH  34  36
ATOM     35  C   UNL     1       0.017   1.587   0.003  0.00  0.00    +0.004 C 
ATOM     36  C   UNL     1       0.029   0.057  -0.013  0.00  0.00    -0.003 C 
ENDBRANCH  34  36
ENDBRANCH  33  34
ENDBRANCH  32  33
ENDBRANCH  26  32
ENDBRANCH  25  30
ENDBRANCH  24  25
ENDBRANCH   1  24
TORSDOF 9
