REMARK  Name = ZINC50398450
REMARK  4 active torsions:
REMARK  status: ('A' for Active; 'I' for Inactive)
REMARK    1  A    between atoms: C_3  and  N_9
REMARK    2  A    between atoms: C_16  and  C_19
REMARK    3  A    between atoms: C_19  and  C_20
REMARK    4  A    between atoms: C_20  and  C_21
REMARK                            x       y       z     vdW  Elec       q    Type
REMARK                         _______ _______ _______ _____ _____    ______ ____
ROOT
ATOM      1  N   UNL     1       3.500   1.918  -1.292  0.00  0.00    -0.288 N 
ATOM      2  C   UNL     1       4.188   2.169  -2.424  0.00  0.00    +0.303 C 
ATOM      3  O   UNL     1       3.628   2.110  -3.502  0.00  0.00    -0.253 OA
ATOM      4  N   UNL     1       5.496   2.486  -2.361  0.00  0.00    -0.285 N 
ATOM      5  C   UNL     1       6.215   2.449  -1.079  0.00  0.00    +0.109 C 
ATOM      6  C   UNL     1       6.898   3.801  -0.858  0.00  0.00    +0.019 C 
ATOM      7  C   UNL     1       7.782   4.126  -2.064  0.00  0.00    +0.006 C 
ATOM      8  C   UNL     1       6.915   4.223  -3.322  0.00  0.00    +0.007 C 
ATOM      9  C   UNL     1       6.233   2.870  -3.573  0.00  0.00    +0.112 C 
ATOM     10  H   UNL     1       3.961   1.894  -0.439  0.00  0.00    +0.151 HD
ENDROOT
BRANCH   1  13
ATOM     11  C   UNL     1      -0.019   1.528   0.010  0.00  0.00    +0.021 C 
ATOM     12  C   UNL     1       1.427   2.038  -0.001  0.00  0.00    +0.033 C 
ATOM     13  C   UNL     1       2.055   1.682  -1.351  0.00  0.00    +0.160 C 
ATOM     14  C   UNL     1       1.800   0.236  -1.667  0.00  0.00    +0.233 C 
ATOM     15  O   UNL     1       2.484  -0.294  -2.517  0.00  0.00    -0.274 OA
ATOM     16  N   UNL     1       0.862  -0.495  -1.065  0.00  0.00    -0.314 N 
ATOM     17  C   UNL     1       0.001  -0.001   0.003  0.00  0.00    +0.104 C 
ATOM     18  H   UNL     1       0.745  -1.413  -1.355  0.00  0.00    +0.149 HD
ENDBRANCH   1  13
BRANCH   8  19
ATOM     19  C   UNL     1       7.794   4.581  -4.522  0.00  0.00    +0.016 C 
BRANCH  19  20
ATOM     20  C   UNL     1       6.913   4.800  -5.753  0.00  0.00    +0.125 C 
BRANCH  20  21
ATOM     21  C   UNL     1       7.779   5.152  -6.935  0.00  0.00    +0.356 C 
ATOM     22  O   UNL     1       8.989   5.221  -6.804  0.00  0.00    -0.246 OA
ATOM     23  O   UNL     1       7.269   5.368  -8.021  0.00  0.00    -0.246 OA
ENDBRANCH  20  21
ENDBRANCH  19  20
ENDBRANCH   8  19
TORSDOF 4
