REMARK  Name = ZINC03139739
REMARK  5 active torsions:
REMARK  status: ('A' for Active; 'I' for Inactive)
REMARK    1  A    between atoms: C_1  and  C_2
REMARK    2  A    between atoms: C_2  and  C_14
REMARK    3  A    between atoms: N_3  and  N_4
REMARK    4  A    between atoms: C_5  and  C_7
REMARK    5  A    between atoms: C_23  and  O_24
REMARK                            x       y       z     vdW  Elec       q    Type
REMARK                         _______ _______ _______ _____ _____    ______ ____
ROOT
ATOM      1  C   UNL     1      -0.018   1.503   0.010  0.00  0.00    +0.068 C 
ATOM      2  C   UNL     1       0.002  -0.004   0.002  0.00  0.00    +0.067 C 
ATOM      3  N   UNL     1       0.022  -0.659   1.123  0.00  0.00    -0.184 NA
ENDROOT
BRANCH   2   4
ATOM      4  C   UNL     1      -0.000  -0.733  -1.277  0.00  0.00    +0.039 A 
ATOM      5  C   UNL     1      -0.015  -0.019  -2.489  0.00  0.00    +0.014 A 
ATOM      6  C   UNL     1      -0.018  -0.669  -3.681  0.00  0.00    +0.009 A 
ATOM      7  C   UNL     1      -0.005  -2.076  -3.720  0.00  0.00    -0.014 A 
ATOM      8  C   UNL     1      -0.007  -2.766  -4.944  0.00  0.00    +0.008 A 
ATOM      9  C   UNL     1       0.006  -4.127  -4.951  0.00  0.00    +0.001 A 
ATOM     10  C   UNL     1       0.022  -4.851  -3.761  0.00  0.00    +0.001 A 
ATOM     11  C   UNL     1       0.024  -4.217  -2.556  0.00  0.00    +0.012 A 
ATOM     12  C   UNL     1       0.011  -2.812  -2.509  0.00  0.00    +0.024 A 
ATOM     13  C   UNL     1       0.019  -2.126  -1.280  0.00  0.00    +0.133 A 
BRANCH  13  14
ATOM     14  O   UNL     1       0.039  -2.813  -0.111  0.00  0.00    -0.506 OA
ATOM     15  H   UNL     1      -0.839  -3.025   0.236  0.00  0.00    +0.292 HD
ENDBRANCH  13  14
ENDBRANCH   2   4
BRANCH   3  16
ATOM     16  N   UNL     1       0.024   0.035   2.340  0.00  0.00    -0.203 N 
ATOM     17  C   UNL     1       0.044  -0.646   3.504  0.00  0.00    +0.263 C 
ATOM     18  O   UNL     1       0.060  -1.861   3.497  0.00  0.00    -0.268 OA
ATOM     19  H   UNL     1       0.011   1.004   2.346  0.00  0.00    +0.178 HD
BRANCH  17  20
ATOM     20  C   UNL     1       0.046   0.086   4.788  0.00  0.00    +0.039 A 
ATOM     21  C   UNL     1       0.021   1.482   4.799  0.00  0.00    +0.013 A 
ATOM     22  C   UNL     1       0.024   2.160   6.000  0.00  0.00    +0.002 A 
ATOM     23  C   UNL     1       0.051   1.459   7.193  0.00  0.00    +0.014 A 
ATOM     24  C   UNL     1       0.076   0.075   7.190  0.00  0.00    +0.014 A 
ATOM     25  C   UNL     1       0.067  -0.615   5.994  0.00  0.00    +0.027 A 
ATOM     26  I   UNL     1       0.118  -0.974   9.002  0.00  0.00    -0.044 I 
ENDBRANCH  17  20
ENDBRANCH   3  16
TORSDOF 4
