REMARK  Name = ZINC39465241
REMARK  4 active torsions:
REMARK  status: ('A' for Active; 'I' for Inactive)
REMARK    1  A    between atoms: C_1  and  O_2
REMARK    2  A    between atoms: O_2  and  C_3
REMARK    3  A    between atoms: C_8  and  C_9
REMARK    4  A    between atoms: C_14  and  O_15
REMARK                            x       y       z     vdW  Elec       q    Type
REMARK                         _______ _______ _______ _____ _____    ______ ____
ROOT
ATOM      1  C   UNL     1       0.606  -0.607  -1.055  0.00  0.00    +0.128 A 
ATOM      2  C   UNL     1       1.173   0.155  -2.062  0.00  0.00    +0.050 A 
ATOM      3  C   UNL     1       1.790  -0.455  -3.143  0.00  0.00    -0.038 A 
ATOM      4  C   UNL     1       1.844  -1.832  -3.225  0.00  0.00    -0.023 A 
ATOM      5  C   UNL     1       1.280  -2.605  -2.223  0.00  0.00    +0.017 A 
ATOM      6  C   UNL     1       0.663  -2.002  -1.132  0.00  0.00    +0.028 A 
ATOM      7  C   UNL     1       2.502  -2.538  -4.381  0.00  0.00    +0.130 C 
ATOM      8  C   UNL     1       3.327  -3.712  -3.845  0.00  0.00    +0.196 C 
ATOM      9  O   UNL     1       3.856  -4.453  -4.962  0.00  0.00    -0.292 OA
ATOM     10  P   UNL     1       4.628  -3.631  -6.135  0.00  0.00    +0.448 P 
ATOM     11  O   UNL     1       4.603  -4.435  -7.454  0.00  0.00    -0.236 OA
ATOM     12  N   UNL     1       3.790  -2.217  -6.313  0.00  0.00    -0.154 NA
ATOM     13  N   UNL     1       3.352  -1.625  -5.145  0.00  0.00    -0.224 NA
ATOM     14  C   UNL     1       2.630  -0.387  -5.474  0.00  0.00    +0.108 C 
ATOM     15  C   UNL     1       2.394   0.420  -4.211  0.00  0.00    +0.052 C 
ATOM     16  O   UNL     1       6.086  -3.342  -5.714  0.00  0.00    -0.126 OA
ATOM     17  H   UNL     1       3.627  -1.827  -7.186  0.00  0.00    +0.153 HD
ENDROOT
BRANCH   6  18
ATOM     18  C   UNL     1       0.066  -2.833  -0.059  0.00  0.00    +0.027 A 
ATOM     19  C   UNL     1       0.879  -3.633   0.742  0.00  0.00    +0.012 A 
ATOM     20  C   UNL     1       0.318  -4.404   1.739  0.00  0.00    +0.001 A 
ATOM     21  C   UNL     1      -1.050  -4.387   1.947  0.00  0.00    +0.004 A 
ATOM     22  C   UNL     1      -1.866  -3.598   1.159  0.00  0.00    +0.046 A 
ATOM     23  C   UNL     1      -1.315  -2.814   0.157  0.00  0.00    +0.125 A 
BRANCH  23  24
ATOM     24  O   UNL     1      -2.116  -2.033  -0.615  0.00  0.00    -0.506 OA
ATOM     25  H   UNL     1      -2.446  -2.474  -1.410  0.00  0.00    +0.292 HD
ENDBRANCH  23  24
ENDBRANCH   6  18
BRANCH   1  27
ATOM     26  C   UNL     1      -0.017   1.425   0.010  0.00  0.00    +0.277 C 
ATOM     27  O   UNL     1       0.002  -0.004   0.002  0.00  0.00    -0.494 OA
ENDBRANCH   1  27
TORSDOF 3
