REMARK  Name = ZINC64899038
REMARK  6 active torsions:
REMARK  status: ('A' for Active; 'I' for Inactive)
REMARK    1  A    between atoms: C_1  and  O_2
REMARK    2  A    between atoms: O_2  and  C_3
REMARK    3  A    between atoms: C_3  and  C_4
REMARK    4  A    between atoms: C_4  and  N_5
REMARK    5  A    between atoms: N_8  and  N_9
REMARK    6  A    between atoms: C_10  and  C_12
REMARK                            x       y       z     vdW  Elec       q    Type
REMARK                         _______ _______ _______ _____ _____    ______ ____
ROOT
ATOM      1  N   UNL     1       2.645  -3.276  -2.505  0.00  0.00    -0.229 N 
ATOM      2  C   UNL     1       3.534  -3.665  -3.440  0.00  0.00    +0.262 C 
ATOM      3  O   UNL     1       3.785  -4.846  -3.586  0.00  0.00    -0.269 OA
ATOM      4  H   UNL     1       2.445  -2.334  -2.388  0.00  0.00    +0.173 HD
ENDROOT
BRANCH   2   5
ATOM      5  C   UNL     1       4.202  -2.658  -4.286  0.00  0.00    +0.056 A 
ATOM      6  C   UNL     1       5.126  -3.052  -5.267  0.00  0.00    +0.018 A 
ATOM      7  C   UNL     1       5.721  -2.084  -6.029  0.00  0.00    +0.044 A 
ATOM      8  C   UNL     1       5.397  -0.746  -5.811  0.00  0.00    +0.121 A 
ATOM      9  N   UNL     1       4.521  -0.401  -4.878  0.00  0.00    -0.240 NA
ATOM     10  C   UNL     1       3.922  -1.300  -4.126  0.00  0.00    +0.126 A 
ATOM     11  N   UNL     1       5.999   0.236  -6.580  0.00  0.00    -0.315 N 
ATOM     12  C   UNL     1       5.847   1.617  -6.182  0.00  0.00    +0.106 C 
ATOM     13  C   UNL     1       4.576   2.211  -6.838  0.00  0.00    +0.019 C 
ATOM     14  C   UNL     1       4.784   2.392  -8.283  0.00  0.00    +0.002 C 
ATOM     15  C   UNL     1       5.035   1.097  -9.049  0.00  0.00    +0.002 C 
ATOM     16  C   UNL     1       6.501   0.750  -8.977  0.00  0.00    +0.019 C 
ATOM     17  C   UNL     1       6.773  -0.172  -7.769  0.00  0.00    +0.106 C 
ENDBRANCH   2   5
BRANCH   1  21
ATOM     18  N   UNL     1       0.843  -2.535  -0.604  0.00  0.00    -0.296 N 
ATOM     19  C   UNL     1       1.121  -3.844  -0.766  0.00  0.00    +0.316 C 
ATOM     20  O   UNL     1       0.570  -4.673  -0.069  0.00  0.00    -0.251 OA
ATOM     21  N   UNL     1       2.010  -4.232  -1.701  0.00  0.00    -0.218 N 
ATOM     22  H   UNL     1       1.282  -1.873  -1.160  0.00  0.00    +0.150 HD
ATOM     23  H   UNL     1       2.210  -5.174  -1.818  0.00  0.00    +0.174 HD
BRANCH  18  24
ATOM     24  C   UNL     1      -0.124  -2.112   0.413  0.00  0.00    +0.134 C 
BRANCH  24  25
ATOM     25  C   UNL     1      -0.255  -0.588   0.390  0.00  0.00    +0.178 C 
BRANCH  25  27
ATOM     26  C   UNL     1      -0.981   1.236  -0.984  0.00  0.00    +0.194 C 
ATOM     27  O   UNL     1      -0.816  -0.177  -0.859  0.00  0.00    -0.381 OA
ENDBRANCH  25  27
ENDBRANCH  24  25
ENDBRANCH  18  24
ENDBRANCH   1  21
TORSDOF 5
