REMARK  Name = ZINC65190483
REMARK  5 active torsions:
REMARK  status: ('A' for Active; 'I' for Inactive)
REMARK    1  A    between atoms: C_1  and  C_2
REMARK    2  A    between atoms: C_2  and  N_3
REMARK    3  A    between atoms: N_6  and  N_7
REMARK    4  A    between atoms: C_8  and  C_10
REMARK    5  A    between atoms: C_10  and  N_11
REMARK                            x       y       z     vdW  Elec       q    Type
REMARK                         _______ _______ _______ _____ _____    ______ ____
ROOT
ATOM      1  C   UNL     1       3.255  -0.812   5.492  0.00  0.00    +0.215 C 
ENDROOT
BRANCH   1   2
ATOM      2  N   UNL     1       3.910  -1.542   6.580  0.00  0.00    -0.215 N 
ATOM      3  C   UNL     1       3.286  -1.941   7.708  0.00  0.00    +0.247 C 
ATOM      4  O   UNL     1       2.123  -1.770   8.004  0.00  0.00    -0.273 OA
ATOM      5  C   UNL     1       4.344  -2.645   8.527  0.00  0.00    +0.113 C 
ATOM      6  C   UNL     1       3.956  -4.102   8.756  0.00  0.00    +0.035 C 
ATOM      7  C   UNL     1       5.054  -4.804   9.560  0.00  0.00    +0.003 C 
ATOM      8  C   UNL     1       5.238  -4.090  10.900  0.00  0.00    +0.000 C 
ATOM      9  C   UNL     1       5.650  -2.637  10.654  0.00  0.00    +0.003 C 
ATOM     10  C   UNL     1       4.555  -1.927   9.855  0.00  0.00    +0.035 C 
ATOM     11  N   UNL     1       5.553  -2.559   7.697  0.00  0.00    -0.285 N 
ATOM     12  C   UNL     1       5.199  -1.901   6.576  0.00  0.00    +0.310 C 
ATOM     13  O   UNL     1       5.966  -1.658   5.665  0.00  0.00    -0.252 OA
ATOM     14  H   UNL     1       6.431  -2.909   7.913  0.00  0.00    +0.151 HD
ENDBRANCH   1   2
BRANCH   1  16
ATOM     15  N   UNL     1       2.034  -1.348   3.408  0.00  0.00    -0.232 N 
ATOM     16  C   UNL     1       2.686  -1.794   4.500  0.00  0.00    +0.247 C 
ATOM     17  O   UNL     1       2.815  -2.986   4.684  0.00  0.00    -0.273 OA
ATOM     18  H   UNL     1       1.931  -0.394   3.260  0.00  0.00    +0.173 HD
BRANCH  15  22
ATOM     19  N   UNL     1       0.711  -0.489   1.189  0.00  0.00    -0.298 N 
ATOM     20  C   UNL     1       0.854  -1.814   1.394  0.00  0.00    +0.316 C 
ATOM     21  O   UNL     1       0.395  -2.606   0.593  0.00  0.00    -0.251 OA
ATOM     22  N   UNL     1       1.506  -2.260   2.486  0.00  0.00    -0.218 N 
ATOM     23  H   UNL     1       1.077   0.142   1.827  0.00  0.00    +0.150 HD
ATOM     24  H   UNL     1       1.609  -3.213   2.633  0.00  0.00    +0.174 HD
BRANCH  19  26
ATOM     25  C   UNL     1      -0.019   1.526   0.010  0.00  0.00    +0.024 C 
ATOM     26  C   UNL     1       0.002  -0.004   0.002  0.00  0.00    +0.102 C 
ENDBRANCH  19  26
ENDBRANCH  15  22
ENDBRANCH   1  16
TORSDOF 4
