REMARK  Name = ZINC21510266
REMARK  6 active torsions:
REMARK  status: ('A' for Active; 'I' for Inactive)
REMARK    1  A    between atoms: C_1  and  C_2
REMARK    2  A    between atoms: C_2  and  C_4
REMARK    3  A    between atoms: C_2  and  O_16
REMARK    4  A    between atoms: O_16  and  C_17
REMARK    5  A    between atoms: C_17  and  C_19
REMARK    6  A    between atoms: N_23  and  C_24
REMARK                            x       y       z     vdW  Elec       q    Type
REMARK                         _______ _______ _______ _____ _____    ______ ____
ROOT
ATOM      1  O   UNL     1       2.666   0.327  -1.344  0.00  0.00    -0.449 OA
ENDROOT
BRANCH   1   3
ATOM      2  C   UNL     1       3.610   1.800   0.351  0.00  0.00    +0.060 C 
ATOM      3  C   UNL     1       2.449   0.874  -0.017  0.00  0.00    +0.239 C 
BRANCH   3   4
ATOM      4  C   UNL     1       1.160   1.655  -0.000  0.00  0.00    +0.151 A 
ATOM      5  N   UNL     1      -0.011   0.966   0.007  0.00  0.00    -0.307 N 
ATOM      6  H   UNL     1      -0.002  -0.134   0.006  0.00  0.00    +0.170 HD
ATOM      7  C   UNL     1      -1.196   1.620   0.017  0.00  0.00    +0.259 A 
ATOM      8  O   UNL     1      -2.252   1.016   0.018  0.00  0.00    -0.267 OA
ATOM      9  C   UNL     1      -1.157   3.090   0.030  0.00  0.00    +0.065 A 
ATOM     10  C   UNL     1      -2.319   3.858   0.044  0.00  0.00    +0.015 A 
ATOM     11  C   UNL     1      -2.225   5.233   0.051  0.00  0.00    +0.001 A 
ATOM     12  C   UNL     1      -0.983   5.855   0.043  0.00  0.00    +0.002 A 
ATOM     13  C   UNL     1       0.177   5.115   0.028  0.00  0.00    +0.028 A 
ATOM     14  C   UNL     1       0.107   3.720   0.021  0.00  0.00    +0.078 A 
ATOM     15  N   UNL     1       1.225   2.952   0.007  0.00  0.00    -0.230 NA
ENDBRANCH   3   4
ENDBRANCH   1   3
BRANCH   1  16
ATOM     16  C   UNL     1       3.348  -0.834  -1.424  0.00  0.00    +0.358 C 
ATOM     17  O   UNL     1       3.749  -1.374  -0.411  0.00  0.00    -0.243 OA
BRANCH  16  18
ATOM     18  C   UNL     1       3.605  -1.444  -2.731  0.00  0.00    +0.151 A 
ATOM     19  C   UNL     1       4.282  -2.608  -2.974  0.00  0.00    +0.145 A 
ATOM     20  N   UNL     1       4.289  -2.808  -4.292  0.00  0.00    -0.243 NA
ATOM     21  C   UNL     1       3.660  -1.828  -4.891  0.00  0.00    +0.204 A 
ATOM     22  N   UNL     1       3.217  -0.956  -3.966  0.00  0.00    -0.293 N 
BRANCH  22  23
ATOM     23  C   UNL     1       2.499   0.224  -4.208  0.00  0.00    +0.048 A 
ATOM     24  C   UNL     1       1.326   0.479  -3.510  0.00  0.00    +0.029 A 
ATOM     25  C   UNL     1       0.623   1.644  -3.747  0.00  0.00    +0.040 A 
ATOM     26  C   UNL     1       1.080   2.551  -4.687  0.00  0.00    +0.124 A 
ATOM     27  C   UNL     1       2.247   2.296  -5.388  0.00  0.00    +0.040 A 
ATOM     28  C   UNL     1       2.956   1.135  -5.150  0.00  0.00    +0.029 A 
ATOM     29  F   UNL     1       0.388   3.688  -4.920  0.00  0.00    -0.205 F 
ENDBRANCH  22  23
ENDBRANCH  16  18
ENDBRANCH   1  16
TORSDOF 5
