REMARK  Name = ZINC44710252
REMARK  10 active torsions:
REMARK  status: ('A' for Active; 'I' for Inactive)
REMARK    1  A    between atoms: C_4  and  O_7
REMARK    2  A    between atoms: O_7  and  C_8
REMARK    3  A    between atoms: C_8  and  C_9
REMARK    4  A    between atoms: C_9  and  O_10
REMARK    5  A    between atoms: O_10  and  C_11
REMARK    6  A    between atoms: C_11  and  C_12
REMARK    7  A    between atoms: C_12  and  C_13
REMARK    8  A    between atoms: C_13  and  N_14
REMARK    9  A    between atoms: C_21  and  N_36
REMARK   10  A    between atoms: C_24  and  N_25
REMARK                            x       y       z     vdW  Elec       q    Type
REMARK                         _______ _______ _______ _____ _____    ______ ____
ROOT
ATOM      1  N   UNL     1       8.778  -1.927   4.340  0.00  0.00    -0.275 N 
ATOM      2  C   UNL     1       9.626  -0.889   4.451  0.00  0.00    +0.264 A 
ATOM      3  O   UNL     1       9.734   0.026   3.659  0.00  0.00    -0.267 OA
ATOM      4  C   UNL     1      10.402  -1.048   5.696  0.00  0.00    +0.075 A 
ATOM      5  C   UNL     1       9.944  -2.240   6.288  0.00  0.00    +0.075 A 
ATOM      6  C   UNL     1       8.901  -2.764   5.386  0.00  0.00    +0.264 A 
ATOM      7  O   UNL     1       8.262  -3.783   5.558  0.00  0.00    -0.267 OA
ATOM      8  C   UNL     1      10.490  -2.677   7.499  0.00  0.00    +0.050 A 
ATOM      9  C   UNL     1      11.498  -1.923   8.124  0.00  0.00    +0.056 A 
ATOM     10  C   UNL     1      11.955  -0.734   7.534  0.00  0.00    +0.056 A 
ATOM     11  C   UNL     1      11.405  -0.296   6.316  0.00  0.00    +0.050 A 
ATOM     12  C   UNL     1      13.012   0.059   8.189  0.00  0.00    +0.196 A 
ATOM     13  O   UNL     1      13.407   1.088   7.676  0.00  0.00    -0.287 OA
ATOM     14  C   UNL     1      13.591  -0.400   9.468  0.00  0.00    +0.033 A 
ATOM     15  C   UNL     1      14.590   0.342  10.093  0.00  0.00    +0.012 A 
ATOM     16  C   UNL     1      15.126  -0.096  11.291  0.00  0.00    +0.001 A 
ATOM     17  C   UNL     1      14.676  -1.267  11.874  0.00  0.00    +0.001 A 
ATOM     18  C   UNL     1      13.684  -2.016  11.266  0.00  0.00    +0.012 A 
ATOM     19  C   UNL     1      13.133  -1.590  10.060  0.00  0.00    +0.033 A 
ATOM     20  C   UNL     1      12.075  -2.382   9.402  0.00  0.00    +0.196 A 
ATOM     21  O   UNL     1      11.679  -3.412   9.913  0.00  0.00    -0.287 OA
ENDROOT
BRANCH  11  22
ATOM     22  N   UNL     1      11.853   0.874   5.735  0.00  0.00    -0.357 N 
ATOM     23  H   UNL     1      11.269   1.378   5.147  0.00  0.00    +0.142 HD
ATOM     24  H   UNL     1      12.752   1.191   5.914  0.00  0.00    +0.142 HD
ENDBRANCH  11  22
BRANCH   8  25
ATOM     25  N   UNL     1      10.039  -3.847   8.079  0.00  0.00    -0.357 N 
ATOM     26  H   UNL     1      10.621  -4.350   8.669  0.00  0.00    +0.142 HD
ATOM     27  H   UNL     1       9.141  -4.165   7.895  0.00  0.00    +0.142 HD
ENDBRANCH   8  25
BRANCH   1  28
ATOM     28  C   UNL     1       7.840  -2.117   3.231  0.00  0.00    +0.131 C 
BRANCH  28  29
ATOM     29  C   UNL     1       6.512  -1.434   3.563  0.00  0.00    +0.050 C 
BRANCH  29  30
ATOM     30  C   UNL     1       5.532  -1.633   2.405  0.00  0.00    +0.161 C 
BRANCH  30  31
ATOM     31  O   UNL     1       4.292  -0.994   2.715  0.00  0.00    -0.376 OA
BRANCH  31  32
ATOM     32  C   UNL     1       3.302  -1.121   1.692  0.00  0.00    +0.200 C 
BRANCH  32  33
ATOM     33  C   UNL     1       2.023  -0.404   2.130  0.00  0.00    +0.257 C 
BRANCH  33  34
ATOM     34  O   UNL     1       2.276   0.998   2.239  0.00  0.00    -0.490 OA
BRANCH  34  38
ATOM     35  C   UNL     1      -0.881   3.388   3.396  0.00  0.00    +0.000 A 
ATOM     36  C   UNL     1       0.353   3.954   3.134  0.00  0.00    +0.004 A 
ATOM     37  C   UNL     1       1.412   3.156   2.747  0.00  0.00    +0.045 A 
ATOM     38  C   UNL     1       1.236   1.786   2.620  0.00  0.00    +0.121 A 
ATOM     39  C   UNL     1      -0.003   1.220   2.884  0.00  0.00    +0.045 A 
ATOM     40  C   UNL     1      -1.059   2.023   3.270  0.00  0.00    +0.004 A 
ENDBRANCH  34  38
ENDBRANCH  33  34
ENDBRANCH  32  33
ENDBRANCH  31  32
ENDBRANCH  30  31
ENDBRANCH  29  30
ENDBRANCH  28  29
ENDBRANCH   1  28
TORSDOF 10
