REMARK  Name = ZINC39605291
REMARK  6 active torsions:
REMARK  status: ('A' for Active; 'I' for Inactive)
REMARK    1  A    between atoms: C_3  and  C_9
REMARK    2  A    between atoms: C_13  and  C_22
REMARK    3  A    between atoms: N_24  and  C_25
REMARK    4  A    between atoms: C_25  and  C_26
REMARK    5  A    between atoms: C_26  and  C_27
REMARK    6  A    between atoms: C_27  and  O_28
REMARK                            x       y       z     vdW  Elec       q    Type
REMARK                         _______ _______ _______ _____ _____    ______ ____
ROOT
ATOM      1  C   UNL     1       3.950   2.221   0.075  0.00  0.00    +0.248 C 
ATOM      2  O   UNL     1       5.053   1.721   0.174  0.00  0.00    -0.270 OA
ATOM      3  N   UNL     1       3.823   3.556  -0.055  0.00  0.00    -0.296 N 
ATOM      4  C   UNL     1       2.574   4.352  -0.084  0.00  0.00    +0.121 C 
ATOM      5  C   UNL     1       2.904   5.626   0.727  0.00  0.00    +0.100 C 
ATOM      6  C   UNL     1       4.433   5.758   0.644  0.00  0.00    -0.004 C 
ATOM      7  C   UNL     1       4.904   4.562  -0.195  0.00  0.00    +0.115 C 
ATOM      8  C   UNL     1       5.046   5.690   2.039  0.00  0.00    -0.010 C 
ATOM      9  C   UNL     1       6.562   5.881   1.936  0.00  0.00    -0.082 C 
ATOM     10  N   UNL     1       6.852   7.180   1.316  0.00  0.00    +0.379 N 
ATOM     11  C   UNL     1       6.340   7.203  -0.060  0.00  0.00    -0.082 C 
ATOM     12  C   UNL     1       4.814   7.067  -0.041  0.00  0.00    -0.010 C 
ATOM     13  H   UNL     1       6.410   7.913   1.850  0.00  0.00    -0.086 HD
ATOM     14  H   UNL     1       7.849   7.330   1.304  0.00  0.00    -0.086 HD
ENDROOT
BRANCH   1  17
ATOM     15  C   UNL     1       0.521   0.884  -0.669  0.00  0.00    +0.021 A 
ATOM     16  C   UNL     1       1.641   1.688  -0.693  0.00  0.00    +0.016 A 
ATOM     17  C   UNL     1       2.747   1.364   0.096  0.00  0.00    +0.055 A 
ATOM     18  C   UNL     1       2.710   0.226   0.906  0.00  0.00    +0.054 A 
ATOM     19  C   UNL     1       1.582  -0.571   0.921  0.00  0.00    +0.040 A 
ATOM     20  C   UNL     1       0.490  -0.243   0.136  0.00  0.00    +0.042 A 
ATOM     21 CL   UNL     1      -0.924  -1.250   0.159  0.00  0.00    -0.083 Cl
ATOM     22 CL   UNL     1       4.079  -0.186   1.891  0.00  0.00    -0.083 Cl
ENDBRANCH   1  17
BRANCH   5  23
ATOM     23  C   UNL     1       2.465   5.465   2.159  0.00  0.00    +0.218 C 
ATOM     24  O   UNL     1       2.453   4.364   2.670  0.00  0.00    -0.275 OA
ATOM     25  N   UNL     1       2.087   6.543   2.874  0.00  0.00    -0.315 N 
ATOM     26  H   UNL     1       2.096   7.423   2.466  0.00  0.00    +0.149 HD
BRANCH  25  27
ATOM     27  C   UNL     1       1.661   6.386   4.267  0.00  0.00    +0.106 C 
BRANCH  27  28
ATOM     28  C   UNL     1       1.287   7.753   4.843  0.00  0.00    +0.046 C 
BRANCH  28  29
ATOM     29  C   UNL     1       0.842   7.590   6.298  0.00  0.00    +0.157 C 
BRANCH  29  30
ATOM     30  O   UNL     1       0.493   8.867   6.835  0.00  0.00    -0.395 OA
ATOM     31  H   UNL     1       0.200   8.839   7.757  0.00  0.00    +0.209 HD
ENDBRANCH  29  30
ENDBRANCH  28  29
ENDBRANCH  27  28
ENDBRANCH  25  27
ENDBRANCH   5  23
TORSDOF 6
