REMARK  Name = ZINC07536097
REMARK  5 active torsions:
REMARK  status: ('A' for Active; 'I' for Inactive)
REMARK    1  A    between atoms: C_1  and  C_2
REMARK    2  A    between atoms: C_8  and  N_10
REMARK    3  A    between atoms: C_14  and  C_16
REMARK    4  A    between atoms: C_16  and  S_17
REMARK    5  A    between atoms: S_17  and  C_18
REMARK                            x       y       z     vdW  Elec       q    Type
REMARK                         _______ _______ _______ _____ _____    ______ ____
ROOT
ATOM      1  N   UNL     1       0.010  -0.012  -2.444  0.00  0.00    -0.296 N 
ATOM      2  C   UNL     1       0.111  -0.681  -3.609  0.00  0.00    +0.306 C 
ATOM      3  O   UNL     1       0.789  -1.687  -3.676  0.00  0.00    -0.252 OA
ATOM      4  N   UNL     1      -0.541  -0.235  -4.701  0.00  0.00    -0.240 N 
ATOM      5  C   UNL     1      -0.441  -0.904  -5.867  0.00  0.00    +0.231 C 
ATOM      6  O   UNL     1       0.237  -1.907  -5.933  0.00  0.00    -0.274 OA
ATOM      7  H   UNL     1      -0.532   0.791  -2.391  0.00  0.00    +0.151 HD
ATOM      8  H   UNL     1      -1.083   0.568  -4.648  0.00  0.00    +0.159 HD
ENDROOT
BRANCH   1  15
ATOM      9  C   UNL     1      -1.433  -0.534   0.013  0.00  0.00    +0.009 C 
ATOM     10  C   UNL     1       0.002  -0.004   0.002  0.00  0.00    +0.006 C 
ATOM     11  C   UNL     1      -0.019   1.526   0.010  0.00  0.00    +0.005 C 
ATOM     12  C   UNL     1       1.417   2.055  -0.000  0.00  0.00    +0.000 C 
ATOM     13  C   UNL     1       2.133   1.562  -1.259  0.00  0.00    +0.002 C 
ATOM     14  C   UNL     1       2.154   0.032  -1.268  0.00  0.00    +0.022 C 
ATOM     15  C   UNL     1       0.718  -0.497  -1.257  0.00  0.00    +0.077 C 
ENDBRANCH   1  15
BRANCH   5  16
ATOM     16  C   UNL     1      -1.169  -0.405  -7.088  0.00  0.00    +0.172 C 
BRANCH  16  17
ATOM     17  S   UNL     1      -0.837  -1.512  -8.485  0.00  0.00    -0.088 S 
BRANCH  17  18
ATOM     18  C   UNL     1      -1.746  -0.802  -9.817  0.00  0.00    +0.160 A 
ATOM     19  N   UNL     1      -2.507   0.275  -9.830  0.00  0.00    -0.133 NA
ATOM     20  N   UNL     1      -3.131   0.659 -10.994  0.00  0.00    -0.125 NA
ATOM     21  C   UNL     1      -2.974  -0.058 -12.090  0.00  0.00    +0.180 A 
ATOM     22  S   UNL     1      -1.891  -1.355 -11.510  0.00  0.00    -0.025 S 
ATOM     23  N   UNL     1      -3.510   0.142 -13.357  0.00  0.00    -0.336 N 
ATOM     24  H   UNL     1      -3.303  -0.478 -14.074  0.00  0.00    +0.144 HD
ATOM     25  H   UNL     1      -4.090   0.901 -13.524  0.00  0.00    +0.144 HD
ENDBRANCH  17  18
ENDBRANCH  16  17
ENDBRANCH   5  16
TORSDOF 4
