REMARK  Name = ZINC22852199
REMARK  4 active torsions:
REMARK  status: ('A' for Active; 'I' for Inactive)
REMARK    1  A    between atoms: C_3  and  C_6
REMARK    2  A    between atoms: C_12  and  C_14
REMARK    3  A    between atoms: C_14  and  C_16
REMARK    4  A    between atoms: C_14  and  N_23
REMARK                            x       y       z     vdW  Elec       q    Type
REMARK                         _______ _______ _______ _____ _____    ______ ____
ROOT
ATOM      1  C   UNL     1      -8.386   0.319   0.039  0.00  0.00    +0.006 C 
ENDROOT
BRANCH   1   8
ATOM      2  C   UNL     1      -2.464   0.927   0.470  0.00  0.00    +0.218 A 
ATOM      3  N   UNL     1      -2.958  -0.313   0.347  0.00  0.00    -0.197 NA
ATOM      4  C   UNL     1      -4.258  -0.254   0.272  0.00  0.00    +0.200 A 
ATOM      5  N   UNL     1      -4.665   1.051   0.334  0.00  0.00    -0.169 N 
ATOM      6  N   UNL     1      -3.459   1.788   0.464  0.00  0.00    -0.138 NA
ATOM      7  C   UNL     1      -6.016   1.289   0.261  0.00  0.00    +0.282 A 
ATOM      8  C   UNL     1      -6.882   0.277   0.135  0.00  0.00    +0.050 A 
ATOM      9  S   UNL     1      -5.791  -1.137   0.110  0.00  0.00    -0.050 S 
ATOM     10  O   UNL     1      -6.478   2.567   0.318  0.00  0.00    -0.265 OA
BRANCH   2  13
ATOM     11  C   UNL     1       1.183   1.151   0.720  0.00  0.00    +0.042 A 
ATOM     12  C   UNL     1       0.003   0.391   0.597  0.00  0.00    +0.053 A 
ATOM     13  C   UNL     1      -1.032   1.272   0.589  0.00  0.00    +0.173 A 
ATOM     14  O   UNL     1      -0.526   2.514   0.710  0.00  0.00    -0.460 OA
ATOM     15  C   UNL     1       0.813   2.445   0.787  0.00  0.00    +0.196 A 
ENDBRANCH   2  13
ENDBRANCH   1   8
BRANCH   1  16
ATOM     16  C   UNL     1      -8.985  -0.148   1.341  0.00  0.00    -0.056 A 
ATOM     17  C   UNL     1      -8.967  -1.491   1.667  0.00  0.00    +0.005 A 
ATOM     18  C   UNL     1      -9.511  -1.919   2.863  0.00  0.00    +0.038 A 
ATOM     19  C   UNL     1     -10.086  -1.004   3.729  0.00  0.00    +0.123 A 
ATOM     20  C   UNL     1     -10.108   0.340   3.398  0.00  0.00    +0.038 A 
ATOM     21  C   UNL     1      -9.558   0.767   2.205  0.00  0.00    +0.005 A 
ATOM     22  F   UNL     1     -10.624  -1.423   4.895  0.00  0.00    -0.205 F 
ENDBRANCH   1  16
BRANCH   1  23
ATOM     23  N   UNL     1      -8.832  -0.561  -1.049  0.00  0.00    +0.387 N 
ATOM     24  C   UNL     1      -8.198  -0.189  -2.320  0.00  0.00    -0.077 C 
ATOM     25  C   UNL     1      -8.571  -1.211  -3.396  0.00  0.00    -0.019 C 
ATOM     26  C   UNL     1     -10.093  -1.246  -3.554  0.00  0.00    -0.004 C 
ATOM     27  C   UNL     1     -10.731  -1.589  -2.205  0.00  0.00    -0.019 C 
ATOM     28  C   UNL     1     -10.296  -0.556  -1.164  0.00  0.00    -0.077 C 
ATOM     29  H   UNL     1      -8.518  -1.587  -0.806  0.00  0.00    -0.080 HD
ENDBRANCH   1  23
TORSDOF 4
