REMARK  Name = ZINC64960832
REMARK  8 active torsions:
REMARK  status: ('A' for Active; 'I' for Inactive)
REMARK    1  A    between atoms: C_1  and  O_2
REMARK    2  A    between atoms: O_2  and  C_3
REMARK    3  A    between atoms: C_5  and  C_13
REMARK    4  A    between atoms: C_7  and  O_11
REMARK    5  A    between atoms: C_8  and  O_9
REMARK    6  A    between atoms: O_9  and  C_10
REMARK    7  A    between atoms: O_11  and  C_12
REMARK    8  A    between atoms: C_16  and  C_20
REMARK                            x       y       z     vdW  Elec       q    Type
REMARK                         _______ _______ _______ _____ _____    ______ ____
ROOT
ATOM      1  C   UNL     1       2.402   0.386  -4.230  0.00  0.00    +0.181 C 
ATOM      2  N   UNL     1       3.563  -0.315  -4.819  0.00  0.00    -0.265 NA
ATOM      3  C   UNL     1       4.737   0.555  -4.578  0.00  0.00    +0.247 C 
ATOM      4  O   UNL     1       4.186   1.882  -4.422  0.00  0.00    -0.274 OA
ATOM      5  N   UNL     1       2.933   1.649  -3.667  0.00  0.00    -0.177 NA
ATOM      6  H   UNL     1       3.692  -1.221  -4.395  0.00  0.00    +0.127 HD
ATOM      7  H   UNL     1       2.282   2.408  -3.802  0.00  0.00    +0.156 HD
ENDROOT
BRANCH   3   8
ATOM      8  C   UNL     1       5.675   0.509  -5.756  0.00  0.00    +0.061 A 
ATOM      9  H   UNL     1       5.759  -0.596  -8.794  0.00  0.00    +0.165 HD
ATOM     10  C   UNL     1       5.287  -0.085  -6.904  0.00  0.00    +0.094 A 
ATOM     11  N   UNL     1       6.088  -0.157  -7.994  0.00  0.00    -0.360 N 
ATOM     12  C   UNL     1       7.356   0.378  -7.995  0.00  0.00    +0.050 A 
ATOM     13  C   UNL     1       8.171   0.298  -9.121  0.00  0.00    +0.026 A 
ATOM     14  C   UNL     1       9.435   0.844  -9.088  0.00  0.00    +0.002 A 
ATOM     15  C   UNL     1       9.907   1.472  -7.944  0.00  0.00    +0.001 A 
ATOM     16  C   UNL     1       9.124   1.561  -6.827  0.00  0.00    +0.014 A 
ATOM     17  C   UNL     1       7.840   1.016  -6.839  0.00  0.00    +0.045 A 
ATOM     18  C   UNL     1       6.960   1.094  -5.660  0.00  0.00    +0.196 A 
ATOM     19  O   UNL     1       7.328   1.640  -4.633  0.00  0.00    -0.287 OA
ENDBRANCH   3   8
BRANCH   1  22
ATOM     20  C   UNL     1       0.606  -0.608  -1.056  0.00  0.00    +0.166 A 
ATOM     21  C   UNL     1       1.173   0.160  -2.063  0.00  0.00    +0.056 A 
ATOM     22  C   UNL     1       1.787  -0.452  -3.139  0.00  0.00    -0.007 A 
ATOM     23  C   UNL     1       1.839  -1.831  -3.217  0.00  0.00    +0.056 A 
ATOM     24  C   UNL     1       1.275  -2.606  -2.215  0.00  0.00    +0.166 A 
ATOM     25  C   UNL     1       0.661  -1.994  -1.128  0.00  0.00    +0.204 A 
BRANCH  20  27
ATOM     26  C   UNL     1      -0.017   1.425   0.010  0.00  0.00    +0.277 C 
ATOM     27  O   UNL     1       0.002  -0.004   0.002  0.00  0.00    -0.491 OA
ENDBRANCH  20  27
BRANCH  25  28
ATOM     28  O   UNL     1       0.111  -2.751  -0.140  0.00  0.00    -0.488 OA
ATOM     29  C   UNL     1      -1.260  -3.124  -0.295  0.00  0.00    +0.277 C 
ENDBRANCH  25  28
BRANCH  24  30
ATOM     30  O   UNL     1       1.326  -3.963  -2.293  0.00  0.00    -0.491 OA
ATOM     31  C   UNL     1       1.977  -4.523  -3.435  0.00  0.00    +0.277 C 
ENDBRANCH  24  30
ENDBRANCH   1  22
TORSDOF 5
