REMARK  Name = ZINC15239311
REMARK  9 active torsions:
REMARK  status: ('A' for Active; 'I' for Inactive)
REMARK    1  A    between atoms: C_1  and  C_2
REMARK    2  A    between atoms: C_5  and  C_31
REMARK    3  A    between atoms: C_6  and  O_9
REMARK    4  A    between atoms: C_7  and  C_8
REMARK    5  A    between atoms: O_9  and  C_10
REMARK    6  A    between atoms: C_10  and  C_11
REMARK    7  A    between atoms: C_11  and  C_13
REMARK    8  A    between atoms: C_11  and  O_30
REMARK    9  A    between atoms: C_13  and  N_14
REMARK                            x       y       z     vdW  Elec       q    Type
REMARK                         _______ _______ _______ _____ _____    ______ ____
ROOT
ATOM      1  N   UNL     1      -4.891   4.254   2.287  0.00  0.00    -0.221 N 
ATOM      2  C   UNL     1      -6.102   3.658   2.287  0.00  0.00    +0.251 C 
ATOM      3  O   UNL     1      -6.339   2.478   2.432  0.00  0.00    -0.272 OA
ATOM      4  C   UNL     1      -7.099   4.771   2.067  0.00  0.00    +0.144 C 
ATOM      5  C   UNL     1      -7.878   4.542   0.776  0.00  0.00    +0.081 C 
ATOM      6  C   UNL     1      -9.042   5.542   0.730  0.00  0.00    +0.232 C 
ATOM      7  O   UNL     1      -9.923   5.259   1.818  0.00  0.00    -0.492 OA
ATOM      8  C   UNL     1      -9.386   5.118   3.057  0.00  0.00    +0.126 A 
ATOM      9  C   UNL     1      -8.034   4.878   3.240  0.00  0.00    +0.027 A 
ATOM     10  C   UNL     1      -7.528   4.732   4.520  0.00  0.00    +0.010 A 
ATOM     11  C   UNL     1      -8.363   4.830   5.616  0.00  0.00    +0.001 A 
ATOM     12  C   UNL     1      -9.712   5.075   5.437  0.00  0.00    +0.004 A 
ATOM     13  C   UNL     1     -10.223   5.219   4.163  0.00  0.00    +0.046 A 
ATOM     14  N   UNL     1      -6.270   5.978   1.960  0.00  0.00    -0.281 N 
ATOM     15  C   UNL     1      -4.992   5.576   2.106  0.00  0.00    +0.310 C 
ATOM     16  O   UNL     1      -4.039   6.329   2.074  0.00  0.00    -0.252 OA
ATOM     17  H   UNL     1      -6.580   6.886   1.816  0.00  0.00    +0.152 HD
ENDROOT
BRANCH   1  18
ATOM     18  C   UNL     1      -3.623   3.542   2.469  0.00  0.00    +0.152 C 
BRANCH  18  19
ATOM     19  C   UNL     1      -3.086   3.101   1.106  0.00  0.00    +0.170 C 
BRANCH  19  20
ATOM     20  O   UNL     1      -4.033   2.233   0.479  0.00  0.00    -0.387 OA
ATOM     21  H   UNL     1      -4.226   1.431   0.984  0.00  0.00    +0.210 HD
ENDBRANCH  19  20
BRANCH  19  22
ATOM     22  C   UNL     1      -1.762   2.358   1.296  0.00  0.00    +0.262 C 
BRANCH  22  23
ATOM     23  O   UNL     1      -1.202   2.047   0.019  0.00  0.00    -0.489 OA
BRANCH  23  29
ATOM     24  C   UNL     1       3.677   2.181  -0.023  0.00  0.00    +0.044 C 
ATOM     25  C   UNL     1       2.380   1.413  -0.013  0.00  0.00    -0.044 A 
ATOM     26  C   UNL     1       2.396   0.030  -0.021  0.00  0.00    +0.004 A 
ATOM     27  C   UNL     1       1.208  -0.677  -0.013  0.00  0.00    +0.007 A 
ATOM     28  C   UNL     1       0.002  -0.004   0.002  0.00  0.00    -0.009 A 
ATOM     29  C   UNL     1      -0.017   1.383   0.010  0.00  0.00    +0.127 A 
ATOM     30  C   UNL     1       1.177   2.091   0.002  0.00  0.00    -0.006 A 
ATOM     31  C   UNL     1       1.160   3.598   0.010  0.00  0.00    +0.048 C 
ATOM     32  C   UNL     1      -1.292  -0.776   0.010  0.00  0.00    +0.047 C 
ENDBRANCH  23  29
ENDBRANCH  22  23
ENDBRANCH  19  22
ENDBRANCH  18  19
ENDBRANCH   1  18
TORSDOF 6
