REMARK  Name = ZINC64245424
REMARK  9 active torsions:
REMARK  status: ('A' for Active; 'I' for Inactive)
REMARK    1  A    between atoms: C_1  and  C_2
REMARK    2  A    between atoms: C_6  and  O_8
REMARK    3  A    between atoms: O_8  and  C_9
REMARK    4  A    between atoms: C_9  and  C_10
REMARK    5  A    between atoms: C_10  and  C_11
REMARK    6  A    between atoms: C_10  and  O_29
REMARK    7  A    between atoms: C_11  and  N_12
REMARK    8  A    between atoms: N_15  and  C_16
REMARK    9  A    between atoms: C_16  and  C_17
REMARK                            x       y       z     vdW  Elec       q    Type
REMARK                         _______ _______ _______ _____ _____    ______ ____
ROOT
ATOM      1  N   UNL     1       0.220  -6.971   4.871  0.00  0.00    -0.297 N 
ATOM      2  C   UNL     1       0.354  -8.299   5.065  0.00  0.00    +0.300 C 
ATOM      3  O   UNL     1       0.463  -9.044   4.111  0.00  0.00    -0.253 OA
ATOM      4  N   UNL     1       0.366  -8.799   6.316  0.00  0.00    -0.295 N 
ATOM      5  H   UNL     1       0.134  -6.377   5.632  0.00  0.00    +0.150 HD
ATOM      6  H   UNL     1       0.280  -8.204   7.077  0.00  0.00    +0.151 HD
ENDROOT
BRANCH   1   7
ATOM      7  C   UNL     1       0.207  -6.428   3.511  0.00  0.00    +0.140 C 
BRANCH   7   8
ATOM      8  C   UNL     1       0.045  -4.907   3.571  0.00  0.00    +0.169 C 
BRANCH   8   9
ATOM      9  O   UNL     1      -1.184  -4.585   4.226  0.00  0.00    -0.387 OA
ATOM     10  H   UNL     1      -1.969  -4.938   3.785  0.00  0.00    +0.210 HD
ENDBRANCH   8   9
BRANCH   8  11
ATOM     11  C   UNL     1       0.030  -4.339   2.151  0.00  0.00    +0.261 C 
BRANCH  11  12
ATOM     12  O   UNL     1      -0.003  -2.912   2.209  0.00  0.00    -0.489 OA
BRANCH  12  18
ATOM     13  C   UNL     1      -0.106   1.321  -0.219  0.00  0.00    +0.044 C 
ATOM     14  C   UNL     1      -0.070  -0.185  -0.199  0.00  0.00    -0.047 A 
ATOM     15  C   UNL     1      -0.054  -0.891  -1.388  0.00  0.00    +0.003 A 
ATOM     16  C   UNL     1      -0.021  -2.273  -1.373  0.00  0.00    +0.004 A 
ATOM     17  C   UNL     1      -0.004  -2.952  -0.170  0.00  0.00    +0.045 A 
ATOM     18  C   UNL     1      -0.020  -2.246   1.024  0.00  0.00    +0.121 A 
ATOM     19  C   UNL     1      -0.047  -0.859   1.006  0.00  0.00    +0.049 A 
ENDBRANCH  12  18
ENDBRANCH  11  12
ENDBRANCH   8  11
ENDBRANCH   7   8
ENDBRANCH   1   7
BRANCH   4  20
ATOM     20  C   UNL     1       0.511 -10.242   6.527  0.00  0.00    +0.141 C 
BRANCH  20  21
ATOM     21  C   UNL     1       0.495 -10.538   8.004  0.00  0.00    -0.026 A 
ATOM     22  C   UNL     1       1.674 -10.547   8.739  0.00  0.00    +0.023 A 
ATOM     23  C   UNL     1       1.625 -10.821  10.091  0.00  0.00    +0.084 A 
ATOM     24  N   UNL     1       0.476 -11.074  10.690  0.00  0.00    -0.350 N 
ATOM     25  C   UNL     1      -0.668 -11.075  10.024  0.00  0.00    +0.099 A 
ATOM     26  C   UNL     1      -0.694 -10.801   8.660  0.00  0.00    +0.047 A 
ATOM     27  N   UNL     1      -1.855 -11.347  10.694  0.00  0.00    -0.317 N 
ATOM     28  C   UNL     1      -1.841 -11.760  12.104  0.00  0.00    +0.106 C 
ATOM     29  C   UNL     1      -2.765 -10.833  12.899  0.00  0.00    +0.019 C 
ATOM     30  C   UNL     1      -4.155 -10.833  12.258  0.00  0.00    +0.003 C 
ATOM     31  C   UNL     1      -4.058 -10.305  10.825  0.00  0.00    +0.019 C 
ATOM     32  C   UNL     1      -3.148 -11.220  10.008  0.00  0.00    +0.106 C 
ATOM     33  H   UNL     1       0.470 -11.263  11.641  0.00  0.00    +0.166 HD
ENDBRANCH  20  21
ENDBRANCH   4  20
TORSDOF 8
