REMARK  Name = ZINC00037718
REMARK  4 active torsions:
REMARK  status: ('A' for Active; 'I' for Inactive)
REMARK    1  A    between atoms: C_1  and  C_2
REMARK    2  A    between atoms: C_2  and  O_3
REMARK    3  A    between atoms: O_3  and  C_4
REMARK    4  A    between atoms: C_4  and  C_6
REMARK                            x       y       z     vdW  Elec       q    Type
REMARK                         _______ _______ _______ _____ _____    ______ ____
ROOT
ATOM      1  C   UNL     1      -2.881  -2.427   0.017  0.00  0.00    +0.184 C 
ATOM      2  C   UNL     1      -3.425  -2.340   1.411  0.00  0.00    +0.035 C 
ATOM      3  C   UNL     1      -2.364  -2.689   2.476  0.00  0.00    +0.033 C 
ATOM      4  C   UNL     1      -3.179  -3.225   3.634  0.00  0.00    -0.030 C 
ATOM      5  C   UNL     1      -4.381  -3.562   3.244  0.00  0.00    -0.023 C 
ATOM      6  C   UNL     1      -4.533  -3.329   1.761  0.00  0.00    +0.049 C 
ATOM      7  C   UNL     1      -4.385  -4.653   1.065  0.00  0.00    -0.018 A 
ATOM      8  C   UNL     1      -5.138  -5.725   1.524  0.00  0.00    +0.021 A 
ATOM      9  C   UNL     1      -5.028  -6.964   0.924  0.00  0.00    +0.018 A 
ATOM     10  C   UNL     1      -4.164  -7.146  -0.141  0.00  0.00    +0.017 A 
ATOM     11  C   UNL     1      -3.415  -6.084  -0.606  0.00  0.00    +0.024 A 
ATOM     12  C   UNL     1      -3.529  -4.833  -0.005  0.00  0.00    +0.032 A 
ATOM     13  N   UNL     1      -2.806  -3.771  -0.516  0.00  0.00    -0.331 N 
ATOM     14 BR   UNL     1      -6.061  -8.415   1.560  0.00  0.00    -0.050 Br
ATOM     15  H   UNL     1      -2.198  -3.946  -1.251  0.00  0.00    +0.147 HD
ENDROOT
BRANCH   1  16
ATOM     16  C   UNL     1      -1.496  -1.832   0.006  0.00  0.00    +0.328 C 
ATOM     17  O   UNL     1      -0.528  -2.555  -0.007  0.00  0.00    -0.249 OA
BRANCH  16  18
ATOM     18  O   UNL     1      -1.339  -0.499   0.012  0.00  0.00    -0.464 OA
BRANCH  18  20
ATOM     19  C   UNL     1      -0.019   1.526   0.010  0.00  0.00    +0.048 C 
ATOM     20  C   UNL     1       0.002  -0.004   0.002  0.00  0.00    +0.229 C 
ENDBRANCH  18  20
ENDBRANCH  16  18
ENDBRANCH   1  16
TORSDOF 3
