REMARK  Name = ZINC37021119
REMARK  5 active torsions:
REMARK  status: ('A' for Active; 'I' for Inactive)
REMARK    1  A    between atoms: C_1  and  C_2
REMARK    2  A    between atoms: C_2  and  C_3
REMARK    3  A    between atoms: C_3  and  C_5
REMARK    4  A    between atoms: C_3  and  N_20
REMARK    5  A    between atoms: N_7  and  C_8
REMARK                            x       y       z     vdW  Elec       q    Type
REMARK                         _______ _______ _______ _____ _____    ______ ____
ROOT
ATOM      1  C   UNL     1      -1.150  -3.999  -1.389  0.00  0.00    +0.055 A 
ATOM      2  C   UNL     1      -1.321  -4.756  -0.238  0.00  0.00    +0.072 A 
ATOM      3  C   UNL     1      -1.222  -6.134  -0.299  0.00  0.00    +0.144 A 
ATOM      4  C   UNL     1      -0.950  -6.759  -1.515  0.00  0.00    +0.077 A 
ATOM      5  C   UNL     1      -0.779  -6.002  -2.663  0.00  0.00    +0.048 A 
ATOM      6  C   UNL     1      -0.885  -4.624  -2.601  0.00  0.00    +0.064 A 
ATOM      7 CL   UNL     1      -0.679  -3.675  -4.040  0.00  0.00    -0.082 Cl
ATOM      8  N   UNL     1      -0.851  -8.159  -1.560  0.00  0.00    -0.280 N 
ATOM      9  C   UNL     1      -1.324  -8.882  -0.521  0.00  0.00    +0.255 C 
ATOM     10  O   UNL     1      -1.222 -10.091  -0.524  0.00  0.00    -0.272 OA
ATOM     11  C   UNL     1      -1.979  -8.181   0.641  0.00  0.00    +0.325 C 
ATOM     12  O   UNL     1      -1.388  -6.891   0.819  0.00  0.00    -0.481 OA
ATOM     13  H   UNL     1      -0.449  -8.600  -2.325  0.00  0.00    +0.155 HD
ENDROOT
BRANCH   1  16
ATOM     14  C   UNL     1      -1.975  -2.020  -0.354  0.00  0.00    +0.203 C 
ATOM     15  O   UNL     1      -2.620  -2.704   0.413  0.00  0.00    -0.277 OA
ATOM     16  N   UNL     1      -1.251  -2.603  -1.330  0.00  0.00    -0.286 N 
ATOM     17  H   UNL     1      -0.800  -2.055  -1.992  0.00  0.00    +0.155 HD
BRANCH  14  18
ATOM     18  C   UNL     1      -1.983  -0.520  -0.215  0.00  0.00    +0.013 C 
BRANCH  18  19
ATOM     19  N   UNL     1      -3.161  -0.106   0.559  0.00  0.00    +0.386 N 
ATOM     20  H   UNL     1      -3.128  -0.528   1.474  0.00  0.00    -0.089 HD
ATOM     21  H   UNL     1      -3.166   0.899   0.652  0.00  0.00    -0.089 HD
ATOM     22  H   UNL     1      -3.998  -0.404   0.081  0.00  0.00    -0.089 HD
ENDBRANCH  18  19
BRANCH  18  24
ATOM     23  C   UNL     1      -0.660   1.461   0.541  0.00  0.00    +0.002 C 
ATOM     24  C   UNL     1      -0.713  -0.068   0.510  0.00  0.00    -0.011 C 
ENDBRANCH  18  24
ENDBRANCH  14  18
ENDBRANCH   1  16
TORSDOF 4
