REMARK  Name = ZINC12506245
REMARK  3 active torsions:
REMARK  status: ('A' for Active; 'I' for Inactive)
REMARK    1  A    between atoms: C_2  and  C_10
REMARK    2  A    between atoms: C_5  and  O_8
REMARK    3  A    between atoms: C_6  and  O_7
REMARK                            x       y       z     vdW  Elec       q    Type
REMARK                         _______ _______ _______ _____ _____    ______ ____
ROOT
ATOM      1  C   UNL     1       1.148   3.596   0.010  0.00  0.00    +0.209 C 
ATOM      2  N   UNL     1       2.208   4.117  -0.873  0.00  0.00    -0.294 N 
ATOM      3  C   UNL     1       3.500   4.173  -0.372  0.00  0.00    +0.159 C 
ATOM      4  N   UNL     1       3.664   4.814   0.857  0.00  0.00    -0.259 N 
ATOM      5  C   UNL     1       2.606   4.654   1.751  0.00  0.00    +0.205 A 
ATOM      6  N   UNL     1       1.413   4.090   1.366  0.00  0.00    -0.288 N 
ATOM      7  C   UNL     1       0.582   4.086   2.466  0.00  0.00    +0.076 A 
ATOM      8  C   UNL     1      -0.721   3.661   2.692  0.00  0.00    +0.077 A 
ATOM      9  C   UNL     1      -1.277   3.796   3.949  0.00  0.00    +0.164 A 
ATOM     10  C   UNL     1      -0.543   4.358   4.990  0.00  0.00    +0.164 A 
ATOM     11  C   UNL     1       0.750   4.790   4.780  0.00  0.00    +0.079 A 
ATOM     12  C   UNL     1       1.326   4.658   3.513  0.00  0.00    +0.095 A 
ATOM     13  N   UNL     1       2.553   4.983   3.008  0.00  0.00    -0.214 NA
ATOM     14  O   UNL     1      -1.111   4.479   6.226  0.00  0.00    -0.488 OA
ATOM     15  C   UNL     1      -2.180   5.421   6.334  0.00  0.00    +0.232 C 
ATOM     16  C   UNL     1      -3.499   4.790   5.914  0.00  0.00    +0.082 C 
ATOM     17  C   UNL     1      -3.514   4.404   4.444  0.00  0.00    +0.232 C 
ATOM     18  O   UNL     1      -2.557   3.377   4.179  0.00  0.00    -0.488 OA
ATOM     19  N   UNL     1       4.508   3.655  -1.015  0.00  0.00    -0.375 N 
ATOM     20  H   UNL     1       2.008   4.411  -1.776  0.00  0.00    +0.151 HD
ATOM     21  H   UNL     1       4.365   3.216  -1.867  0.00  0.00    +0.158 HD
ATOM     22  H   UNL     1       4.455   5.332   1.073  0.00  0.00    +0.158 HD
ATOM     23  H   UNL     1       5.402   3.709  -0.640  0.00  0.00    +0.158 HD
ENDROOT
BRANCH   1  25
ATOM     24  C   UNL     1      -0.017   1.381   0.010  0.00  0.00    +0.056 A 
ATOM     25  C   UNL     1       1.171   2.089   0.002  0.00  0.00    -0.002 A 
ATOM     26  C   UNL     1       2.379   1.418  -0.013  0.00  0.00    +0.031 A 
ATOM     27  C   UNL     1       2.405   0.035  -0.021  0.00  0.00    +0.086 A 
ATOM     28  C   UNL     1       1.218  -0.680  -0.013  0.00  0.00    +0.177 A 
ATOM     29  C   UNL     1       0.002  -0.004   0.002  0.00  0.00    +0.160 A 
ATOM     30 CL   UNL     1       3.925  -0.805  -0.041  0.00  0.00    -0.080 Cl
BRANCH  29  31
ATOM     31  O   UNL     1      -1.165  -0.701   0.010  0.00  0.00    -0.503 OA
ATOM     32  H   UNL     1      -1.512  -0.898  -0.871  0.00  0.00    +0.292 HD
ENDBRANCH  29  31
BRANCH  28  33
ATOM     33  O   UNL     1       1.241  -2.041  -0.021  0.00  0.00    -0.502 OA
ATOM     34  H   UNL     1       1.257  -2.438   0.860  0.00  0.00    +0.292 HD
ENDBRANCH  28  33
ENDBRANCH   1  25
TORSDOF 3
