REMARK  Name = ZINC03204136
REMARK  5 active torsions:
REMARK  status: ('A' for Active; 'I' for Inactive)
REMARK    1  A    between atoms: C_1  and  C_2
REMARK    2  A    between atoms: C_2  and  C_29
REMARK    3  A    between atoms: N_7  and  C_8
REMARK    4  A    between atoms: C_11  and  O_15
REMARK    5  A    between atoms: O_15  and  C_16
REMARK                            x       y       z     vdW  Elec       q    Type
REMARK                         _______ _______ _______ _____ _____    ______ ____
ROOT
ATOM      1  C   UNL     1      -2.533  -0.561  -0.852  0.00  0.00    +0.040 A 
ATOM      2  C   UNL     1      -1.308  -0.998  -1.338  0.00  0.00    +0.027 A 
ATOM      3  C   UNL     1      -1.234  -2.159  -2.082  0.00  0.00    +0.049 A 
ATOM      4  C   UNL     1      -2.384  -2.889  -2.344  0.00  0.00    +0.147 A 
ATOM      5  C   UNL     1      -3.610  -2.453  -1.859  0.00  0.00    +0.085 A 
ATOM      6  C   UNL     1      -3.683  -1.294  -1.110  0.00  0.00    +0.047 A 
ATOM      7 CL   UNL     1      -5.049  -3.367  -2.189  0.00  0.00    -0.080 Cl
ENDROOT
BRANCH   1  14
ATOM      8  C   UNL     1      -2.748   1.823  -2.229  0.00  0.00    +0.056 C 
ATOM      9  C   UNL     1      -2.976   1.898  -0.718  0.00  0.00    +0.109 C 
ATOM     10  N   UNL     1      -2.130   2.949  -0.142  0.00  0.00    -0.337 N 
ATOM     11  C   UNL     1      -1.641   2.818   1.063  0.00  0.00    +0.191 C 
ATOM     12  N   UNL     1      -1.855   1.715   1.800  0.00  0.00    -0.187 NA
ATOM     13  C   UNL     1      -2.340   0.616   1.252  0.00  0.00    +0.189 C 
ATOM     14  N   UNL     1      -2.608   0.616  -0.097  0.00  0.00    -0.250 N 
ATOM     15  N   UNL     1      -2.575  -0.497   2.011  0.00  0.00    -0.331 N 
ATOM     16  N   UNL     1      -0.887   3.844   1.595  0.00  0.00    -0.329 N 
ATOM     17  C   UNL     1      -4.447   2.205  -0.433  0.00  0.00    +0.056 C 
ATOM     18  H   UNL     1      -2.979  -1.407   1.542  0.00  0.00    +0.145 HD
ATOM     19  H   UNL     1      -2.361  -0.483   3.089  0.00  0.00    +0.145 HD
ATOM     20  H   UNL     1      -0.468   3.751   2.608  0.00  0.00    +0.145 HD
ATOM     21  H   UNL     1      -0.706   4.756   1.007  0.00  0.00    +0.145 HD
ATOM     22  H   UNL     1      -1.908   3.852  -0.730  0.00  0.00    +0.164 HD
ENDBRANCH   1  14
BRANCH   4  23
ATOM     23  O   UNL     1      -2.311  -4.032  -3.077  0.00  0.00    -0.453 OA
BRANCH  23  24
ATOM     24  C   UNL     1      -2.493  -3.942  -4.420  0.00  0.00    +0.143 A 
ATOM     25  C   UNL     1      -2.766  -2.698  -4.999  0.00  0.00    +0.048 A 
ATOM     26  C   UNL     1      -2.952  -2.577  -6.341  0.00  0.00    +0.012 A 
ATOM     27  C   UNL     1      -2.871  -3.713  -7.165  0.00  0.00    -0.017 A 
ATOM     28  C   UNL     1      -3.058  -3.618  -8.555  0.00  0.00    +0.008 A 
ATOM     29  C   UNL     1      -2.971  -4.737  -9.324  0.00  0.00    +0.001 A 
ATOM     30  C   UNL     1      -2.699  -5.980  -8.755  0.00  0.00    +0.001 A 
ATOM     31  C   UNL     1      -2.512  -6.111  -7.414  0.00  0.00    +0.010 A 
ATOM     32  C   UNL     1      -2.594  -4.977  -6.587  0.00  0.00    -0.000 A 
ATOM     33  C   UNL     1      -2.400  -5.074  -5.198  0.00  0.00    +0.068 A 
ATOM     34 BR   UNL     1      -2.022  -6.747  -4.403  0.00  0.00    -0.046 Br
ENDBRANCH  23  24
ENDBRANCH   4  23
TORSDOF 3
