REMARK  Name = ZINC63102744
REMARK  6 active torsions:
REMARK  status: ('A' for Active; 'I' for Inactive)
REMARK    1  A    between atoms: C_3  and  N_19
REMARK    2  A    between atoms: C_4  and  C_10
REMARK    3  A    between atoms: C_6  and  N_7
REMARK    4  A    between atoms: N_12  and  C_13
REMARK    5  A    between atoms: C_13  and  C_14
REMARK    6  A    between atoms: C_14  and  C_15
REMARK                            x       y       z     vdW  Elec       q    Type
REMARK                         _______ _______ _______ _____ _____    ______ ____
ROOT
ATOM      1  C   UNL     1      -0.073   1.269   0.020  0.00  0.00    +0.034 A 
ATOM      2  C   UNL     1       1.037   2.088  -0.009  0.00  0.00    +0.026 A 
ATOM      3  C   UNL     1       2.311   1.534  -0.035  0.00  0.00    +0.037 A 
ATOM      4  C   UNL     1       2.461   0.139  -0.031  0.00  0.00    +0.059 A 
ATOM      5  C   UNL     1       1.327  -0.677  -0.001  0.00  0.00    +0.047 A 
ATOM      6  C   UNL     1       0.072  -0.109   0.024  0.00  0.00    +0.127 A 
ENDROOT
BRANCH   4   7
ATOM      7  C   UNL     1       3.807  -0.463  -0.059  0.00  0.00    +0.246 C 
ATOM      8  O   UNL     1       4.791   0.247   0.024  0.00  0.00    -0.270 OA
ATOM      9  N   UNL     1       3.946  -1.798  -0.176  0.00  0.00    -0.311 N 
ATOM     10  H   UNL     1       3.161  -2.364  -0.242  0.00  0.00    +0.149 HD
BRANCH   9  11
ATOM     11  C   UNL     1       5.284  -2.395  -0.203  0.00  0.00    +0.113 C 
BRANCH  11  12
ATOM     12  C   UNL     1       5.161  -3.914  -0.342  0.00  0.00    +0.132 C 
BRANCH  12  13
ATOM     13  C   UNL     1       6.558  -4.538  -0.371  0.00  0.00    +0.392 C 
ATOM     14  F   UNL     1       7.230  -4.231   0.817  0.00  0.00    -0.171 F 
ATOM     15  F   UNL     1       6.446  -5.927  -0.497  0.00  0.00    -0.171 F 
ATOM     16  F   UNL     1       7.274  -4.027  -1.458  0.00  0.00    -0.171 F 
ENDBRANCH  12  13
ENDBRANCH  11  12
ENDBRANCH   9  11
ENDBRANCH   4   7
BRANCH   6  17
ATOM     17  N   UNL     1      -1.127  -0.976   0.056  0.00  0.00    +0.056 N 
ATOM     18  O   UNL     1      -2.230  -0.481   0.078  0.00  0.00    -0.126 OA
ATOM     19  O   UNL     1      -1.004  -2.178   0.060  0.00  0.00    -0.126 OA
ENDBRANCH   6  17
BRANCH   3  20
ATOM     20  N   UNL     1       3.429   2.357  -0.066  0.00  0.00    -0.357 N 
ATOM     21  H   UNL     1       3.323   3.317  -0.150  0.00  0.00    +0.142 HD
ATOM     22  H   UNL     1       4.317   1.971  -0.003  0.00  0.00    +0.142 HD
ENDBRANCH   3  20
TORSDOF 6
