REMARK  Name = ZINC49570832
REMARK  4 active torsions:
REMARK  status: ('A' for Active; 'I' for Inactive)
REMARK    1  A    between atoms: C_6  and  S_7
REMARK    2  A    between atoms: S_7  and  N_10
REMARK    3  A    between atoms: N_10  and  C_11
REMARK    4  A    between atoms: N_21  and  N_22
REMARK                            x       y       z     vdW  Elec       q    Type
REMARK                         _______ _______ _______ _____ _____    ______ ____
ROOT
ATOM      1  S   UNL     1      -1.788  -1.930  -0.391  0.00  0.00    +0.062 S 
ATOM      2  O   UNL     1      -2.056  -3.245   0.077  0.00  0.00    -0.153 OA
ATOM      3  O   UNL     1      -2.747  -0.884  -0.313  0.00  0.00    -0.153 OA
ENDROOT
BRANCH   1   9
ATOM      4  C   UNL     1       0.232  -2.162   1.439  0.00  0.00    +0.048 A 
ATOM      5  C   UNL     1       1.358  -1.679   2.095  0.00  0.00    +0.038 A 
ATOM      6  C   UNL     1       1.850  -0.431   1.766  0.00  0.00    +0.128 A 
ATOM      7  N   UNL     1       1.264   0.304   0.840  0.00  0.00    -0.236 NA
ATOM      8  C   UNL     1       0.190  -0.121   0.193  0.00  0.00    +0.159 A 
ATOM      9  C   UNL     1      -0.359  -1.369   0.473  0.00  0.00    +0.147 A 
ATOM     10  N   UNL     1      -0.396   0.687  -0.776  0.00  0.00    -0.266 N 
ATOM     11 BR   UNL     1       2.208  -2.720   3.425  0.00  0.00    -0.049 Br
ATOM     12  H   UNL     1      -1.216   0.406  -1.212  0.00  0.00    +0.167 HD
BRANCH  10  13
ATOM     13  N   UNL     1       0.183   1.877  -1.113  0.00  0.00    -0.255 NA
ATOM     14  H   UNL     1       1.139   1.743  -1.408  0.00  0.00    +0.140 HD
ATOM     15  H   UNL     1      -0.352   2.350  -1.826  0.00  0.00    +0.140 HD
ENDBRANCH  10  13
ENDBRANCH   1   9
BRANCH   1  16
ATOM     16  N   UNL     1      -1.371  -2.072  -1.987  0.00  0.00    -0.188 NA
ATOM     17  H   UNL     1      -1.802  -1.512  -2.653  0.00  0.00    +0.148 HD
BRANCH  16  18
ATOM     18  C   UNL     1      -0.352  -3.042  -2.395  0.00  0.00    +0.061 C 
ATOM     19  C   UNL     1       0.720  -2.363  -3.272  0.00  0.00    +0.000 C 
ATOM     20  C   UNL     1       1.129  -3.443  -4.287  0.00  0.00    -0.077 C 
ATOM     21  N   UNL     1       0.073  -4.463  -4.307  0.00  0.00    +0.383 N 
ATOM     22  C   UNL     1      -0.966  -4.116  -3.311  0.00  0.00    -0.050 C 
ATOM     23  C   UNL     1      -2.108  -3.467  -4.130  0.00  0.00    -0.016 C 
ATOM     24  C   UNL     1      -2.058  -4.274  -5.453  0.00  0.00    -0.020 C 
ATOM     25  C   UNL     1      -0.545  -4.537  -5.641  0.00  0.00    -0.078 C 
ATOM     26  H   UNL     1       0.466  -5.361  -4.066  0.00  0.00    -0.081 HD
ENDBRANCH  16  18
ENDBRANCH   1  16
TORSDOF 4
