REMARK  Name = ZINC46542044
REMARK  4 active torsions:
REMARK  status: ('A' for Active; 'I' for Inactive)
REMARK    1  A    between atoms: C_1  and  C_2
REMARK    2  A    between atoms: N_5  and  S_8
REMARK    3  A    between atoms: S_8  and  N_11
REMARK    4  A    between atoms: N_11  and  C_12
REMARK                            x       y       z     vdW  Elec       q    Type
REMARK                         _______ _______ _______ _____ _____    ______ ____
ROOT
ATOM      1  S   UNL     1      -1.173  -3.668   2.148  0.00  0.00    +0.097 S 
ATOM      2  O   UNL     1      -0.421  -3.521   3.344  0.00  0.00    -0.141 OA
ATOM      3  O   UNL     1      -2.589  -3.544   2.119  0.00  0.00    -0.141 OA
ENDROOT
BRANCH   1   8
ATOM      4  C   UNL     1      -0.019   1.526   0.010  0.00  0.00    +0.007 C 
ATOM      5  C   UNL     1       0.002  -0.004   0.002  0.00  0.00    -0.012 C 
ATOM      6  C   UNL     1      -1.434  -0.533   0.011  0.00  0.00    +0.020 C 
ATOM      7  C   UNL     1      -1.409  -2.065  -0.032  0.00  0.00    +0.111 C 
ATOM      8  N   UNL     1      -0.578  -2.556   1.075  0.00  0.00    -0.167 NA
ATOM      9  C   UNL     1       0.791  -2.042   1.212  0.00  0.00    +0.111 C 
ATOM     10  C   UNL     1       0.742  -0.511   1.242  0.00  0.00    +0.020 C 
ENDBRANCH   1   8
BRANCH   1  11
ATOM     11  N   UNL     1      -0.817  -5.169   1.546  0.00  0.00    -0.177 NA
ATOM     12  H   UNL     1      -1.533  -5.765   1.275  0.00  0.00    +0.149 HD
BRANCH  11  13
ATOM     13  C   UNL     1       0.578  -5.596   1.421  0.00  0.00    +0.078 C 
ATOM     14  C   UNL     1       1.087  -5.236   0.010  0.00  0.00    +0.020 C 
ATOM     15  C   UNL     1       2.591  -5.191   0.041  0.00  0.00    +0.002 C 
ATOM     16  C   UNL     1       3.229  -6.528  -0.382  0.00  0.00    +0.000 C 
ATOM     17  C   UNL     1       2.502  -7.751   0.210  0.00  0.00    +0.000 C 
ATOM     18  C   UNL     1       2.110  -7.548   1.649  0.00  0.00    +0.002 C 
ATOM     19  C   UNL     1       0.660  -7.023   1.693  0.00  0.00    +0.020 C 
ENDBRANCH  11  13
ENDBRANCH   1  11
TORSDOF 3
