REMARK  Name = ZINC43363575
REMARK  7 active torsions:
REMARK  status: ('A' for Active; 'I' for Inactive)
REMARK    1  A    between atoms: C_1  and  C_2
REMARK    2  A    between atoms: C_2  and  C_4
REMARK    3  A    between atoms: C_2  and  N_22
REMARK    4  A    between atoms: C_4  and  C_6
REMARK    5  A    between atoms: C_4  and  S_12
REMARK    6  A    between atoms: S_12  and  C_13
REMARK    7  A    between atoms: C_19  and  N_21
REMARK                            x       y       z     vdW  Elec       q    Type
REMARK                         _______ _______ _______ _____ _____    ______ ____
ROOT
ATOM      1  C   UNL     1       0.698  -0.464   1.250  0.00  0.00    +0.069 C 
ENDROOT
BRANCH   1   2
ATOM      2  C   UNL     1      -0.140   0.136   2.349  0.00  0.00    -0.033 A 
ATOM      3  C   UNL     1      -1.500  -0.122   2.425  0.00  0.00    +0.024 A 
ATOM      4  C   UNL     1      -2.237   0.446   3.447  0.00  0.00    +0.111 A 
ATOM      5  N   UNL     1      -1.661   1.225   4.342  0.00  0.00    -0.263 NA
ATOM      6  C   UNL     1      -0.370   1.492   4.300  0.00  0.00    +0.111 A 
ATOM      7  C   UNL     1       0.431   0.955   3.311  0.00  0.00    +0.024 A 
ENDBRANCH   1   2
BRANCH   1   9
ATOM      8  C   UNL     1       0.332   1.524  -0.218  0.00  0.00    -0.013 C 
ATOM      9  C   UNL     1       0.173   0.006  -0.107  0.00  0.00    -0.060 C 
BRANCH   9  10
ATOM     10  N   UNL     1       0.935  -0.645  -1.181  0.00  0.00    +0.381 N 
ATOM     11  H   UNL     1       1.920  -0.471  -1.047  0.00  0.00    -0.090 HD
ATOM     12  H   UNL     1       0.764  -1.639  -1.159  0.00  0.00    -0.090 HD
ATOM     13  H   UNL     1       0.646  -0.273  -2.073  0.00  0.00    -0.090 HD
ENDBRANCH   9  10
ENDBRANCH   1   9
BRANCH   1  14
ATOM     14  S   UNL     1       0.607  -2.274   1.340  0.00  0.00    -0.081 S 
BRANCH  14  15
ATOM     15  C   UNL     1       1.460  -2.671   2.830  0.00  0.00    +0.171 A 
ATOM     16  N   UNL     1       1.490  -3.963   3.257  0.00  0.00    -0.302 N 
ATOM     17  H   UNL     1       1.045  -4.654   2.742  0.00  0.00    +0.171 HD
ATOM     18  C   UNL     1       2.138  -4.285   4.396  0.00  0.00    +0.254 A 
ATOM     19  O   UNL     1       2.171  -5.442   4.786  0.00  0.00    -0.268 OA
ATOM     20  C   UNL     1       2.773  -3.272   5.121  0.00  0.00    +0.113 A 
ATOM     21  C   UNL     1       2.713  -1.971   4.643  0.00  0.00    +0.124 A 
ATOM     22  N   UNL     1       2.060  -1.712   3.505  0.00  0.00    -0.209 NA
BRANCH  21  23
ATOM     23  N   UNL     1       3.329  -0.949   5.336  0.00  0.00    -0.343 N 
ATOM     24  H   UNL     1       3.805  -1.139   6.160  0.00  0.00    +0.144 HD
ATOM     25  H   UNL     1       3.286  -0.040   5.000  0.00  0.00    +0.144 HD
ENDBRANCH  21  23
ENDBRANCH  14  15
ENDBRANCH   1  14
TORSDOF 6
