REMARK  Name = ZINC11452759
REMARK  16 active torsions:
REMARK  status: ('A' for Active; 'I' for Inactive)
REMARK    1  A    between atoms: C_1  and  C_2
REMARK    2  A    between atoms: C_2  and  N_3
REMARK    3  A    between atoms: C_4  and  C_26
REMARK    4  A    between atoms: C_7  and  S_8
REMARK    5  A    between atoms: S_8  and  C_9
REMARK    6  A    between atoms: C_9  and  C_10
REMARK    7  A    between atoms: C_10  and  C_12
REMARK    8  A    between atoms: C_13  and  N_25
REMARK    9  A    between atoms: N_14  and  C_21
REMARK   10  A    between atoms: C_21  and  C_22
REMARK   11  A    between atoms: C_22  and  O_23
REMARK   12  A    between atoms: O_23  and  C_24
REMARK   13  A    between atoms: C_29  and  C_32
REMARK   14  A    between atoms: C_32  and  C_33
REMARK   15  A    between atoms: C_32  and  C_34
REMARK   16  A    between atoms: C_32  and  C_35
REMARK                            x       y       z     vdW  Elec       q    Type
REMARK                         _______ _______ _______ _____ _____    ______ ____
ROOT
ATOM      1  C   UNL     1      -4.733   3.049  -3.878  0.00  0.00    +0.157 C 
ENDROOT
BRANCH   1   2
ATOM      2  C   UNL     1      -4.153   2.643  -2.548  0.00  0.00    +0.182 C 
ATOM      3  O   UNL     1      -4.292   3.362  -1.580  0.00  0.00    -0.291 OA
BRANCH   2   4
ATOM      4  C   UNL     1      -3.447   1.427  -2.428  0.00  0.00    +0.120 A 
ATOM      5  C   UNL     1      -2.792   1.083  -1.233  0.00  0.00    +0.116 A 
ATOM      6  N   UNL     1      -2.119  -0.103  -1.166  0.00  0.00    -0.279 N 
ATOM      7  C   UNL     1      -2.080  -0.944  -2.212  0.00  0.00    +0.331 A 
ATOM      8  O   UNL     1      -1.471  -1.990  -2.100  0.00  0.00    -0.246 OA
ATOM      9  N   UNL     1      -2.690  -0.671  -3.377  0.00  0.00    -0.274 N 
ATOM     10  H   UNL     1      -2.634  -1.328  -4.129  0.00  0.00    +0.173 HD
ATOM     11  C   UNL     1      -3.378   0.477  -3.546  0.00  0.00    +0.266 A 
ATOM     12  O   UNL     1      -3.930   0.721  -4.603  0.00  0.00    -0.267 OA
BRANCH   5  13
ATOM     13  N   UNL     1      -2.825   1.921  -0.161  0.00  0.00    -0.344 N 
ATOM     14  H   UNL     1      -2.967   2.871  -0.292  0.00  0.00    +0.144 HD
ATOM     15  H   UNL     1      -2.707   1.567   0.735  0.00  0.00    +0.144 HD
ENDBRANCH   5  13
BRANCH   6  16
ATOM     16  C   UNL     1      -1.429  -0.469   0.074  0.00  0.00    +0.156 C 
BRANCH  16  17
ATOM     17  C   UNL     1       0.009   0.051   0.029  0.00  0.00    +0.181 C 
BRANCH  17  18
ATOM     18  O   UNL     1      -0.001   1.480   0.009  0.00  0.00    -0.381 OA
ATOM     19  C   UNL     1       1.300   2.070  -0.033  0.00  0.00    +0.194 C 
ENDBRANCH  17  18
ENDBRANCH  16  17
ENDBRANCH   6  16
ENDBRANCH   2   4
ENDBRANCH   1   2
BRANCH   1  20
ATOM     20  S   UNL     1      -5.571   4.645  -3.709  0.00  0.00    -0.078 S 
BRANCH  20  25
ATOM     21  N   UNL     1      -6.857   5.930  -5.835  0.00  0.00    -0.302 N 
ATOM     22  C   UNL     1      -7.064   5.672  -7.170  0.00  0.00    +0.165 A 
ATOM     23  N   UNL     1      -6.496   4.518  -7.433  0.00  0.00    -0.128 NA
ATOM     24  N   UNL     1      -5.951   4.046  -6.370  0.00  0.00    -0.122 NA
ATOM     25  C   UNL     1      -6.137   4.870  -5.362  0.00  0.00    +0.192 A 
BRANCH  22  26
ATOM     26  C   UNL     1      -7.794   6.530  -8.128  0.00  0.00    +0.019 A 
ATOM     27  C   UNL     1      -8.283   5.992  -9.320  0.00  0.00    +0.012 A 
ATOM     28  C   UNL     1      -8.968   6.797 -10.206  0.00  0.00    +0.005 A 
ATOM     29  C   UNL     1      -9.162   8.136  -9.921  0.00  0.00    -0.042 A 
ATOM     30  C   UNL     1      -8.676   8.677  -8.744  0.00  0.00    +0.005 A 
ATOM     31  C   UNL     1      -7.994   7.882  -7.846  0.00  0.00    +0.012 A 
BRANCH  29  32
ATOM     32  C   UNL     1      -9.907   9.011 -10.897  0.00  0.00    -0.013 C 
ATOM     33  C   UNL     1      -8.995  10.149 -11.360  0.00  0.00    +0.015 C 
ATOM     34  C   UNL     1     -10.334   8.176 -12.106  0.00  0.00    +0.015 C 
ATOM     35  C   UNL     1     -11.146   9.594 -10.216  0.00  0.00    +0.015 C 
ENDBRANCH  29  32
ENDBRANCH  22  26
BRANCH  21  37
ATOM     36  C   UNL     1      -6.195   8.146  -5.040  0.00  0.00    +0.027 C 
ATOM     37  C   UNL     1      -7.310   7.099  -5.078  0.00  0.00    +0.122 C 
ENDBRANCH  21  37
ENDBRANCH  20  25
ENDBRANCH   1  20
TORSDOF 11
