REMARK  Name = ZINC20064750
REMARK  7 active torsions:
REMARK  status: ('A' for Active; 'I' for Inactive)
REMARK    1  A    between atoms: C_1  and  C_2
REMARK    2  A    between atoms: C_2  and  C_3
REMARK    3  A    between atoms: C_2  and  C_4
REMARK    4  A    between atoms: C_7  and  C_10
REMARK    5  A    between atoms: C_12  and  C_24
REMARK    6  A    between atoms: C_13  and  S_22
REMARK    7  A    between atoms: S_22  and  C_23
REMARK                            x       y       z     vdW  Elec       q    Type
REMARK                         _______ _______ _______ _____ _____    ______ ____
ROOT
ATOM      1  C   UNL     1      -5.419  -2.005   0.043  0.00  0.00    +0.097 C 
ATOM      2  C   UNL     1      -5.364  -3.520   0.117  0.00  0.00    +0.073 C 
ATOM      3  C   UNL     1      -5.976  -4.227  -0.904  0.00  0.00    +0.111 C 
ATOM      4  N   UNL     1      -6.594  -3.621  -1.920  0.00  0.00    -0.244 NA
ATOM      5  C   UNL     1      -6.703  -2.326  -2.084  0.00  0.00    +0.050 C 
ATOM      6  C   UNL     1      -6.146  -1.431  -1.158  0.00  0.00    +0.029 C 
ATOM      7  C   UNL     1      -6.243  -0.100  -1.310  0.00  0.00    +0.162 C 
ATOM      8  C   UNL     1      -6.959   0.503  -2.489  0.00  0.00    +0.080 C 
ATOM      9  C   UNL     1      -6.849  -0.447  -3.686  0.00  0.00    +0.014 C 
ATOM     10  C   UNL     1      -7.438  -1.796  -3.292  0.00  0.00    +0.056 C 
ATOM     11  O   UNL     1      -5.689   0.713  -0.388  0.00  0.00    -0.292 OA
ENDROOT
BRANCH   1  15
ATOM     12  C   UNL     1      -1.412  -0.526   0.013  0.00  0.00    -0.045 A 
ATOM     13  C   UNL     1      -2.259  -0.204   1.056  0.00  0.00    +0.004 A 
ATOM     14  C   UNL     1      -3.556  -0.683   1.066  0.00  0.00    +0.005 A 
ATOM     15  C   UNL     1      -4.006  -1.482   0.032  0.00  0.00    -0.035 A 
ATOM     16  C   UNL     1      -3.159  -1.803  -1.012  0.00  0.00    +0.005 A 
ATOM     17  C   UNL     1      -1.863  -1.321  -1.024  0.00  0.00    +0.004 A 
BRANCH  12  19
ATOM     18  C   UNL     1      -0.019   1.526   0.010  0.00  0.00    +0.012 C 
ATOM     19  C   UNL     1       0.002  -0.004   0.002  0.00  0.00    +0.013 C 
ATOM     20  C   UNL     1       0.742  -0.511   1.242  0.00  0.00    +0.012 C 
ENDBRANCH  12  19
ENDBRANCH   1  15
BRANCH   3  21
ATOM     21  S   UNL     1      -5.937  -5.988  -0.861  0.00  0.00    -0.108 S 
ATOM     22  C   UNL     1      -6.837  -6.483  -2.356  0.00  0.00    +0.091 C 
ENDBRANCH   3  21
BRANCH   2  23
ATOM     23  C   UNL     1      -4.706  -4.191   1.198  0.00  0.00    +0.098 C 
ATOM     24  N   UNL     1      -4.184  -4.723   2.055  0.00  0.00    -0.191 NA
ENDBRANCH   2  23
TORSDOF 4
