REMARK  Name = ZINC63167691
REMARK  4 active torsions:
REMARK  status: ('A' for Active; 'I' for Inactive)
REMARK    1  A    between atoms: C_1  and  N_2
REMARK    2  A    between atoms: N_2  and  C_3
REMARK    3  A    between atoms: C_3  and  C_4
REMARK    4  A    between atoms: C_11  and  C_13
REMARK                            x       y       z     vdW  Elec       q    Type
REMARK                         _______ _______ _______ _____ _____    ______ ____
ROOT
ATOM      1  C   UNL     1       0.529  -1.707  -2.091  0.00  0.00    +0.059 C 
ATOM      2  C   UNL     1       0.835  -1.167  -3.491  0.00  0.00    +0.021 C 
ATOM      3  C   UNL     1       0.478  -2.231  -4.533  0.00  0.00    +0.003 C 
ATOM      4  C   UNL     1      -1.018  -2.545  -4.452  0.00  0.00    +0.019 C 
ATOM      5  C   UNL     1      -1.344  -3.100  -3.062  0.00  0.00    +0.108 C 
ATOM      6  N   UNL     1      -0.872  -2.149  -2.047  0.00  0.00    -0.296 N 
ATOM      7  C   UNL     1      -1.708  -1.688  -1.095  0.00  0.00    +0.247 C 
ATOM      8  O   UNL     1      -1.336  -0.823  -0.328  0.00  0.00    -0.270 OA
ENDROOT
BRANCH   7   9
ATOM      9  C   UNL     1      -3.083  -2.238  -0.985  0.00  0.00    +0.047 A 
ATOM     10  C   UNL     1      -3.328  -3.590  -1.233  0.00  0.00    +0.083 A 
ATOM     11  C   UNL     1      -4.622  -4.081  -1.124  0.00  0.00    +0.252 A 
ATOM     12  N   UNL     1      -5.641  -3.260  -0.781  0.00  0.00    -0.290 N 
ATOM     13  C   UNL     1      -5.428  -1.948  -0.536  0.00  0.00    +0.252 A 
ATOM     14  C   UNL     1      -4.150  -1.412  -0.626  0.00  0.00    +0.083 A 
ATOM     15  O   UNL     1      -6.456  -1.160  -0.198  0.00  0.00    -0.268 OA
ATOM     16  O   UNL     1      -4.863  -5.377  -1.360  0.00  0.00    -0.268 OA
ATOM     17  H   UNL     1      -6.539  -3.619  -0.709  0.00  0.00    +0.172 HD
ENDBRANCH   7   9
BRANCH   1  18
ATOM     18  C   UNL     1       0.751  -0.603  -1.056  0.00  0.00    -0.060 C 
BRANCH  18  20
ATOM     19  C   UNL     1       2.397   0.802  -0.021  0.00  0.00    -0.100 C 
ATOM     20  N   UNL     1       2.154  -0.168  -1.097  0.00  0.00    +0.378 N 
ATOM     21  H   UNL     1       2.346   0.263  -1.989  0.00  0.00    -0.086 HD
ATOM     22  H   UNL     1       2.757  -0.967  -0.972  0.00  0.00    -0.086 HD
ENDBRANCH  18  20
ENDBRANCH   1  18
TORSDOF 3
