REMARK  Name = ZINC08670818
REMARK  5 active torsions:
REMARK  status: ('A' for Active; 'I' for Inactive)
REMARK    1  A    between atoms: C_1  and  C_2
REMARK    2  A    between atoms: C_2  and  N_3
REMARK    3  A    between atoms: C_14  and  C_25
REMARK    4  A    between atoms: C_20  and  N_24
REMARK    5  A    between atoms: C_21  and  C_22
REMARK                            x       y       z     vdW  Elec       q    Type
REMARK                         _______ _______ _______ _____ _____    ______ ____
ROOT
ATOM      1  N   UNL     1      -1.073  -0.485  -0.720  0.00  0.00    -0.270 N 
ATOM      2  C   UNL     1      -1.785  -0.434   0.466  0.00  0.00    +0.041 A 
ATOM      3  C   UNL     1      -1.361  -0.048   1.738  0.00  0.00    +0.024 A 
ATOM      4  C   UNL     1      -2.297  -0.095   2.760  0.00  0.00    +0.002 A 
ATOM      5  C   UNL     1      -3.596  -0.503   2.542  0.00  0.00    +0.000 A 
ATOM      6  C   UNL     1      -4.032  -0.890   1.279  0.00  0.00    +0.007 A 
ATOM      7  C   UNL     1      -3.107  -0.845   0.258  0.00  0.00    -0.001 A 
ATOM      8  C   UNL     1      -3.216  -1.178  -1.196  0.00  0.00    +0.145 C 
ATOM      9  C   UNL     1      -1.835  -0.908  -1.750  0.00  0.00    +0.240 C 
ATOM     10  O   UNL     1      -1.479  -1.048  -2.901  0.00  0.00    -0.274 OA
ATOM     11  C   UNL     1      -3.595  -2.618  -1.402  0.00  0.00    +0.066 A 
ATOM     12  C   UNL     1      -2.891  -3.748  -1.153  0.00  0.00    +0.074 A 
ATOM     13  N   UNL     1      -3.679  -4.804  -1.514  0.00  0.00    -0.273 N 
ATOM     14  H   UNL     1      -3.440  -5.742  -1.449  0.00  0.00    +0.189 HD
ATOM     15  N   UNL     1      -4.894  -4.292  -1.993  0.00  0.00    -0.135 NA
ATOM     16  C   UNL     1      -4.849  -2.992  -1.929  0.00  0.00    +0.246 A 
ATOM     17  O   UNL     1      -5.785  -2.069  -2.280  0.00  0.00    -0.421 OA
ATOM     18  C   UNL     1      -5.399  -0.781  -2.361  0.00  0.00    +0.201 C 
ATOM     19  C   UNL     1      -4.228  -0.303  -1.883  0.00  0.00    +0.110 C 
ENDROOT
BRANCH  12  20
ATOM     20  C   UNL     1      -1.522  -3.824  -0.596  0.00  0.00    +0.000 A 
ATOM     21  C   UNL     1      -1.218  -3.180   0.604  0.00  0.00    +0.011 A 
ATOM     22  C   UNL     1       0.060  -3.254   1.119  0.00  0.00    +0.020 A 
ATOM     23  C   UNL     1       1.039  -3.966   0.448  0.00  0.00    +0.041 A 
ATOM     24  C   UNL     1       0.743  -4.607  -0.743  0.00  0.00    +0.020 A 
ATOM     25  C   UNL     1      -0.533  -4.545  -1.265  0.00  0.00    +0.011 A 
ATOM     26 CL   UNL     1       2.645  -4.056   1.102  0.00  0.00    -0.084 Cl
ENDBRANCH  12  20
BRANCH  18  27
ATOM     27  N   UNL     1      -6.251   0.106  -2.970  0.00  0.00    -0.328 N 
ATOM     28  H   UNL     1      -7.100  -0.202  -3.324  0.00  0.00    +0.145 HD
ATOM     29  H   UNL     1      -6.005   1.041  -3.046  0.00  0.00    +0.145 HD
ENDBRANCH  18  27
BRANCH   1  31
ATOM     30  C   UNL     1       0.452   1.375  -1.166  0.00  0.00    +0.025 C 
ATOM     31  C   UNL     1       0.340  -0.117  -0.843  0.00  0.00    +0.110 C 
ENDBRANCH   1  31
BRANCH  19  32
ATOM     32  C   UNL     1      -3.940   1.091  -2.036  0.00  0.00    +0.102 C 
ATOM     33  N   UNL     1      -3.712   2.197  -2.158  0.00  0.00    -0.191 NA
ENDBRANCH  19  32
TORSDOF 4
