REMARK  Name = ZINC39467548
REMARK  8 active torsions:
REMARK  status: ('A' for Active; 'I' for Inactive)
REMARK    1  A    between atoms: C_1  and  C_2
REMARK    2  A    between atoms: C_2  and  O_3
REMARK    3  A    between atoms: O_3  and  C_4
REMARK    4  A    between atoms: P_13  and  C_32
REMARK    5  A    between atoms: C_21  and  S_22
REMARK    6  A    between atoms: S_22  and  O_25
REMARK    7  A    between atoms: O_25  and  C_26
REMARK    8  A    between atoms: C_37  and  O_38
REMARK                            x       y       z     vdW  Elec       q    Type
REMARK                         _______ _______ _______ _____ _____    ______ ____
ROOT
ATOM      1  C   UNL     1       0.534  -2.128  -1.751  0.00  0.00    +0.145 C 
ATOM      2  C   UNL     1      -0.084  -3.090  -1.053  0.00  0.00    +0.024 C 
ATOM      3  C   UNL     1       0.025  -4.512  -1.530  0.00  0.00    +0.019 C 
ATOM      4  C   UNL     1      -1.126  -5.367  -1.012  0.00  0.00    -0.002 C 
ATOM      5  C   UNL     1      -0.988  -6.795  -1.559  0.00  0.00    -0.020 C 
ATOM      6  C   UNL     1      -2.178  -7.604  -1.029  0.00  0.00    +0.157 C 
ATOM      7  O   UNL     1      -2.046  -8.976  -1.443  0.00  0.00    -0.316 OA
ATOM      8  P   UNL     1      -1.753  -9.266  -3.017  0.00  0.00    +0.291 P 
ATOM      9  O   UNL     1      -3.010  -9.193  -3.795  0.00  0.00    -0.269 OA
ATOM     10  N   UNL     1      -0.715  -8.073  -3.493  0.00  0.00    -0.288 NA
ATOM     11  N   UNL     1      -0.969  -6.801  -3.022  0.00  0.00    +0.398 N 
ATOM     12  C   UNL     1       0.120  -5.959  -3.550  0.00  0.00    -0.046 C 
ATOM     13  C   UNL     1      -0.029  -4.524  -3.064  0.00  0.00    +0.006 C 
ATOM     14  C   UNL     1       1.050  -3.623  -3.597  0.00  0.00    +0.009 C 
ATOM     15  C   UNL     1       1.306  -2.484  -2.958  0.00  0.00    +0.165 C 
ATOM     16  H   UNL     1       0.031  -8.262  -4.084  0.00  0.00    +0.111 HD
ATOM     17  H   UNL     1      -1.855  -6.467  -3.371  0.00  0.00    -0.055 HD
ENDROOT
BRANCH   8  18
ATOM     18  C   UNL     1      -0.981 -10.895  -3.224  0.00  0.00    +0.091 A 
ATOM     19  C   UNL     1       0.395 -11.018  -3.187  0.00  0.00    +0.018 A 
ATOM     20  C   UNL     1       0.983 -12.259  -3.344  0.00  0.00    +0.001 A 
ATOM     21  C   UNL     1       0.197 -13.380  -3.538  0.00  0.00    +0.004 A 
ATOM     22  C   UNL     1      -1.179 -13.262  -3.575  0.00  0.00    +0.046 A 
ATOM     23  C   UNL     1      -1.772 -12.019  -3.412  0.00  0.00    +0.131 A 
BRANCH  23  24
ATOM     24  O   UNL     1      -3.126 -11.901  -3.443  0.00  0.00    -0.506 OA
ATOM     25  H   UNL     1      -3.487 -11.742  -4.325  0.00  0.00    +0.292 HD
ENDBRANCH  23  24
ENDBRANCH   8  18
BRANCH  15  26
ATOM     26  S   UNL     1       2.568  -1.407  -3.550  0.00  0.00    +0.154 S 
ATOM     27  O   UNL     1       3.074  -1.990  -4.743  0.00  0.00    -0.131 OA
ATOM     28  O   UNL     1       2.030  -0.092  -3.514  0.00  0.00    -0.131 OA
BRANCH  26  29
ATOM     29  O   UNL     1       3.702  -1.440  -2.535  0.00  0.00    -0.342 OA
BRANCH  29  30
ATOM     30  C   UNL     1       4.441  -2.580  -2.569  0.00  0.00    +0.157 A 
ATOM     31  C   UNL     1       4.085  -3.663  -1.778  0.00  0.00    +0.048 A 
ATOM     32  C   UNL     1       4.837  -4.821  -1.815  0.00  0.00    +0.004 A 
ATOM     33  C   UNL     1       5.945  -4.901  -2.639  0.00  0.00    +0.000 A 
ATOM     34  C   UNL     1       6.302  -3.823  -3.428  0.00  0.00    +0.004 A 
ATOM     35  C   UNL     1       5.549  -2.665  -3.399  0.00  0.00    +0.048 A 
ENDBRANCH  29  30
ENDBRANCH  26  29
ENDBRANCH  15  26
BRANCH   1  36
ATOM     36  O   UNL     1       0.445  -0.832  -1.354  0.00  0.00    -0.491 OA
BRANCH  36  38
ATOM     37  C   UNL     1      -0.211   0.927   0.168  0.00  0.00    +0.048 C 
ATOM     38  C   UNL     1      -0.225  -0.576  -0.118  0.00  0.00    +0.226 C 
ENDBRANCH  36  38
ENDBRANCH   1  36
TORSDOF 7
