REMARK  Name = ZINC57698798
REMARK  11 active torsions:
REMARK  status: ('A' for Active; 'I' for Inactive)
REMARK    1  A    between atoms: C_1  and  C_2
REMARK    2  A    between atoms: C_5  and  C_8
REMARK    3  A    between atoms: C_8  and  C_10
REMARK    4  A    between atoms: C_8  and  N_26
REMARK    5  A    between atoms: C_10  and  C_11
REMARK    6  A    between atoms: N_13  and  N_14
REMARK    7  A    between atoms: C_15  and  C_17
REMARK    8  A    between atoms: C_17  and  N_18
REMARK    9  A    between atoms: N_18  and  C_19
REMARK   10  A    between atoms: C_22  and  C_25
REMARK   11  A    between atoms: C_27  and  C_29
REMARK                            x       y       z     vdW  Elec       q    Type
REMARK                         _______ _______ _______ _____ _____    ______ ____
ROOT
ATOM      1  C   UNL     1      -1.198  -6.412   0.032  0.00  0.00    +0.231 C 
ATOM      2  O   UNL     1      -0.149  -6.902  -0.329  0.00  0.00    -0.274 OA
ATOM      3  N   UNL     1      -2.277  -7.196   0.223  0.00  0.00    -0.234 N 
ATOM      4  H   UNL     1      -3.116  -6.805   0.512  0.00  0.00    +0.173 HD
ENDROOT
BRANCH   3   5
ATOM      5  N   UNL     1      -2.187  -8.577   0.005  0.00  0.00    -0.233 N 
ATOM      6  C   UNL     1      -3.266  -9.362   0.197  0.00  0.00    +0.246 C 
ATOM      7  O   UNL     1      -4.315  -8.872   0.558  0.00  0.00    -0.273 OA
ATOM      8  H   UNL     1      -1.347  -8.969  -0.283  0.00  0.00    +0.173 HD
BRANCH   6   9
ATOM      9  C   UNL     1      -3.168 -10.847  -0.037  0.00  0.00    +0.199 C 
BRANCH   9  10
ATOM     10  N   UNL     1      -4.465 -11.471   0.238  0.00  0.00    -0.335 N 
ATOM     11  H   UNL     1      -5.215 -10.925   0.523  0.00  0.00    +0.147 HD
BRANCH  10  12
ATOM     12  C   UNL     1      -4.622 -12.851   0.089  0.00  0.00    +0.028 A 
ATOM     13  C   UNL     1      -3.548 -13.634  -0.313  0.00  0.00    +0.023 A 
ATOM     14  C   UNL     1      -3.707 -14.998  -0.459  0.00  0.00    +0.005 A 
ATOM     15  C   UNL     1      -4.933 -15.584  -0.204  0.00  0.00    -0.050 A 
ATOM     16  C   UNL     1      -6.004 -14.807   0.197  0.00  0.00    +0.005 A 
ATOM     17  C   UNL     1      -5.851 -13.444   0.350  0.00  0.00    +0.023 A 
ATOM     18  C   UNL     1      -5.103 -17.073  -0.365  0.00  0.00    +0.044 C 
ENDBRANCH  10  12
ENDBRANCH   9  10
ENDBRANCH   6   9
ENDBRANCH   3   5
BRANCH   1  19
ATOM     19  C   UNL     1      -1.295  -4.926   0.266  0.00  0.00    +0.124 C 
BRANCH  19  20
ATOM     20  C   UNL     1       0.059  -4.275  -0.021  0.00  0.00    +0.112 C 
BRANCH  20  25
ATOM     21  C   UNL     1      -0.428   1.466   0.418  0.00  0.00    +0.044 C 
ATOM     22  C   UNL     1      -0.301  -0.031   0.304  0.00  0.00    -0.050 A 
ATOM     23  C   UNL     1      -0.293  -0.813   1.443  0.00  0.00    +0.004 A 
ATOM     24  C   UNL     1      -0.177  -2.187   1.338  0.00  0.00    +0.006 A 
ATOM     25  C   UNL     1      -0.069  -2.778   0.093  0.00  0.00    -0.027 A 
ATOM     26  C   UNL     1      -0.077  -1.996  -1.046  0.00  0.00    +0.006 A 
ATOM     27  C   UNL     1      -0.198  -0.623  -0.941  0.00  0.00    +0.004 A 
ENDBRANCH  20  25
BRANCH  20  28
ATOM     28  N   UNL     1       1.048  -4.756   0.947  0.00  0.00    -0.308 N 
ATOM     29  C   UNL     1       2.356  -4.771   0.624  0.00  0.00    +0.210 C 
ATOM     30  O   UNL     1       2.725  -4.303  -0.432  0.00  0.00    -0.276 OA
ATOM     31  C   UNL     1       3.360  -5.370   1.575  0.00  0.00    +0.109 C 
ATOM     32  H   UNL     1       0.760  -5.064   1.821  0.00  0.00    +0.149 HD
ENDBRANCH  20  28
ENDBRANCH  19  20
ENDBRANCH   1  19
TORSDOF 8
