REMARK  Name = ZINC50831040
REMARK  6 active torsions:
REMARK  status: ('A' for Active; 'I' for Inactive)
REMARK    1  A    between atoms: C_1  and  N_2
REMARK    2  A    between atoms: N_2  and  C_3
REMARK    3  A    between atoms: C_6  and  N_18
REMARK    4  A    between atoms: C_8  and  C_9
REMARK    5  A    between atoms: C_9  and  O_10
REMARK    6  A    between atoms: O_10  and  C_11
REMARK                            x       y       z     vdW  Elec       q    Type
REMARK                         _______ _______ _______ _____ _____    ______ ____
ROOT
ATOM      1  C   UNL     1      -1.198  -0.719   0.010  0.00  0.00    +0.033 A 
ATOM      2  C   UNL     1      -2.411  -0.042   0.019  0.00  0.00    +0.025 A 
ATOM      3  C   UNL     1      -3.596  -0.752   0.026  0.00  0.00    +0.034 A 
ATOM      4  C   UNL     1      -3.575  -2.135   0.024  0.00  0.00    +0.127 A 
ATOM      5  C   UNL     1      -2.369  -2.811   0.015  0.00  0.00    +0.041 A 
ATOM      6  C   UNL     1      -1.181  -2.108   0.002  0.00  0.00    +0.013 A 
ENDROOT
BRANCH   1   8
ATOM      7  C   UNL     1      -0.018   1.461   0.010  0.00  0.00    +0.125 C 
ATOM      8  N   UNL     1       0.002  -0.004   0.002  0.00  0.00    -0.347 N 
ATOM      9  H   UNL     1       0.849  -0.478  -0.009  0.00  0.00    +0.146 HD
ENDBRANCH   1   8
BRANCH   4  10
ATOM     10  N   UNL     1      -4.847  -2.892   0.031  0.00  0.00    +0.056 N 
ATOM     11  O   UNL     1      -5.902  -2.302   0.040  0.00  0.00    -0.126 OA
ATOM     12  O   UNL     1      -4.830  -4.101   0.029  0.00  0.00    -0.126 OA
ENDBRANCH   4  10
BRANCH   6  13
ATOM     13  C   UNL     1       0.133  -2.846  -0.014  0.00  0.00    +0.266 C 
BRANCH  13  14
ATOM     14  O   UNL     1      -0.112  -4.254  -0.019  0.00  0.00    -0.487 OA
BRANCH  14  15
ATOM     15  C   UNL     1       0.976  -5.069  -0.034  0.00  0.00    +0.121 A 
ATOM     16  C   UNL     1       2.251  -4.525  -0.037  0.00  0.00    +0.048 A 
ATOM     17  C   UNL     1       3.356  -5.355  -0.051  0.00  0.00    +0.042 A 
ATOM     18  C   UNL     1       3.190  -6.729  -0.064  0.00  0.00    +0.124 A 
ATOM     19  C   UNL     1       1.917  -7.274  -0.061  0.00  0.00    +0.042 A 
ATOM     20  C   UNL     1       0.811  -6.446  -0.040  0.00  0.00    +0.048 A 
ATOM     21  F   UNL     1       4.270  -7.540  -0.078  0.00  0.00    -0.205 F 
ENDBRANCH  14  15
ENDBRANCH  13  14
ENDBRANCH   6  13
TORSDOF 5
