REMARK  Name = ZINC20222839
REMARK  5 active torsions:
REMARK  status: ('A' for Active; 'I' for Inactive)
REMARK    1  A    between atoms: C_1  and  C_2
REMARK    2  A    between atoms: C_6  and  O_8
REMARK    3  A    between atoms: O_8  and  C_9
REMARK    4  A    between atoms: C_9  and  C_10
REMARK    5  A    between atoms: C_16  and  N_19
REMARK                            x       y       z     vdW  Elec       q    Type
REMARK                         _______ _______ _______ _____ _____    ______ ____
ROOT
ATOM      1  C   UNL     1       0.978   7.358   0.029  0.00  0.00    +0.235 A 
ATOM      2  N   UNL     1       0.882   8.088   1.099  0.00  0.00    -0.210 NA
ATOM      3  C   UNL     1       0.689   9.384   0.731  0.00  0.00    +0.111 A 
ATOM      4  C   UNL     1       0.522  10.576   1.441  0.00  0.00    +0.032 A 
ATOM      5  C   UNL     1       0.344  11.759   0.761  0.00  0.00    +0.004 A 
ATOM      6  C   UNL     1       0.327  11.779  -0.625  0.00  0.00    +0.026 A 
ATOM      7  C   UNL     1       0.491  10.606  -1.345  0.00  0.00    +0.070 A 
ATOM      8  C   UNL     1       0.673   9.401  -0.670  0.00  0.00    +0.176 A 
ATOM      9  O   UNL     1       0.862   8.123  -1.067  0.00  0.00    -0.434 OA
ENDROOT
BRANCH   7  10
ATOM     10  N   UNL     1       0.474  10.632  -2.743  0.00  0.00    -0.355 N 
ATOM     11  H   UNL     1       0.604   9.700  -3.312  0.00  0.00    +0.142 HD
ATOM     12  H   UNL     1       0.331  11.585  -3.273  0.00  0.00    +0.142 HD
ENDBRANCH   7  10
BRANCH   1  13
ATOM     13  C   UNL     1       1.196   5.867   0.020  0.00  0.00    +0.324 C 
BRANCH  13  14
ATOM     14  O   UNL     1      -0.069   5.201   0.029  0.00  0.00    -0.483 OA
BRANCH  14  20
ATOM     15  C   UNL     1      -2.514   0.977   0.019  0.00  0.00    +0.044 C 
ATOM     16  C   UNL     1      -1.220   1.750   0.017  0.00  0.00    -0.047 A 
ATOM     17  C   UNL     1      -0.013   1.076   0.008  0.00  0.00    +0.003 A 
ATOM     18  C   UNL     1       1.176   1.782   0.000  0.00  0.00    +0.004 A 
ATOM     19  C   UNL     1       1.160   3.164   0.007  0.00  0.00    +0.045 A 
ATOM     20  C   UNL     1      -0.050   3.842   0.023  0.00  0.00    +0.121 A 
ATOM     21  C   UNL     1      -1.242   3.131   0.031  0.00  0.00    +0.049 A 
ENDBRANCH  14  20
ENDBRANCH  13  14
ENDBRANCH   1  13
TORSDOF 4
