REMARK  Name = ZINC16958603
REMARK  9 active torsions:
REMARK  status: ('A' for Active; 'I' for Inactive)
REMARK    1  A    between atoms: C_1  and  C_2
REMARK    2  A    between atoms: C_4  and  C_27
REMARK    3  A    between atoms: C_5  and  C_25
REMARK    4  A    between atoms: N_8  and  C_9
REMARK    5  A    between atoms: C_11  and  O_24
REMARK    6  A    between atoms: C_13  and  O_23
REMARK    7  A    between atoms: C_15  and  O_22
REMARK    8  A    between atoms: C_17  and  C_20
REMARK    9  A    between atoms: C_20  and  O_21
REMARK                            x       y       z     vdW  Elec       q    Type
REMARK                         _______ _______ _______ _____ _____    ______ ____
ROOT
ATOM      1  C   UNL     1       4.458  -5.133  -2.333  0.00  0.00    +0.063 C 
ATOM      2  C   UNL     1       4.086  -4.286  -1.143  0.00  0.00    +0.020 A 
ATOM      3  C   UNL     1       2.906  -3.627  -1.142  0.00  0.00    +0.031 A 
ATOM      4  C   UNL     1       2.547  -2.827  -0.037  0.00  0.00    +0.004 A 
ATOM      5  C   UNL     1       3.433  -2.743   1.052  0.00  0.00    +0.090 A 
ATOM      6  C   UNL     1       4.652  -3.461   0.993  0.00  0.00    +0.107 A 
ATOM      7  S   UNL     1       5.756  -3.383   2.299  0.00  0.00    -0.031 S 
ATOM      8  N   UNL     1       4.942  -4.204  -0.091  0.00  0.00    -0.309 N 
ENDROOT
BRANCH   4   9
ATOM      9  C   UNL     1       1.264  -2.098  -0.021  0.00  0.00    -0.009 A 
ATOM     10  C   UNL     1       0.063  -2.791  -0.013  0.00  0.00    +0.009 A 
ATOM     11  C   UNL     1      -1.148  -2.110   0.002  0.00  0.00    +0.001 A 
ATOM     12  C   UNL     1      -1.191  -0.748   0.009  0.00  0.00    +0.008 A 
ATOM     13  C   UNL     1       0.002  -0.004   0.002  0.00  0.00    -0.017 A 
ATOM     14  C   UNL     1       1.246  -0.680  -0.013  0.00  0.00    -0.010 A 
ATOM     15  C   UNL     1       2.434   0.062  -0.021  0.00  0.00    +0.009 A 
ATOM     16  C   UNL     1       2.380   1.424  -0.014  0.00  0.00    +0.001 A 
ATOM     17  C   UNL     1       1.157   2.091   0.002  0.00  0.00    +0.001 A 
ATOM     18  C   UNL     1      -0.017   1.401   0.010  0.00  0.00    +0.008 A 
ENDBRANCH   4   9
BRANCH   8  19
ATOM     19  C   UNL     1       6.207  -4.941  -0.137  0.00  0.00    +0.252 C 
ATOM     20  C   UNL     1       7.357  -3.966  -0.404  0.00  0.00    +0.195 C 
ATOM     21  C   UNL     1       8.682  -4.735  -0.392  0.00  0.00    +0.178 C 
ATOM     22  C   UNL     1       8.830  -5.453   0.953  0.00  0.00    +0.177 C 
ATOM     23  C   UNL     1       7.623  -6.371   1.168  0.00  0.00    +0.177 C 
ATOM     24  O   UNL     1       6.423  -5.598   1.114  0.00  0.00    -0.346 OA
BRANCH  22  25
ATOM     25  O   UNL     1      10.028  -6.232   0.949  0.00  0.00    -0.386 OA
ATOM     26  H   UNL     1      10.833  -5.715   0.813  0.00  0.00    +0.210 HD
ENDBRANCH  22  25
BRANCH  21  27
ATOM     27  O   UNL     1       9.766  -3.821  -0.567  0.00  0.00    -0.386 OA
ATOM     28  H   UNL     1      10.638  -4.241  -0.569  0.00  0.00    +0.210 HD
ENDBRANCH  21  27
BRANCH  20  29
ATOM     29  O   UNL     1       7.174  -3.351  -1.681  0.00  0.00    -0.385 OA
ATOM     30  H   UNL     1       7.868  -2.719  -1.916  0.00  0.00    +0.210 HD
ENDBRANCH  20  29
BRANCH  23  31
ATOM     31  C   UNL     1       7.734  -7.047   2.536  0.00  0.00    +0.190 C 
BRANCH  31  32
ATOM     32  O   UNL     1       6.671  -7.990   2.688  0.00  0.00    -0.392 OA
ATOM     33  H   UNL     1       6.678  -8.458   3.535  0.00  0.00    +0.210 HD
ENDBRANCH  31  32
ENDBRANCH  23  31
ENDBRANCH   8  19
BRANCH   5  34
ATOM     34  C   UNL     1       3.109  -1.947   2.198  0.00  0.00    +0.102 C 
ATOM     35  N   UNL     1       2.853  -1.316   3.107  0.00  0.00    -0.191 NA
ENDBRANCH   5  34
TORSDOF 8
