REMARK  Name = ZINC49402954
REMARK  6 active torsions:
REMARK  status: ('A' for Active; 'I' for Inactive)
REMARK    1  A    between atoms: C_1  and  C_2
REMARK    2  A    between atoms: C_5  and  C_8
REMARK    3  A    between atoms: N_16  and  C_20
REMARK    4  A    between atoms: C_20  and  C_21
REMARK    5  A    between atoms: N_23  and  C_24
REMARK    6  A    between atoms: C_27  and  C_31
REMARK                            x       y       z     vdW  Elec       q    Type
REMARK                         _______ _______ _______ _____ _____    ______ ____
ROOT
ATOM      1  C   UNL     1       0.055  -4.275  -0.023  0.00  0.00    +0.144 C 
ATOM      2  C   UNL     1      -1.370  -4.756   0.152  0.00  0.00    +0.082 C 
ATOM      3  C   UNL     1      -1.639  -5.560   1.203  0.00  0.00    +0.065 C 
ATOM      4  C   UNL     1      -3.115  -5.876   1.123  0.00  0.00    +0.284 C 
ATOM      5  O   UNL     1      -3.590  -5.182  -0.037  0.00  0.00    -0.455 OA
ATOM      6  C   UNL     1      -2.546  -4.534  -0.588  0.00  0.00    +0.339 C 
ATOM      7  O   UNL     1      -2.610  -3.848  -1.591  0.00  0.00    -0.245 OA
ATOM      8  N   UNL     1      -0.659  -5.928   2.080  0.00  0.00    -0.247 N 
ATOM      9  C   UNL     1       0.616  -5.532   1.973  0.00  0.00    +0.307 C 
ATOM     10  O   UNL     1       1.419  -5.910   2.803  0.00  0.00    -0.252 OA
ATOM     11  N   UNL     1       1.037  -4.728   0.978  0.00  0.00    -0.288 N 
ATOM     12  H   UNL     1       1.966  -4.454   0.921  0.00  0.00    +0.151 HD
ENDROOT
BRANCH   1  17
ATOM     13  C   UNL     1      -0.000   1.503   0.017  0.00  0.00    +0.044 C 
ATOM     14  C   UNL     1       0.014  -0.004   0.007  0.00  0.00    -0.050 A 
ATOM     15  C   UNL     1       0.008  -0.687  -1.195  0.00  0.00    +0.004 A 
ATOM     16  C   UNL     1       0.021  -2.069  -1.204  0.00  0.00    +0.006 A 
ATOM     17  C   UNL     1       0.042  -2.768  -0.012  0.00  0.00    -0.022 A 
ATOM     18  C   UNL     1       0.049  -2.085   1.190  0.00  0.00    +0.006 A 
ATOM     19  C   UNL     1       0.040  -0.703   1.199  0.00  0.00    +0.004 A 
ENDBRANCH   1  17
BRANCH   8  20
ATOM     20  C   UNL     1      -1.023  -6.802   3.198  0.00  0.00    +0.211 C 
BRANCH  20  21
ATOM     21  C   UNL     1      -0.861  -8.241   2.783  0.00  0.00    +0.235 C 
ATOM     22  O   UNL     1      -0.479  -8.511   1.663  0.00  0.00    -0.274 OA
ATOM     23  N   UNL     1      -1.139  -9.230   3.656  0.00  0.00    -0.284 N 
ATOM     24  H   UNL     1      -1.380  -9.015   4.571  0.00  0.00    +0.155 HD
BRANCH  23  25
ATOM     25  C   UNL     1      -1.082 -10.565   3.242  0.00  0.00    +0.035 A 
ATOM     26  C   UNL     1      -1.982 -11.491   3.754  0.00  0.00    +0.023 A 
ATOM     27  C   UNL     1      -1.924 -12.809   3.344  0.00  0.00    +0.006 A 
ATOM     28  C   UNL     1      -0.971 -13.207   2.424  0.00  0.00    -0.032 A 
ATOM     29  C   UNL     1      -0.073 -12.287   1.912  0.00  0.00    +0.046 A 
ATOM     30  C   UNL     1      -0.130 -10.966   2.315  0.00  0.00    +0.043 A 
ATOM     31 CL   UNL     1       1.122 -12.792   0.758  0.00  0.00    -0.083 Cl
ATOM     32  C   UNL     1      -0.910 -14.646   1.980  0.00  0.00    +0.045 C 
ENDBRANCH  23  25
ENDBRANCH  20  21
ENDBRANCH   8  20
TORSDOF 4
