REMARK  Name = ZINC11158378
REMARK  6 active torsions:
REMARK  status: ('A' for Active; 'I' for Inactive)
REMARK    1  A    between atoms: C_1  and  C_2
REMARK    2  A    between atoms: C_2  and  C_3
REMARK    3  A    between atoms: C_3  and  O_4
REMARK    4  A    between atoms: O_4  and  C_5
REMARK    5  A    between atoms: C_10  and  C_14
REMARK    6  A    between atoms: C_14  and  C_16
REMARK                            x       y       z     vdW  Elec       q    Type
REMARK                         _______ _______ _______ _____ _____    ______ ____
ROOT
ATOM      1  C   UNL     1       1.159   7.530   0.092  0.00  0.00    +0.228 C 
ATOM      2  O   UNL     1       0.138   8.137   0.361  0.00  0.00    -0.283 OA
ENDROOT
BRANCH   1   3
ATOM      3  C   UNL     1       1.157   6.054   0.073  0.00  0.00    +0.026 A 
ATOM      4  C   UNL     1       2.290   5.357  -0.358  0.00  0.00    +0.013 A 
ATOM      5  C   UNL     1       2.285   3.981  -0.375  0.00  0.00    +0.024 A 
ATOM      6  C   UNL     1       1.154   3.282   0.037  0.00  0.00    +0.037 A 
ATOM      7  C   UNL     1       0.025   3.973   0.468  0.00  0.00    -0.025 A 
ATOM      8  C   UNL     1       0.023   5.349   0.486  0.00  0.00    +0.017 A 
ATOM      9  C   UNL     1      -1.196   3.210   0.913  0.00  0.00    +0.046 C 
ATOM     10  C   UNL     1      -1.328   1.931   0.079  0.00  0.00    +0.101 C 
ATOM     11  C   UNL     1      -0.009   1.207   0.049  0.00  0.00    +0.218 C 
ATOM     12  O   UNL     1       0.009  -0.005   0.045  0.00  0.00    -0.275 OA
ATOM     13  N   UNL     1       1.151   1.889   0.019  0.00  0.00    -0.285 N 
ATOM     14  H   UNL     1       1.992   1.406  -0.014  0.00  0.00    +0.155 HD
ENDBRANCH   1   3
BRANCH   1  20
ATOM     15  C   UNL     1       6.517   9.823  -1.327  0.00  0.00    +0.124 A 
ATOM     16  C   UNL     1       5.915  11.044  -1.025  0.00  0.00    +0.046 A 
ATOM     17  C   UNL     1       4.612  11.090  -0.622  0.00  0.00    +0.015 A 
ATOM     18  C   UNL     1       3.874   9.906  -0.511  0.00  0.00    +0.021 A 
ATOM     19  C   UNL     1       2.539   9.616  -0.135  0.00  0.00    +0.061 A 
ATOM     20  C   UNL     1       2.391   8.266  -0.214  0.00  0.00    +0.176 A 
ATOM     21  O   UNL     1       3.552   7.708  -0.622  0.00  0.00    -0.451 OA
ATOM     22  C   UNL     1       4.478   8.670  -0.813  0.00  0.00    +0.139 A 
ATOM     23  C   UNL     1       5.804   8.642  -1.222  0.00  0.00    +0.092 A 
BRANCH  15  24
ATOM     24  O   UNL     1       7.815   9.793  -1.726  0.00  0.00    -0.492 OA
BRANCH  24  25
ATOM     25  C   UNL     1       8.495  11.047  -1.814  0.00  0.00    +0.229 C 
BRANCH  25  27
ATOM     26  C   UNL     1      10.664  12.156  -2.371  0.00  0.00    +0.007 C 
ATOM     27  C   UNL     1       9.935  10.814  -2.277  0.00  0.00    +0.038 C 
ENDBRANCH  25  27
ENDBRANCH  24  25
ENDBRANCH  15  24
ENDBRANCH   1  20
TORSDOF 5
