REMARK  Name = ZINC67295148
REMARK  4 active torsions:
REMARK  status: ('A' for Active; 'I' for Inactive)
REMARK    1  A    between atoms: C_1  and  C_2
REMARK    2  A    between atoms: C_5  and  N_8
REMARK    3  A    between atoms: C_10  and  C_20
REMARK    4  A    between atoms: C_26  and  C_29
REMARK                            x       y       z     vdW  Elec       q    Type
REMARK                         _______ _______ _______ _____ _____    ______ ____
ROOT
ATOM      1  N   UNL     1       0.438  -4.564  -0.715  0.00  0.00    -0.325 N 
ATOM      2  C   UNL     1       0.984  -4.851   0.447  0.00  0.00    +0.212 A 
ATOM      3  C   UNL     1       0.743  -6.153   1.101  0.00  0.00    +0.098 A 
ATOM      4  C   UNL     1       1.726  -6.619   1.964  0.00  0.00    +0.030 A 
ATOM      5  C   UNL     1       2.912  -5.780   2.149  0.00  0.00    +0.020 A 
ATOM      6  C   UNL     1       4.055  -6.285   2.781  0.00  0.00    +0.031 A 
ATOM      7  C   UNL     1       5.158  -5.475   2.939  0.00  0.00    +0.042 A 
ATOM      8  C   UNL     1       5.141  -4.166   2.476  0.00  0.00    +0.023 A 
ATOM      9  C   UNL     1       4.020  -3.655   1.854  0.00  0.00    +0.048 A 
ATOM     10  C   UNL     1       2.897  -4.451   1.685  0.00  0.00    +0.138 A 
ATOM     11  O   UNL     1       1.792  -3.962   1.078  0.00  0.00    -0.439 OA
ATOM     12 CL   UNL     1       6.578  -6.095   3.722  0.00  0.00    -0.084 Cl
ATOM     13  H   UNL     1      -0.050  -5.246  -1.203  0.00  0.00    +0.169 HD
ENDROOT
BRANCH   3  14
ATOM     14  C   UNL     1      -0.486  -6.923   0.848  0.00  0.00    +0.254 C 
ATOM     15  O   UNL     1      -0.604  -8.046   1.301  0.00  0.00    -0.270 OA
ATOM     16  N   UNL     1      -1.481  -6.385   0.115  0.00  0.00    -0.266 N 
ATOM     17  C   UNL     1      -2.672  -7.084  -0.064  0.00  0.00    +0.125 A 
ATOM     18  C   UNL     1      -2.699  -8.461   0.132  0.00  0.00    +0.044 A 
ATOM     19  C   UNL     1      -3.888  -9.143  -0.049  0.00  0.00    +0.008 A 
ATOM     20  C   UNL     1      -5.015  -8.423  -0.422  0.00  0.00    -0.032 A 
ATOM     21  C   UNL     1      -4.916  -7.057  -0.600  0.00  0.00    +0.116 A 
ATOM     22  N   UNL     1      -3.769  -6.432  -0.414  0.00  0.00    -0.240 NA
ATOM     23  C   UNL     1      -6.332  -9.124  -0.631  0.00  0.00    +0.045 C 
ATOM     24  H   UNL     1      -1.367  -5.510  -0.288  0.00  0.00    +0.157 HD
ENDBRANCH   3  14
BRANCH   1  29
ATOM     25  C   UNL     1       0.929   0.633  -2.859  0.00  0.00    +0.044 C 
ATOM     26  C   UNL     1       0.798  -0.755  -2.287  0.00  0.00    -0.050 A 
ATOM     27  C   UNL     1       1.004  -1.857  -3.098  0.00  0.00    +0.005 A 
ATOM     28  C   UNL     1       0.886  -3.130  -2.581  0.00  0.00    +0.026 A 
ATOM     29  C   UNL     1       0.557  -3.305  -1.234  0.00  0.00    +0.042 A 
ATOM     30  C   UNL     1       0.351  -2.188  -0.421  0.00  0.00    +0.026 A 
ATOM     31  C   UNL     1       0.478  -0.921  -0.951  0.00  0.00    +0.005 A 
ENDBRANCH   1  29
TORSDOF 2
