REMARK  Name = ZINC46896891
REMARK  8 active torsions:
REMARK  status: ('A' for Active; 'I' for Inactive)
REMARK    1  A    between atoms: C_1  and  C_2
REMARK    2  A    between atoms: C_2  and  C_3
REMARK    3  A    between atoms: C_2  and  C_4
REMARK    4  A    between atoms: C_2  and  C_5
REMARK    5  A    between atoms: C_5  and  C_7
REMARK    6  A    between atoms: C_5  and  N_13
REMARK    7  A    between atoms: N_16  and  N_17
REMARK    8  A    between atoms: C_18  and  C_20
REMARK                            x       y       z     vdW  Elec       q    Type
REMARK                         _______ _______ _______ _____ _____    ______ ____
ROOT
ATOM      1  N   UNL     1       0.010  -0.012  -2.444  0.00  0.00    -0.291 N 
ATOM      2  C   UNL     1      -1.042  -0.701  -2.929  0.00  0.00    +0.316 C 
ATOM      3  O   UNL     1      -1.404  -1.724  -2.381  0.00  0.00    -0.251 OA
ATOM      4  N   UNL     1      -1.694  -0.254  -4.021  0.00  0.00    -0.218 N 
ATOM      5  H   UNL     1       0.298   0.805  -2.880  0.00  0.00    +0.151 HD
ATOM      6  H   UNL     1      -2.452  -0.750  -4.370  0.00  0.00    +0.174 HD
ENDROOT
BRANCH   4   7
ATOM      7  N   UNL     1      -1.278   0.926  -4.651  0.00  0.00    -0.233 N 
ATOM      8  C   UNL     1      -1.930   1.372  -5.743  0.00  0.00    +0.234 C 
ATOM      9  O   UNL     1      -2.877   0.752  -6.180  0.00  0.00    -0.274 OA
ATOM     10  H   UNL     1      -0.521   1.421  -4.302  0.00  0.00    +0.173 HD
BRANCH   8  11
ATOM     11  C   UNL     1      -1.482   2.641  -6.422  0.00  0.00    +0.099 C 
ATOM     12  C   UNL     1      -0.032   2.477  -6.906  0.00  0.00    +0.037 C 
ATOM     13  C   UNL     1       0.295   3.658  -7.864  0.00  0.00    +0.166 C 
ATOM     14  S   UNL     1      -1.281   3.770  -8.812  0.00  0.00    -0.030 S 
ATOM     15  O   UNL     1      -1.172   2.975  -9.984  0.00  0.00    -0.174 OA
ATOM     16  O   UNL     1      -1.655   5.136  -8.925  0.00  0.00    -0.174 OA
ATOM     17  C   UNL     1      -2.410   2.935  -7.626  0.00  0.00    +0.178 C 
ENDBRANCH   8  11
ENDBRANCH   4   7
BRANCH   1  18
ATOM     18  C   UNL     1       0.718  -0.497  -1.257  0.00  0.00    +0.110 C 
BRANCH  18  19
ATOM     19  C   UNL     1       2.132   0.024  -1.268  0.00  0.00    -0.027 A 
ATOM     20  C   UNL     1       2.387   1.323  -1.667  0.00  0.00    +0.005 A 
ATOM     21  C   UNL     1       3.683   1.801  -1.677  0.00  0.00    +0.000 A 
ATOM     22  C   UNL     1       4.726   0.981  -1.287  0.00  0.00    +0.000 A 
ATOM     23  C   UNL     1       4.471  -0.317  -0.886  0.00  0.00    +0.000 A 
ATOM     24  C   UNL     1       3.174  -0.794  -0.872  0.00  0.00    +0.005 A 
ENDBRANCH  18  19
BRANCH  18  26
ATOM     25  C   UNL     1      -0.019   1.526   0.010  0.00  0.00    +0.013 C 
ATOM     26  C   UNL     1       0.002  -0.004   0.002  0.00  0.00    -0.015 C 
ATOM     27  C   UNL     1       0.742  -0.511   1.242  0.00  0.00    +0.013 C 
ATOM     28  C   UNL     1      -1.433  -0.534   0.013  0.00  0.00    +0.013 C 
ENDBRANCH  18  26
ENDBRANCH   1  18
TORSDOF 5
