REMARK  Name = ZINC56160461
REMARK  11 active torsions:
REMARK  status: ('A' for Active; 'I' for Inactive)
REMARK    1  A    between atoms: C_1  and  C_2
REMARK    2  A    between atoms: C_5  and  N_9
REMARK    3  A    between atoms: C_10  and  C_12
REMARK    4  A    between atoms: C_12  and  C_14
REMARK    5  A    between atoms: C_12  and  N_15
REMARK    6  A    between atoms: N_15  and  C_16
REMARK    7  A    between atoms: C_19  and  O_27
REMARK    8  A    between atoms: C_20  and  O_22
REMARK    9  A    between atoms: O_22  and  C_23
REMARK   10  A    between atoms: C_23  and  C_24
REMARK   11  A    between atoms: O_27  and  C_28
REMARK                            x       y       z     vdW  Elec       q    Type
REMARK                         _______ _______ _______ _____ _____    ______ ____
ROOT
ATOM      1  N   UNL     1      -0.234  -6.825  -2.571  0.00  0.00    -0.333 N 
ATOM      2  H   UNL     1       0.120  -6.290  -3.298  0.00  0.00    +0.147 HD
ENDROOT
BRANCH   1   3
ATOM      3  C   UNL     1      -0.838  -8.058  -2.840  0.00  0.00    +0.031 A 
ATOM      4  C   UNL     1      -1.350  -8.823  -1.799  0.00  0.00    +0.027 A 
ATOM      5  C   UNL     1      -1.947 -10.041  -2.063  0.00  0.00    +0.051 A 
ATOM      6  C   UNL     1      -2.036 -10.502  -3.367  0.00  0.00    +0.162 A 
ATOM      7  C   UNL     1      -1.524  -9.739  -4.411  0.00  0.00    +0.164 A 
ATOM      8  C   UNL     1      -0.931  -8.515  -4.147  0.00  0.00    +0.072 A 
BRANCH   6   9
ATOM      9  O   UNL     1      -2.624 -11.702  -3.625  0.00  0.00    -0.491 OA
ATOM     10  C   UNL     1      -3.127 -12.432  -2.505  0.00  0.00    +0.277 C 
ENDBRANCH   6   9
BRANCH   7  11
ATOM     11  O   UNL     1      -1.610 -10.192  -5.691  0.00  0.00    -0.479 OA
BRANCH  11  12
ATOM     12  C   UNL     1      -1.063  -9.356  -6.713  0.00  0.00    +0.324 C 
BRANCH  12  13
ATOM     13  C   UNL     1      -1.249 -10.016  -8.055  0.00  0.00    +0.248 C 
ATOM     14  O   UNL     1      -1.796 -11.096  -8.129  0.00  0.00    -0.272 OA
ATOM     15  N   UNL     1      -0.807  -9.407  -9.173  0.00  0.00    -0.327 N 
ATOM     16  H   UNL     1      -0.370  -8.543  -9.114  0.00  0.00    +0.145 HD
ATOM     17  H   UNL     1      -0.927  -9.832 -10.036  0.00  0.00    +0.145 HD
ENDBRANCH  12  13
ENDBRANCH  11  12
ENDBRANCH   7  11
ENDBRANCH   1   3
BRANCH   1  18
ATOM     18  C   UNL     1      -0.136  -6.343  -1.191  0.00  0.00    +0.154 C 
ATOM     19  C   UNL     1       1.113  -6.933  -0.532  0.00  0.00    +0.038 C 
BRANCH  18  21
ATOM     20  N   UNL     1       0.057  -4.171  -0.023  0.00  0.00    -0.283 N 
ATOM     21  C   UNL     1      -0.042  -4.839  -1.190  0.00  0.00    +0.237 C 
ATOM     22  O   UNL     1      -0.055  -4.230  -2.238  0.00  0.00    -0.273 OA
ATOM     23  H   UNL     1       0.133  -4.660   0.811  0.00  0.00    +0.155 HD
BRANCH  20  28
ATOM     24  C   UNL     1       0.028   1.503   0.005  0.00  0.00    +0.044 C 
ATOM     25  C   UNL     1       0.035  -0.004  -0.002  0.00  0.00    -0.049 A 
ATOM     26  C   UNL     1       0.632  -0.686  -1.046  0.00  0.00    +0.005 A 
ATOM     27  C   UNL     1       0.641  -2.067  -1.056  0.00  0.00    +0.025 A 
ATOM     28  C   UNL     1       0.050  -2.771  -0.016  0.00  0.00    +0.052 A 
ATOM     29  C   UNL     1      -0.548  -2.083   1.033  0.00  0.00    +0.062 A 
ATOM     30  C   UNL     1      -0.549  -0.701   1.039  0.00  0.00    +0.025 A 
ATOM     31 CL   UNL     1      -1.289  -2.959   2.336  0.00  0.00    -0.082 Cl
ENDBRANCH  20  28
ENDBRANCH  18  21
ENDBRANCH   1  18
TORSDOF 8
