REMARK  Name = ZINC66971908
REMARK  7 active torsions:
REMARK  status: ('A' for Active; 'I' for Inactive)
REMARK    1  A    between atoms: C_3  and  C_9
REMARK    2  A    between atoms: C_5  and  C_7
REMARK    3  A    between atoms: C_9  and  N_10
REMARK    4  A    between atoms: N_10  and  C_11
REMARK    5  A    between atoms: C_11  and  C_12
REMARK    6  A    between atoms: C_15  and  C_17
REMARK    7  A    between atoms: C_20  and  N_23
REMARK                            x       y       z     vdW  Elec       q    Type
REMARK                         _______ _______ _______ _____ _____    ______ ____
ROOT
ATOM      1  C   UNL     1       5.769   3.448   2.821  0.00  0.00    +0.004 A 
ATOM      2  C   UNL     1       6.555   2.682   3.619  0.00  0.00    +0.013 A 
ATOM      3  C   UNL     1       6.803   3.092   4.911  0.00  0.00    +0.016 A 
ATOM      4  C   UNL     1       6.245   4.264   5.347  0.00  0.00    +0.020 A 
ATOM      5  S   UNL     1       5.354   4.809   3.899  0.00  0.00    -0.092 S 
ENDROOT
BRANCH   4   6
ATOM      6  C   UNL     1       6.357   4.913   6.671  0.00  0.00    -0.011 A 
ATOM      7  C   UNL     1       7.122   4.322   7.678  0.00  0.00    +0.011 A 
ATOM      8  C   UNL     1       7.223   4.933   8.911  0.00  0.00    +0.033 A 
ATOM      9  C   UNL     1       6.567   6.128   9.150  0.00  0.00    +0.126 A 
ATOM     10  C   UNL     1       5.808   6.718   8.156  0.00  0.00    +0.033 A 
ATOM     11  C   UNL     1       5.704   6.121   6.917  0.00  0.00    +0.011 A 
BRANCH   9  12
ATOM     12  N   UNL     1       6.679   6.777  10.476  0.00  0.00    +0.056 N 
ATOM     13  O   UNL     1       7.342   6.263  11.347  0.00  0.00    -0.126 OA
ATOM     14  O   UNL     1       6.107   7.821  10.688  0.00  0.00    -0.126 OA
ENDBRANCH   9  12
ENDBRANCH   4   6
BRANCH   1  15
ATOM     15  C   UNL     1       5.358   3.214   1.390  0.00  0.00    +0.124 C 
BRANCH  15  16
ATOM     16  N   UNL     1       4.103   2.451   1.359  0.00  0.00    -0.308 NA
ATOM     17  H   UNL     1       3.381   2.921   1.885  0.00  0.00    +0.123 HD
BRANCH  16  18
ATOM     18  C   UNL     1       3.671   2.204  -0.023  0.00  0.00    +0.116 C 
BRANCH  18  21
ATOM     19  C   UNL     1      -0.017   1.375   0.010  0.00  0.00    +0.002 A 
ATOM     20  C   UNL     1       1.170   2.086   0.002  0.00  0.00    +0.005 A 
ATOM     21  C   UNL     1       2.383   1.421  -0.013  0.00  0.00    -0.032 A 
ATOM     22  C   UNL     1       2.416   0.041  -0.021  0.00  0.00    +0.023 A 
ATOM     23  C   UNL     1       1.223  -0.682  -0.013  0.00  0.00    +0.052 A 
ATOM     24  C   UNL     1       0.002  -0.004   0.002  0.00  0.00    +0.019 A 
BRANCH  23  25
ATOM     25  C   UNL     1       1.250  -2.114  -0.022  0.00  0.00    +0.099 C 
ATOM     26  N   UNL     1       1.271  -3.250  -0.029  0.00  0.00    -0.191 NA
ENDBRANCH  23  25
ENDBRANCH  18  21
ENDBRANCH  16  18
ENDBRANCH  15  16
ENDBRANCH   1  15
TORSDOF 7
