REMARK  Name = ZINC24046458
REMARK  8 active torsions:
REMARK  status: ('A' for Active; 'I' for Inactive)
REMARK    1  A    between atoms: C_1  and  C_2
REMARK    2  A    between atoms: C_7  and  C_14
REMARK    3  A    between atoms: C_11  and  C_12
REMARK    4  A    between atoms: C_14  and  N_15
REMARK    5  A    between atoms: C_18  and  C_22
REMARK    6  A    between atoms: C_18  and  C_23
REMARK    7  A    between atoms: C_26  and  O_29
REMARK    8  A    between atoms: O_29  and  C_30
REMARK                            x       y       z     vdW  Elec       q    Type
REMARK                         _______ _______ _______ _____ _____    ______ ____
ROOT
ATOM      1  N   UNL     1       1.143   3.475   0.897  0.00  0.00    -0.219 N 
ATOM      2  C   UNL     1       0.185   3.709   1.816  0.00  0.00    +0.251 C 
ATOM      3  O   UNL     1      -1.010   3.776   1.626  0.00  0.00    -0.272 OA
ATOM      4  C   UNL     1       0.913   3.871   3.135  0.00  0.00    +0.135 C 
ATOM      5  N   UNL     1       2.331   3.700   2.772  0.00  0.00    -0.281 N 
ATOM      6  C   UNL     1       2.363   3.474   1.446  0.00  0.00    +0.310 C 
ATOM      7  O   UNL     1       3.387   3.288   0.818  0.00  0.00    -0.252 OA
ATOM      8  C   UNL     1       0.479   2.792   4.130  0.00  0.00    +0.047 C 
ATOM      9  H   UNL     1       3.109   3.770   3.546  0.00  0.00    +0.152 HD
ENDROOT
BRANCH   4  10
ATOM     10  C   UNL     1       0.674   5.245   3.704  0.00  0.00    -0.015 A 
ATOM     11  C   UNL     1      -0.545   5.870   3.510  0.00  0.00    +0.010 A 
ATOM     12  C   UNL     1      -0.769   7.128   4.035  0.00  0.00    +0.046 A 
ATOM     13  C   UNL     1       0.234   7.770   4.747  0.00  0.00    +0.120 A 
ATOM     14  C   UNL     1       1.458   7.144   4.935  0.00  0.00    +0.046 A 
ATOM     15  C   UNL     1       1.675   5.883   4.414  0.00  0.00    +0.010 A 
BRANCH  13  16
ATOM     16  O   UNL     1       0.018   9.010   5.259  0.00  0.00    -0.495 OA
ATOM     17  C   UNL     1      -1.265   9.594   5.026  0.00  0.00    +0.277 C 
ENDBRANCH  13  16
ENDBRANCH   4  10
BRANCH   1  18
ATOM     18  C   UNL     1       0.882   3.256  -0.527  0.00  0.00    +0.156 C 
BRANCH  18  25
ATOM     19  C   UNL     1       2.615   9.793  -4.659  0.00  0.00    +0.044 C 
ATOM     20  C   UNL     1       2.503   8.480  -3.927  0.00  0.00    -0.045 A 
ATOM     21  C   UNL     1       3.588   7.606  -3.917  0.00  0.00    +0.004 A 
ATOM     22  C   UNL     1       3.518   6.413  -3.265  0.00  0.00    +0.010 A 
ATOM     23  C   UNL     1       2.338   6.058  -2.592  0.00  0.00    +0.001 A 
ATOM     24  C   UNL     1       2.225   4.834  -1.906  0.00  0.00    +0.018 A 
ATOM     25  C   UNL     1       1.048   4.554  -1.274  0.00  0.00    +0.008 A 
ATOM     26  C   UNL     1      -0.002   5.472  -1.322  0.00  0.00    +0.135 A 
ATOM     27  N   UNL     1       0.107   6.612  -1.963  0.00  0.00    -0.235 NA
ATOM     28  C   UNL     1       1.234   6.945  -2.601  0.00  0.00    +0.076 A 
ATOM     29  C   UNL     1       1.344   8.168  -3.286  0.00  0.00    -0.022 A 
ATOM     30  C   UNL     1       0.184   9.129  -3.310  0.00  0.00    +0.046 C 
ATOM     31 CL   UNL     1      -1.491   5.096  -0.512  0.00  0.00    -0.062 Cl
ENDBRANCH  18  25
ENDBRANCH   1  18
TORSDOF 4
