REMARK  Name = ZINC59060813
REMARK  10 active torsions:
REMARK  status: ('A' for Active; 'I' for Inactive)
REMARK    1  A    between atoms: C_1  and  C_2
REMARK    2  A    between atoms: C_4  and  N_28
REMARK    3  A    between atoms: C_6  and  C_7
REMARK    4  A    between atoms: N_9  and  C_10
REMARK    5  A    between atoms: C_10  and  C_11
REMARK    6  A    between atoms: C_16  and  C_17
REMARK    7  A    between atoms: C_17  and  N_18
REMARK    8  A    between atoms: C_20  and  C_27
REMARK    9  A    between atoms: C_23  and  C_26
REMARK   10  A    between atoms: C_29  and  C_31
REMARK                            x       y       z     vdW  Elec       q    Type
REMARK                         _______ _______ _______ _____ _____    ______ ____
ROOT
ATOM      1  C   UNL     1       0.080  -1.163   2.037  0.00  0.00    +0.251 C 
ATOM      2  O   UNL     1      -0.159   0.029   2.106  0.00  0.00    -0.270 OA
ATOM      3  N   UNL     1       0.131  -1.906   3.161  0.00  0.00    -0.307 N 
ATOM      4  H   UNL     1       0.321  -2.856   3.106  0.00  0.00    +0.149 HD
ENDROOT
BRANCH   1  10
ATOM      5  C   UNL     1       0.033   0.261  -0.726  0.00  0.00    +0.045 C 
ATOM      6  C   UNL     1       0.304  -1.208  -0.524  0.00  0.00    -0.029 A 
ATOM      7  C   UNL     1       0.564  -2.050  -1.573  0.00  0.00    +0.035 A 
ATOM      8  C   UNL     1       0.802  -3.379  -1.309  0.00  0.00    +0.073 A 
ATOM      9  S   UNL     1       0.675  -3.493   0.362  0.00  0.00    -0.069 S 
ATOM     10  C   UNL     1       0.312  -1.788   0.737  0.00  0.00    +0.078 A 
BRANCH   8  11
ATOM     11  N   UNL     1       1.083  -4.393  -2.215  0.00  0.00    -0.273 N 
ATOM     12  C   UNL     1       1.291  -5.650  -1.776  0.00  0.00    +0.284 C 
ATOM     13  O   UNL     1       1.233  -5.896  -0.586  0.00  0.00    -0.266 OA
ATOM     14  H   UNL     1       1.129  -4.196  -3.164  0.00  0.00    +0.156 HD
BRANCH  12  15
ATOM     15  C   UNL     1       1.588  -6.721  -2.732  0.00  0.00    +0.189 A 
ATOM     16  C   UNL     1       1.813  -8.032  -2.425  0.00  0.00    +0.054 A 
ATOM     17  C   UNL     1       2.054  -8.695  -3.638  0.00  0.00    +0.042 A 
ATOM     18  C   UNL     1       1.966  -7.772  -4.621  0.00  0.00    +0.196 A 
ATOM     19  O   UNL     1       1.681  -6.584  -4.072  0.00  0.00    -0.458 OA
ENDBRANCH  12  15
ENDBRANCH   8  11
ENDBRANCH   1  10
BRANCH   3  20
ATOM     20  C   UNL     1      -0.101  -1.280   4.465  0.00  0.00    +0.140 C 
BRANCH  20  21
ATOM     21  C   UNL     1       0.011  -2.320   5.549  0.00  0.00    -0.029 A 
ATOM     22  C   UNL     1      -1.131  -2.838   6.131  0.00  0.00    +0.005 A 
ATOM     23  C   UNL     1      -1.028  -3.792   7.126  0.00  0.00    +0.000 A 
ATOM     24  C   UNL     1       0.217  -4.229   7.538  0.00  0.00    +0.000 A 
ATOM     25  C   UNL     1       1.359  -3.712   6.956  0.00  0.00    +0.002 A 
ATOM     26  C   UNL     1       1.255  -2.760   5.958  0.00  0.00    -0.059 A 
BRANCH  26  27
ATOM     27  C   UNL     1       2.500  -2.200   5.319  0.00  0.00    -0.043 C 
BRANCH  27  28
ATOM     28  N   UNL     1       3.681  -2.662   6.061  0.00  0.00    +0.383 N 
ATOM     29  C   UNL     1       3.684  -2.056   7.399  0.00  0.00    -0.075 C 
ATOM     30  C   UNL     1       4.868  -2.596   8.204  0.00  0.00    -0.031 C 
ATOM     31  C   UNL     1       6.172  -2.247   7.481  0.00  0.00    +0.003 C 
ATOM     32  C   UNL     1       6.127  -2.820   6.062  0.00  0.00    -0.031 C 
ATOM     33  C   UNL     1       4.896  -2.272   5.336  0.00  0.00    -0.075 C 
ATOM     34  C   UNL     1       7.392  -2.411   5.305  0.00  0.00    +0.005 C 
ATOM     35  C   UNL     1       4.746  -4.115   8.335  0.00  0.00    +0.005 C 
ATOM     36  H   UNL     1       3.651  -3.666   6.149  0.00  0.00    -0.081 HD
ENDBRANCH  27  28
ENDBRANCH  26  27
ENDBRANCH  20  21
ENDBRANCH   3  20
TORSDOF 7
