REMARK  Name = ZINC02638604
REMARK  3 active torsions:
REMARK  status: ('A' for Active; 'I' for Inactive)
REMARK    1  A    between atoms: C_1  and  C_2
REMARK    2  A    between atoms: C_3  and  C_11
REMARK    3  A    between atoms: C_7  and  N_8
REMARK                            x       y       z     vdW  Elec       q    Type
REMARK                         _______ _______ _______ _____ _____    ______ ____
ROOT
ATOM      1  C   UNL     1      -0.619   1.431  -0.067  0.00  0.00    +0.047 C 
ATOM      2  C   UNL     1      -0.285  -0.038  -0.035  0.00  0.00    -0.008 A 
ATOM      3  C   UNL     1      -0.360  -0.798  -1.204  0.00  0.00    +0.042 A 
ATOM      4  C   UNL     1      -0.049  -2.158  -1.165  0.00  0.00    +0.013 A 
ATOM      5  C   UNL     1       0.331  -2.743   0.025  0.00  0.00    +0.003 A 
ATOM      6  C   UNL     1       0.403  -1.984   1.180  0.00  0.00    +0.033 A 
ATOM      7  C   UNL     1       0.101  -0.633   1.147  0.00  0.00    +0.130 A 
ENDROOT
BRANCH   3   8
ATOM      8  C   UNL     1      -0.768  -0.166  -2.476  0.00  0.00    +0.250 C 
ATOM      9  O   UNL     1      -0.932   1.037  -2.531  0.00  0.00    -0.270 OA
ATOM     10  N   UNL     1      -0.959  -0.923  -3.574  0.00  0.00    -0.261 N 
ATOM     11  C   UNL     1      -1.340  -0.332  -4.763  0.00  0.00    +0.156 C 
ATOM     12  N   UNL     1      -1.548   0.934  -4.982  0.00  0.00    -0.262 NA
ATOM     13  C   UNL     1      -1.972   1.414  -6.285  0.00  0.00    +0.155 C 
ATOM     14  C   UNL     1      -1.685   0.360  -7.389  0.00  0.00    +0.100 C 
ATOM     15  S   UNL     1      -1.644  -1.143  -6.324  0.00  0.00    -0.089 S 
ATOM     16  H   UNL     1      -0.828  -1.883  -3.530  0.00  0.00    +0.157 HD
ENDBRANCH   3   8
BRANCH   7  17
ATOM     17  N   UNL     1       0.187   0.172   2.386  0.00  0.00    +0.057 N 
ATOM     18  O   UNL     1       0.394  -0.370   3.447  0.00  0.00    -0.126 OA
ATOM     19  O   UNL     1       0.051   1.372   2.337  0.00  0.00    -0.126 OA
ENDBRANCH   7  17
TORSDOF 2
