REMARK  Name = ZINC00274662
REMARK  4 active torsions:
REMARK  status: ('A' for Active; 'I' for Inactive)
REMARK    1  A    between atoms: C_3  and  C_8
REMARK    2  A    between atoms: C_5  and  O_7
REMARK    3  A    between atoms: C_11  and  C_21
REMARK    4  A    between atoms: C_11  and  O_25
REMARK                            x       y       z     vdW  Elec       q    Type
REMARK                         _______ _______ _______ _____ _____    ______ ____
ROOT
ATOM      1  C   UNL     1       1.689   2.389   3.783  0.00  0.00    +0.269 C 
ATOM      2  O   UNL     1       2.201   1.406   4.284  0.00  0.00    -0.268 OA
ATOM      3  N   UNL     1       0.723   2.247   2.855  0.00  0.00    -0.148 N 
ATOM      4  C   UNL     1       0.117   0.975   2.433  0.00  0.00    +0.259 C 
ATOM      5  C   UNL     1      -0.780   1.398   1.243  0.00  0.00    +0.096 C 
ATOM      6  C   UNL     1      -0.129   0.824  -0.016  0.00  0.00    +0.014 C 
ATOM      7  C   UNL     1      -0.913   1.151  -1.255  0.00  0.00    +0.001 C 
ATOM      8  C   UNL     1      -0.883   2.611  -1.609  0.00  0.00    +0.000 C 
ATOM      9  C   UNL     1      -1.915   3.441  -0.919  0.00  0.00    +0.006 C 
ATOM     10  C   UNL     1      -1.549   3.881   0.474  0.00  0.00    +0.053 C 
ATOM     11  C   UNL     1      -0.736   2.899   1.266  0.00  0.00    +0.045 C 
ATOM     12  N   UNL     1       0.135   3.276   2.134  0.00  0.00    -0.183 NA
ENDROOT
BRANCH   1  15
ATOM     13  C   UNL     1       3.624   5.156   5.430  0.00  0.00    +0.004 A 
ATOM     14  C   UNL     1       3.219   3.893   5.049  0.00  0.00    +0.013 A 
ATOM     15  C   UNL     1       2.126   3.740   4.194  0.00  0.00    +0.042 A 
ATOM     16  C   UNL     1       1.452   4.867   3.723  0.00  0.00    +0.058 A 
ATOM     17  C   UNL     1       1.863   6.130   4.116  0.00  0.00    +0.118 A 
ATOM     18  C   UNL     1       2.951   6.272   4.967  0.00  0.00    +0.045 A 
BRANCH  17  19
ATOM     19  O   UNL     1       1.206   7.230   3.664  0.00  0.00    -0.507 OA
ATOM     20  H   UNL     1       1.557   7.585   2.836  0.00  0.00    +0.292 HD
ENDBRANCH  17  19
ENDBRANCH   1  15
BRANCH   4  21
ATOM     21  C   UNL     1       1.193  -0.013   1.976  0.00  0.00    +0.438 C 
ATOM     22  F   UNL     1       2.027   0.607   1.040  0.00  0.00    -0.166 F 
ATOM     23  F   UNL     1       1.951  -0.420   3.079  0.00  0.00    -0.166 F 
ATOM     24  F   UNL     1       0.584  -1.129   1.391  0.00  0.00    -0.166 F 
ENDBRANCH   4  21
BRANCH   4  25
ATOM     25  O   UNL     1      -0.670   0.411   3.485  0.00  0.00    -0.363 OA
ATOM     26  H   UNL     1      -0.155   0.130   4.253  0.00  0.00    +0.212 HD
ENDBRANCH   4  25
TORSDOF 4
