REMARK  Name = ZINC66159297
REMARK  10 active torsions:
REMARK  status: ('A' for Active; 'I' for Inactive)
REMARK    1  A    between atoms: C_1  and  C_2
REMARK    2  A    between atoms: C_2  and  C_3
REMARK    3  A    between atoms: C_3  and  C_4
REMARK    4  A    between atoms: C_3  and  C_5
REMARK    5  A    between atoms: C_3  and  O_23
REMARK    6  A    between atoms: C_5  and  N_6
REMARK    7  A    between atoms: N_9  and  C_10
REMARK    8  A    between atoms: C_14  and  N_16
REMARK    9  A    between atoms: C_17  and  S_21
REMARK   10  A    between atoms: S_21  and  C_22
REMARK                            x       y       z     vdW  Elec       q    Type
REMARK                         _______ _______ _______ _____ _____    ______ ____
ROOT
ATOM      1  N   UNL     1       1.311  -2.495  -2.537  0.00  0.00    -0.296 N 
ATOM      2  C   UNL     1       1.369  -3.814  -2.806  0.00  0.00    +0.304 C 
ATOM      3  O   UNL     1       0.853  -4.613  -2.047  0.00  0.00    -0.253 OA
ATOM      4  N   UNL     1       1.998  -4.249  -3.916  0.00  0.00    -0.269 N 
ATOM      5  H   UNL     1       1.722  -1.858  -3.142  0.00  0.00    +0.150 HD
ATOM      6  H   UNL     1       2.351  -3.611  -4.555  0.00  0.00    +0.156 HD
ENDROOT
BRANCH   4   7
ATOM      7  C   UNL     1       2.142  -5.622  -4.146  0.00  0.00    +0.037 A 
ATOM      8  C   UNL     1       3.291  -6.107  -4.758  0.00  0.00    +0.023 A 
ATOM      9  C   UNL     1       3.434  -7.462  -4.986  0.00  0.00    +0.004 A 
ATOM     10  C   UNL     1       2.436  -8.339  -4.605  0.00  0.00    +0.028 A 
ATOM     11  C   UNL     1       1.286  -7.860  -3.993  0.00  0.00    +0.072 A 
ATOM     12  C   UNL     1       1.141  -6.500  -3.758  0.00  0.00    +0.051 A 
BRANCH  11  13
ATOM     13  N   UNL     1       0.273  -8.750  -3.607  0.00  0.00    -0.187 N 
ATOM     14  C   UNL     1      -0.112  -9.892  -4.242  0.00  0.00    +0.214 A 
ATOM     15  N   UNL     1      -1.092 -10.412  -3.535  0.00  0.00    -0.101 NA
ATOM     16  N   UNL     1      -1.346  -9.681  -2.510  0.00  0.00    -0.022 NA
ATOM     17  N   UNL     1      -0.560  -8.660  -2.478  0.00  0.00    -0.038 NA
BRANCH  14  18
ATOM     18  S   UNL     1       0.573 -10.548  -5.727  0.00  0.00    -0.088 S 
ATOM     19  C   UNL     1      -0.382 -12.062  -6.019  0.00  0.00    +0.093 C 
ENDBRANCH  14  18
ENDBRANCH  11  13
ENDBRANCH   4   7
BRANCH   1  20
ATOM     20  C   UNL     1       0.627  -2.023  -1.331  0.00  0.00    +0.140 C 
BRANCH  20  21
ATOM     21  C   UNL     1       0.707  -0.496  -1.264  0.00  0.00    +0.078 C 
ATOM     22  C   UNL     1       0.033   0.104  -2.500  0.00  0.00    +0.043 C 
BRANCH  21  24
ATOM     23  C   UNL     1      -0.037   1.527  -0.001  0.00  0.00    +0.007 C 
ATOM     24  C   UNL     1      -0.008  -0.003  -0.004  0.00  0.00    +0.032 C 
ENDBRANCH  21  24
BRANCH  21  25
ATOM     25  O   UNL     1       2.077  -0.092  -1.224  0.00  0.00    -0.387 OA
ATOM     26  H   UNL     1       2.567  -0.436  -0.465  0.00  0.00    +0.210 HD
ENDBRANCH  21  25
ENDBRANCH  20  21
ENDBRANCH   1  20
TORSDOF 7
