REMARK  Name = ZINC49007502
REMARK  8 active torsions:
REMARK  status: ('A' for Active; 'I' for Inactive)
REMARK    1  A    between atoms: C_1  and  C_2
REMARK    2  A    between atoms: C_2  and  C_3
REMARK    3  A    between atoms: C_5  and  C_8
REMARK    4  A    between atoms: N_13  and  C_15
REMARK    5  A    between atoms: C_15  and  C_16
REMARK    6  A    between atoms: N_18  and  C_19
REMARK    7  A    between atoms: C_21  and  C_26
REMARK    8  A    between atoms: C_23  and  C_25
REMARK                            x       y       z     vdW  Elec       q    Type
REMARK                         _______ _______ _______ _____ _____    ______ ____
ROOT
ATOM      1  C   UNL     1      -4.398  -1.625   1.694  0.00  0.00    +0.056 A 
ATOM      2  C   UNL     1      -4.199  -1.560   3.094  0.00  0.00    +0.020 A 
ATOM      3  C   UNL     1      -5.206  -1.944   3.923  0.00  0.00    +0.071 A 
ATOM      4  C   UNL     1      -6.421  -2.396   3.375  0.00  0.00    +0.252 A 
ATOM      5  O   UNL     1      -7.328  -2.741   4.114  0.00  0.00    -0.268 OA
ATOM      6  N   UNL     1      -6.590  -2.449   2.041  0.00  0.00    -0.306 N 
ATOM      7  C   UNL     1      -5.607  -2.069   1.201  0.00  0.00    +0.103 A 
ENDROOT
BRANCH   1  10
ATOM      8  C   UNL     1      -1.415  -0.499   0.024  0.00  0.00    +0.172 A 
ATOM      9  N   UNL     1      -2.132  -0.777   1.115  0.00  0.00    -0.192 NA
ATOM     10  C   UNL     1      -3.323  -1.215   0.770  0.00  0.00    +0.260 A 
ATOM     11  O   UNL     1      -3.389  -1.225  -0.573  0.00  0.00    -0.333 OA
ATOM     12  N   UNL     1      -2.133  -0.748  -1.034  0.00  0.00    -0.061 NA
BRANCH   8  14
ATOM     13  C   UNL     1      -0.027   1.556   0.037  0.00  0.00    +0.012 C 
ATOM     14  C   UNL     1      -0.003   0.026   0.018  0.00  0.00    +0.076 C 
ENDBRANCH   8  14
ENDBRANCH   1  10
BRANCH   6  15
ATOM     15  C   UNL     1      -7.864  -2.923   1.494  0.00  0.00    +0.220 C 
BRANCH  15  16
ATOM     16  C   UNL     1      -8.800  -1.755   1.316  0.00  0.00    +0.237 C 
ATOM     17  O   UNL     1      -8.438  -0.637   1.617  0.00  0.00    -0.274 OA
ATOM     18  N   UNL     1     -10.038  -1.953   0.823  0.00  0.00    -0.284 N 
ATOM     19  H   UNL     1     -10.304  -2.835   0.520  0.00  0.00    +0.155 HD
BRANCH  18  20
ATOM     20  C   UNL     1     -10.940  -0.886   0.749  0.00  0.00    +0.034 A 
ATOM     21  C   UNL     1     -12.294  -1.103   0.966  0.00  0.00    +0.026 A 
ATOM     22  C   UNL     1     -13.182  -0.048   0.892  0.00  0.00    -0.048 A 
ATOM     23  C   UNL     1     -12.724   1.224   0.601  0.00  0.00    +0.006 A 
ATOM     24  C   UNL     1     -11.376   1.444   0.384  0.00  0.00    -0.048 A 
ATOM     25  C   UNL     1     -10.482   0.394   0.462  0.00  0.00    +0.026 A 
ATOM     26  C   UNL     1     -10.881   2.831   0.066  0.00  0.00    +0.044 C 
ATOM     27  C   UNL     1     -14.652  -0.282   1.128  0.00  0.00    +0.044 C 
ENDBRANCH  18  20
ENDBRANCH  15  16
ENDBRANCH   6  15
TORSDOF 5
