REMARK  Name = ZINC43147388
REMARK  11 active torsions:
REMARK  status: ('A' for Active; 'I' for Inactive)
REMARK    1  A    between atoms: C_1  and  C_2
REMARK    2  A    between atoms: C_5  and  O_9
REMARK    3  A    between atoms: C_7  and  C_8
REMARK    4  A    between atoms: O_9  and  C_10
REMARK    5  A    between atoms: C_10  and  C_11
REMARK    6  A    between atoms: N_13  and  N_14
REMARK    7  A    between atoms: N_17  and  C_18
REMARK    8  A    between atoms: C_18  and  C_19
REMARK    9  A    between atoms: C_19  and  N_24
REMARK   10  A    between atoms: N_24  and  C_25
REMARK   11  A    between atoms: N_24  and  C_26
REMARK                            x       y       z     vdW  Elec       q    Type
REMARK                         _______ _______ _______ _____ _____    ______ ____
ROOT
ATOM      1  N   UNL     1       0.583  -8.686  -2.038  0.00  0.00    -0.218 N 
ATOM      2  C   UNL     1       0.411  -9.452  -3.133  0.00  0.00    +0.316 C 
ATOM      3  O   UNL     1       0.334 -10.661  -3.024  0.00  0.00    -0.251 OA
ATOM      4  N   UNL     1       0.323  -8.879  -4.350  0.00  0.00    -0.300 N 
ATOM      5  H   UNL     1       0.646  -9.098  -1.162  0.00  0.00    +0.174 HD
ATOM      6  H   UNL     1       0.384  -7.915  -4.437  0.00  0.00    +0.150 HD
ENDROOT
BRANCH   1   9
ATOM      7  C   UNL     1       0.843  -6.527  -1.069  0.00  0.00    +0.267 C 
ATOM      8  O   UNL     1       0.922  -7.042   0.026  0.00  0.00    -0.271 OA
ATOM      9  N   UNL     1       0.671  -7.293  -2.164  0.00  0.00    -0.230 N 
ATOM     10  H   UNL     1       0.608  -6.881  -3.040  0.00  0.00    +0.173 HD
BRANCH   7  11
ATOM     11  C   UNL     1       0.937  -5.029  -1.205  0.00  0.00    +0.326 C 
BRANCH  11  12
ATOM     12  O   UNL     1       1.117  -4.444   0.086  0.00  0.00    -0.483 OA
BRANCH  12  17
ATOM     13  C   UNL     1       1.547   1.168   0.314  0.00  0.00    +0.044 C 
ATOM     14  C   UNL     1       1.432  -0.334   0.253  0.00  0.00    -0.047 A 
ATOM     15  C   UNL     1       1.258  -0.964  -0.966  0.00  0.00    +0.007 A 
ATOM     16  C   UNL     1       1.152  -2.340  -1.024  0.00  0.00    +0.046 A 
ATOM     17  C   UNL     1       1.221  -3.090   0.141  0.00  0.00    +0.121 A 
ATOM     18  C   UNL     1       1.397  -2.455   1.362  0.00  0.00    +0.049 A 
ATOM     19  C   UNL     1       1.507  -1.079   1.415  0.00  0.00    -0.044 A 
ATOM     20  C   UNL     1       1.704  -0.390   2.740  0.00  0.00    +0.044 C 
ENDBRANCH  12  17
ENDBRANCH  11  12
ENDBRANCH   7  11
ENDBRANCH   1   9
BRANCH   4  21
ATOM     21  C   UNL     1       0.136  -9.712  -5.540  0.00  0.00    +0.094 C 
BRANCH  21  22
ATOM     22  C   UNL     1      -0.043  -8.816  -6.767  0.00  0.00    -0.050 C 
ATOM     23  C   UNL     1      -1.333  -7.981  -6.628  0.00  0.00    -0.010 C 
ATOM     24  C   UNL     1      -1.905  -7.922  -8.066  0.00  0.00    -0.001 C 
ATOM     25  C   UNL     1      -1.599  -9.338  -8.614  0.00  0.00    -0.001 C 
ATOM     26  C   UNL     1      -0.212  -9.678  -8.030  0.00  0.00    -0.010 C 
BRANCH  22  27
ATOM     27  N   UNL     1       1.117  -7.928  -6.916  0.00  0.00    +0.381 N 
ATOM     28  C   UNL     1       2.328  -8.735  -7.121  0.00  0.00    -0.096 C 
ATOM     29  C   UNL     1       0.915  -7.046  -8.073  0.00  0.00    -0.096 C 
ATOM     30  H   UNL     1       1.223  -7.370  -6.082  0.00  0.00    -0.082 HD
ENDBRANCH  22  27
ENDBRANCH  21  22
ENDBRANCH   4  21
TORSDOF 7
