REMARK  Name = ZINC65942794
REMARK  8 active torsions:
REMARK  status: ('A' for Active; 'I' for Inactive)
REMARK    1  A    between atoms: C_1  and  C_2
REMARK    2  A    between atoms: C_2  and  N_3
REMARK    3  A    between atoms: C_11  and  C_12
REMARK    4  A    between atoms: C_12  and  N_13
REMARK    5  A    between atoms: N_13  and  C_14
REMARK    6  A    between atoms: N_13  and  C_15
REMARK    7  A    between atoms: C_15  and  C_16
REMARK    8  A    between atoms: C_21  and  O_22
REMARK                            x       y       z     vdW  Elec       q    Type
REMARK                         _______ _______ _______ _____ _____    ______ ____
ROOT
ATOM      1  N   UNL     1       3.157  -1.813   0.524  0.00  0.00    -0.294 NA
ATOM      2  C   UNL     1       3.724  -2.877  -0.315  0.00  0.00    +0.105 C 
ENDROOT
BRANCH   1   3
ATOM      3  C   UNL     1       3.036  -0.557  -0.229  0.00  0.00    +0.158 C 
BRANCH   3  12
ATOM      4  N   UNL     1       0.688  -0.476  -1.203  0.00  0.00    -0.327 N 
ATOM      5  C   UNL     1       0.104  -0.745  -2.425  0.00  0.00    +0.069 A 
ATOM      6  C   UNL     1      -1.195  -0.676  -2.912  0.00  0.00    +0.028 A 
ATOM      7  C   UNL     1      -1.453  -1.024  -4.221  0.00  0.00    +0.002 A 
ATOM      8  C   UNL     1      -0.424  -1.442  -5.053  0.00  0.00    +0.002 A 
ATOM      9  C   UNL     1       0.860  -1.516  -4.591  0.00  0.00    +0.030 A 
ATOM     10  C   UNL     1       1.145  -1.168  -3.268  0.00  0.00    +0.089 A 
ATOM     11  N   UNL     1       2.286  -1.137  -2.534  0.00  0.00    -0.231 NA
ATOM     12  C   UNL     1       2.019  -0.727  -1.328  0.00  0.00    +0.125 A 
BRANCH   4  14
ATOM     13  C   UNL     1      -0.019   1.526   0.010  0.00  0.00    +0.027 C 
ATOM     14  C   UNL     1       0.002  -0.004   0.002  0.00  0.00    +0.120 C 
ENDBRANCH   4  14
ENDBRANCH   3  12
ENDBRANCH   1   3
BRANCH   1  15
ATOM     15  C   UNL     1       3.956  -1.621   1.742  0.00  0.00    +0.123 C 
BRANCH  15  16
ATOM     16  C   UNL     1       3.856  -2.851   2.607  0.00  0.00    +0.012 A 
ATOM     17  C   UNL     1       4.920  -3.730   2.684  0.00  0.00    +0.058 A 
ATOM     18  C   UNL     1       4.832  -4.861   3.478  0.00  0.00    +0.167 A 
ATOM     19  C   UNL     1       3.667  -5.113   4.200  0.00  0.00    +0.170 A 
ATOM     20  C   UNL     1       2.603  -4.231   4.122  0.00  0.00    +0.095 A 
ATOM     21  C   UNL     1       2.698  -3.097   3.330  0.00  0.00    +0.125 A 
ATOM     22  O   UNL     1       3.829  -6.276   4.896  0.00  0.00    -0.452 OA
ATOM     23  C   UNL     1       4.944  -6.944   4.276  0.00  0.00    +0.466 C 
ATOM     24  O   UNL     1       5.723  -5.867   3.722  0.00  0.00    -0.453 OA
BRANCH  21  25
ATOM     25  O   UNL     1       1.654  -2.229   3.257  0.00  0.00    -0.506 OA
ATOM     26  H   UNL     1       1.022  -2.431   2.554  0.00  0.00    +0.292 HD
ENDBRANCH  21  25
ENDBRANCH  15  16
ENDBRANCH   1  15
TORSDOF 6
