REMARK  Name = ZINC20799976
REMARK  3 active torsions:
REMARK  status: ('A' for Active; 'I' for Inactive)
REMARK    1  A    between atoms: C_3  and  N_9
REMARK    2  A    between atoms: C_10  and  C_12
REMARK    3  A    between atoms: C_20  and  N_30
REMARK                            x       y       z     vdW  Elec       q    Type
REMARK                         _______ _______ _______ _____ _____    ______ ____
ROOT
ATOM      1  C   UNL     1       4.861   4.235  -0.238  0.00  0.00    +0.121 C 
ATOM      2  C   UNL     1       5.732   3.961   0.989  0.00  0.00    +0.113 C 
ATOM      3  C   UNL     1       5.156   4.665   2.189  0.00  0.00    +0.219 C 
ATOM      4  O   UNL     1       5.195   4.127   3.276  0.00  0.00    -0.275 OA
ATOM      5  N   UNL     1       4.598   5.883   2.070  0.00  0.00    -0.270 N 
ATOM      6  C   UNL     1       4.441   6.472   0.823  0.00  0.00    +0.136 A 
ATOM      7  C   UNL     1       4.567   5.708  -0.329  0.00  0.00    +0.045 A 
ATOM      8  C   UNL     1       4.417   6.328  -1.564  0.00  0.00    +0.127 A 
ATOM      9  N   UNL     1       4.139   7.630  -1.598  0.00  0.00    -0.199 NA
ATOM     10  C   UNL     1       4.002   8.323  -0.478  0.00  0.00    +0.221 A 
ATOM     11  N   UNL     1       4.144   7.763   0.713  0.00  0.00    -0.199 NA
ATOM     12  N   UNL     1       3.702   9.672  -0.554  0.00  0.00    -0.300 N 
ATOM     13  C   UNL     1       3.548  10.475   0.666  0.00  0.00    +0.108 C 
ATOM     14  C   UNL     1       4.472  11.693   0.575  0.00  0.00    +0.019 C 
ATOM     15  C   UNL     1       4.180  12.455  -0.719  0.00  0.00    +0.003 C 
ATOM     16  C   UNL     1       4.456  11.548  -1.921  0.00  0.00    +0.019 C 
ATOM     17  C   UNL     1       3.537  10.330  -1.858  0.00  0.00    +0.108 C 
ATOM     18  H   UNL     1       4.303   6.355   2.864  0.00  0.00    +0.156 HD
ENDROOT
BRANCH   1  20
ATOM     19  N   UNL     1       3.584   2.127  -0.021  0.00  0.00    -0.284 N 
ATOM     20  C   UNL     1       3.567   3.472  -0.116  0.00  0.00    +0.225 C 
ATOM     21  O   UNL     1       2.510   4.067  -0.103  0.00  0.00    -0.275 OA
ATOM     22  H   UNL     1       4.430   1.656   0.034  0.00  0.00    +0.155 HD
BRANCH  19  25
ATOM     23  C   UNL     1       0.075   1.242   0.634  0.00  0.00    +0.003 A 
ATOM     24  C   UNL     1       1.261   1.950   0.617  0.00  0.00    +0.025 A 
ATOM     25  C   UNL     1       2.381   1.412  -0.002  0.00  0.00    +0.053 A 
ATOM     26  C   UNL     1       2.305   0.161  -0.603  0.00  0.00    +0.080 A 
ATOM     27  C   UNL     1       1.115  -0.542  -0.582  0.00  0.00    +0.061 A 
ATOM     28  C   UNL     1       0.001  -0.002   0.036  0.00  0.00    +0.021 A 
ATOM     29 CL   UNL     1       1.018  -2.105  -1.333  0.00  0.00    -0.082 Cl
ATOM     30 CL   UNL     1       3.702  -0.516  -1.379  0.00  0.00    -0.080 Cl
ENDBRANCH  19  25
ENDBRANCH   1  20
BRANCH   8  31
ATOM     31  N   UNL     1       4.554   5.605  -2.738  0.00  0.00    -0.343 N 
ATOM     32  H   UNL     1       4.756   4.657  -2.703  0.00  0.00    +0.144 HD
ATOM     33  H   UNL     1       4.447   6.046  -3.595  0.00  0.00    +0.144 HD
ENDBRANCH   8  31
TORSDOF 3
