REMARK  Name = ZINC64683362
REMARK  9 active torsions:
REMARK  status: ('A' for Active; 'I' for Inactive)
REMARK    1  A    between atoms: C_1  and  C_2
REMARK    2  A    between atoms: C_5  and  C_8
REMARK    3  A    between atoms: C_8  and  N_9
REMARK    4  A    between atoms: C_10  and  C_12
REMARK    5  A    between atoms: C_12  and  N_13
REMARK    6  A    between atoms: N_16  and  CA_17
REMARK    7  A    between atoms: CA_17  and  CB_19
REMARK    8  A    between atoms: CA_17  and  C_29
REMARK    9  A    between atoms: CB_19  and  CG_20
REMARK                            x       y       z     vdW  Elec       q    Type
REMARK                         _______ _______ _______ _____ _____    ______ ____
ROOT
ATOM      1  N   UNK A   0       3.156  -8.016  -0.059  0.00  0.00    -0.291 N 
ATOM      2  C   UNK A   0       4.332  -8.675  -0.069  0.00  0.00    +0.301 C 
ATOM      3  O   UNK A   0       5.377  -8.053  -0.071  0.00  0.00    -0.253 OA
ATOM      4  N   TRP A   1       4.349 -10.023  -0.076  0.00  0.00    -0.286 N 
ATOM      5  H   UNK A   0       2.322  -8.512  -0.057  0.00  0.00    +0.151 HD
ATOM      6  H   TRP A   1       3.516 -10.518  -0.075  0.00  0.00    +0.151 HD
ENDROOT
BRANCH   1   7
ATOM      7  C   UNK A   0       3.137  -6.551  -0.051  0.00  0.00    +0.201 C 
BRANCH   7   9
ATOM      8  N   UNK A   0       1.447  -4.746  -0.032  0.00  0.00    -0.310 N 
ATOM      9  C   UNK A   0       1.710  -6.067  -0.040  0.00  0.00    +0.231 C 
ATOM     10  O   UNK A   0       0.799  -6.867  -0.040  0.00  0.00    -0.274 OA
ATOM     11  H   UNK A   0       2.176  -4.106  -0.032  0.00  0.00    +0.149 HD
BRANCH   8  12
ATOM     12  C   UNK A   0       0.059  -4.275  -0.021  0.00  0.00    +0.139 C 
BRANCH  12  17
ATOM     13  C   UNK A   0      -0.018   1.503   0.010  0.00  0.00    +0.044 C 
ATOM     14  C   UNK A   0       0.002  -0.004   0.002  0.00  0.00    -0.050 A 
ATOM     15  C   UNK A   0       0.006  -0.689  -1.199  0.00  0.00    +0.003 A 
ATOM     16  C   UNK A   0       0.025  -2.071  -1.206  0.00  0.00    +0.005 A 
ATOM     17  C   UNK A   0       0.040  -2.768  -0.013  0.00  0.00    -0.030 A 
ATOM     18  C   UNK A   0       0.037  -2.084   1.188  0.00  0.00    +0.005 A 
ATOM     19  C   UNK A   0       0.023  -0.702   1.195  0.00  0.00    +0.003 A 
ENDBRANCH  12  17
ENDBRANCH   8  12
ENDBRANCH   7   9
ENDBRANCH   1   7
BRANCH   4  20
ATOM     20  CA  TRP A   1       5.627 -10.739  -0.087  0.00  0.00    +0.191 C 
BRANCH  20  21
ATOM     21  C   TRP A   1       6.134 -10.884   1.324  0.00  0.00    +0.376 C 
ATOM     22  O   TRP A   1       5.345 -10.959   2.251  0.00  0.00    -0.244 OA
ATOM     23  OXT TRP A   1       7.333 -10.926   1.540  0.00  0.00    -0.244 OA
ENDBRANCH  20  21
BRANCH  20  24
ATOM     24  CB  TRP A   1       5.430 -12.125  -0.704  0.00  0.00    +0.067 C 
BRANCH  24  25
ATOM     25  CG  TRP A   1       5.042 -11.980  -2.152  0.00  0.00    -0.039 C 
ATOM     26  CD2 TRP A   1       5.866 -12.025  -3.224  0.00  0.00    -0.001 A 
ATOM     27  CE3 TRP A   1       7.316 -12.212  -3.355  0.00  0.00    +0.010 A 
ATOM     28  CZ3 TRP A   1       7.869 -12.209  -4.590  0.00  0.00    +0.001 A 
ATOM     29  CH2 TRP A   1       7.093 -12.030  -5.744  0.00  0.00    +0.002 A 
ATOM     30  CZ2 TRP A   1       5.756 -11.852  -5.703  0.00  0.00    +0.026 A 
ATOM     31  CE2 TRP A   1       5.070 -11.838  -4.457  0.00  0.00    +0.043 A 
ATOM     32  NE1 TRP A   1       3.802 -11.685  -4.161  0.00  0.00    -0.380 N 
ATOM     33  CD1 TRP A   1       3.650 -11.763  -2.704  0.00  0.00    +0.144 C 
ATOM     34  HE1 TRP A   1       3.084 -11.547  -4.798  0.00  0.00    +0.160 HD
ENDBRANCH  24  25
ENDBRANCH  20  24
ENDBRANCH   4  20
TORSDOF 8
