REMARK  Name = ZINC22521634
REMARK  9 active torsions:
REMARK  status: ('A' for Active; 'I' for Inactive)
REMARK    1  A    between atoms: C_1  and  N_2
REMARK    2  A    between atoms: N_2  and  C_3
REMARK    3  A    between atoms: N_2  and  S_4
REMARK    4  A    between atoms: S_4  and  N_7
REMARK    5  A    between atoms: C_11  and  C_14
REMARK    6  A    between atoms: N_16  and  C_17
REMARK    7  A    between atoms: C_18  and  C_26
REMARK    8  A    between atoms: C_26  and  O_28
REMARK    9  A    between atoms: O_28  and  C_29
REMARK                            x       y       z     vdW  Elec       q    Type
REMARK                         _______ _______ _______ _____ _____    ______ ____
ROOT
ATOM      1  C   UNL     1      -0.821   2.397  -5.858  0.00  0.00    +0.222 C 
ATOM      2  O   UNL     1       0.230   1.908  -5.501  0.00  0.00    -0.275 OA
ATOM      3  N   UNL     1      -1.791   2.642  -4.955  0.00  0.00    -0.279 N 
ATOM      4  H   UNL     1      -2.744   3.086  -5.278  0.00  0.00    +0.155 HD
ENDROOT
BRANCH   3   5
ATOM      5  C   UNL     1      -1.587   2.335  -3.618  0.00  0.00    +0.086 A 
ATOM      6  C   UNL     1      -2.457   2.511  -2.550  0.00  0.00    +0.091 A 
ATOM      7  C   UNL     1      -1.995   2.102  -1.234  0.00  0.00    -0.021 A 
ATOM      8  C   UNL     1      -0.747   1.587  -1.197  0.00  0.00    -0.004 A 
ATOM      9  S   UNL     1      -0.185   1.639  -2.875  0.00  0.00    -0.077 S 
ATOM     10  C   UNL     1      -0.013   1.086   0.008  0.00  0.00    +0.043 C 
ATOM     11  C   UNL     1      -0.742   1.586   1.263  0.00  0.00    +0.005 C 
ATOM     12  C   UNL     1      -2.241   1.309   1.105  0.00  0.00    +0.005 C 
ATOM     13  C   UNL     1      -2.830   2.229   0.034  0.00  0.00    +0.037 C 
BRANCH   6  14
ATOM     14  C   UNL     1      -3.790   3.087  -2.743  0.00  0.00    +0.342 C 
ATOM     15  O   UNL     1      -4.736   2.362  -2.984  0.00  0.00    -0.245 OA
BRANCH  14  16
ATOM     16  O   UNL     1      -3.968   4.420  -2.652  0.00  0.00    -0.464 OA
ATOM     17  C   UNL     1      -5.316   4.921  -2.854  0.00  0.00    +0.280 C 
ENDBRANCH  14  16
ENDBRANCH   6  14
ENDBRANCH   3   5
BRANCH   1  22
ATOM     18  N   UNL     1      -0.076   2.562  -9.545  0.00  0.00    -0.166 NA
ATOM     19  C   UNL     1      -1.261   1.925 -10.134  0.00  0.00    +0.110 C 
ATOM     20  C   UNL     1      -2.490   2.308  -9.304  0.00  0.00    +0.018 C 
ATOM     21  C   UNL     1      -2.245   1.945  -7.838  0.00  0.00    +0.015 C 
ATOM     22  C   UNL     1      -1.042   2.731  -7.311  0.00  0.00    +0.091 C 
ATOM     23  C   UNL     1       0.204   2.353  -8.118  0.00  0.00    +0.123 C 
BRANCH  18  24
ATOM     24  S   UNL     1       0.926   3.500 -10.472  0.00  0.00    +0.099 S 
ATOM     25  O   UNL     1       2.194   3.496  -9.830  0.00  0.00    -0.141 OA
ATOM     26  O   UNL     1       0.752   3.075 -11.816  0.00  0.00    -0.141 OA
BRANCH  24  28
ATOM     27  C   UNL     1       0.842   5.955  -9.341  0.00  0.00    +0.132 C 
ATOM     28  N   UNL     1       0.359   5.053 -10.389  0.00  0.00    -0.172 NA
ATOM     29  C   UNL     1      -0.627   5.526 -11.364  0.00  0.00    +0.132 C 
ENDBRANCH  24  28
ENDBRANCH  18  24
ENDBRANCH   1  22
TORSDOF 6
