REMARK  Name = ZINC48651087
REMARK  3 active torsions:
REMARK  status: ('A' for Active; 'I' for Inactive)
REMARK    1  A    between atoms: C_3  and  N_9
REMARK    2  A    between atoms: C_10  and  C_12
REMARK    3  A    between atoms: C_12  and  N_13
REMARK                            x       y       z     vdW  Elec       q    Type
REMARK                         _______ _______ _______ _____ _____    ______ ____
ROOT
ATOM      1  N   UNL     1       3.584   2.126  -0.021  0.00  0.00    -0.283 N 
ATOM      2  C   UNL     1       3.568   3.471  -0.116  0.00  0.00    +0.239 C 
ATOM      3  O   UNL     1       2.512   4.067  -0.103  0.00  0.00    -0.273 OA
ATOM      4  H   UNL     1       4.429   1.655   0.049  0.00  0.00    +0.155 HD
ENDROOT
BRANCH   1   7
ATOM      5  C   UNL     1       0.065   1.243  -0.620  0.00  0.00    +0.016 A 
ATOM      6  C   UNL     1       1.250   1.952  -0.618  0.00  0.00    +0.026 A 
ATOM      7  C   UNL     1       2.381   1.410  -0.024  0.00  0.00    +0.052 A 
ATOM      8  C   UNL     1       2.318   0.154   0.567  0.00  0.00    +0.063 A 
ATOM      9  C   UNL     1       1.129  -0.551   0.562  0.00  0.00    +0.036 A 
ATOM     10  C   UNL     1       0.004  -0.007  -0.031  0.00  0.00    +0.015 A 
ATOM     11  I   UNL     1      -1.797  -1.078  -0.036  0.00  0.00    -0.044 I 
ATOM     12 CL   UNL     1       3.730  -0.529   1.311  0.00  0.00    -0.082 Cl
ENDBRANCH   1   7
BRANCH   2  13
ATOM     13  C   UNL     1       4.862   4.233  -0.238  0.00  0.00    +0.239 C 
BRANCH  13  14
ATOM     14  N   UNL     1       4.577   5.668  -0.325  0.00  0.00    -0.260 N 
ATOM     15  C   UNL     1       5.087   6.628   0.474  0.00  0.00    +0.111 A 
ATOM     16  C   UNL     1       4.579   7.815   0.068  0.00  0.00    +0.074 A 
ATOM     17  C   UNL     1       3.730   7.571  -1.016  0.00  0.00    +0.235 A 
ATOM     18  N   UNL     1       3.733   6.285  -1.257  0.00  0.00    -0.146 NA
ATOM     19  N   UNL     1       2.965   8.593  -1.766  0.00  0.00    +0.077 N 
ATOM     20  O   UNL     1       3.046   9.758  -1.455  0.00  0.00    -0.125 OA
ATOM     21  O   UNL     1       2.259   8.262  -2.690  0.00  0.00    -0.125 OA
ENDBRANCH  13  14
ENDBRANCH   2  13
TORSDOF 3
