REMARK  Name = ZINC39523371
REMARK  8 active torsions:
REMARK  status: ('A' for Active; 'I' for Inactive)
REMARK    1  A    between atoms: C_1  and  C_2
REMARK    2  A    between atoms: C_2  and  O_3
REMARK    3  A    between atoms: O_3  and  C_4
REMARK    4  A    between atoms: N_10  and  O_11
REMARK    5  A    between atoms: C_15  and  S_18
REMARK    6  A    between atoms: S_18  and  C_21
REMARK    7  A    between atoms: C_21  and  C_22
REMARK    8  A    between atoms: C_21  and  C_23
REMARK                            x       y       z     vdW  Elec       q    Type
REMARK                         _______ _______ _______ _____ _____    ______ ____
ROOT
ATOM      1  C   UNL     1      -1.395  -2.201   0.226  0.00  0.00    +0.213 C 
ATOM      2  C   UNL     1      -2.876  -2.501   0.470  0.00  0.00    +0.050 C 
ATOM      3  C   UNL     1      -3.143  -3.984   0.197  0.00  0.00    +0.006 C 
ATOM      4  C   UNL     1      -2.731  -4.312  -1.240  0.00  0.00    +0.025 C 
ATOM      5  C   UNL     1      -1.254  -3.960  -1.437  0.00  0.00    +0.051 C 
ATOM      6  N   UNL     1      -1.051  -2.531  -1.163  0.00  0.00    -0.156 NA
ATOM      7  C   UNL     1      -0.846  -4.267  -2.879  0.00  0.00    +0.025 C 
ATOM      8  C   UNL     1       0.631  -3.919  -3.077  0.00  0.00    +0.004 C 
ATOM      9  C   UNL     1       1.484  -4.752  -2.118  0.00  0.00    +0.026 C 
ATOM     10  C   UNL     1       1.076  -4.444  -0.675  0.00  0.00    +0.133 C 
ATOM     11  C   UNL     1      -0.401  -4.791  -0.477  0.00  0.00    +0.051 C 
ENDROOT
BRANCH  10  12
ATOM     12  S   UNL     1       2.087  -5.430   0.463  0.00  0.00    -0.026 S 
ATOM     13  O   UNL     1       1.779  -5.037   1.793  0.00  0.00    -0.174 OA
ATOM     14  O   UNL     1       1.966  -6.798   0.101  0.00  0.00    -0.174 OA
BRANCH  12  15
ATOM     15  C   UNL     1       3.773  -4.881   0.079  0.00  0.00    +0.125 C 
ATOM     16  C   UNL     1       3.891  -3.377   0.335  0.00  0.00    +0.031 C 
ATOM     17  C   UNL     1       4.768  -5.630   0.968  0.00  0.00    +0.031 C 
ENDBRANCH  12  15
ENDBRANCH  10  12
BRANCH   6  18
ATOM     18  O   UNL     1       0.322  -2.129  -1.473  0.00  0.00    -0.309 OA
ATOM     19  H   UNL     1       0.466  -1.173  -1.447  0.00  0.00    +0.237 HD
ENDBRANCH   6  18
BRANCH   1  20
ATOM     20  O   UNL     1      -1.145  -0.814   0.461  0.00  0.00    -0.360 OA
BRANCH  20  22
ATOM     21  C   UNL     1      -1.551   1.511  -0.056  0.00  0.00    +0.034 C 
ATOM     22  C   UNL     1      -1.993   0.064  -0.280  0.00  0.00    +0.158 C 
ENDBRANCH  20  22
ENDBRANCH   1  20
TORSDOF 5
