REMARK  Name = ZINC43665363
REMARK  8 active torsions:
REMARK  status: ('A' for Active; 'I' for Inactive)
REMARK    1  A    between atoms: C_1  and  C_2
REMARK    2  A    between atoms: C_2  and  C_4
REMARK    3  A    between atoms: C_2  and  N_14
REMARK    4  A    between atoms: C_7  and  O_10
REMARK    5  A    between atoms: O_10  and  C_11
REMARK    6  A    between atoms: C_11  and  C_12
REMARK    7  A    between atoms: C_11  and  C_13
REMARK    8  A    between atoms: C_15  and  N_20
REMARK                            x       y       z     vdW  Elec       q    Type
REMARK                         _______ _______ _______ _____ _____    ______ ____
ROOT
ATOM      1  C   UNL     1       0.733   2.230  -0.185  0.00  0.00    +0.038 C 
ATOM      2  C   UNL     1       0.510   0.720  -0.078  0.00  0.00    +0.136 C 
ENDROOT
BRANCH   2   3
ATOM      3  C   UNL     1       1.079   0.040  -1.297  0.00  0.00    -0.023 A 
ATOM      4  C   UNL     1       0.604   0.365  -2.554  0.00  0.00    +0.009 A 
ATOM      5  C   UNL     1       1.124  -0.257  -3.672  0.00  0.00    +0.046 A 
ATOM      6  C   UNL     1       2.125  -1.208  -3.533  0.00  0.00    +0.121 A 
ATOM      7  C   UNL     1       2.600  -1.532  -2.271  0.00  0.00    +0.046 A 
ATOM      8  C   UNL     1       2.081  -0.903  -1.156  0.00  0.00    +0.009 A 
BRANCH   6   9
ATOM      9  O   UNL     1       2.638  -1.822  -4.632  0.00  0.00    -0.489 OA
BRANCH   9  10
ATOM     10  C   UNL     1       2.020  -1.528  -5.887  0.00  0.00    +0.167 C 
ATOM     11  C   UNL     1       2.624  -0.246  -6.464  0.00  0.00    +0.051 C 
ATOM     12  C   UNL     1       2.260  -2.686  -6.857  0.00  0.00    +0.051 C 
ENDBRANCH   9  10
ENDBRANCH   6   9
ENDBRANCH   2   3
BRANCH   2  13
ATOM     13  N   UNL     1      -0.926   0.443   0.009  0.00  0.00    -0.242 N 
ATOM     14  C   UNL     1      -1.560  -0.180   1.036  0.00  0.00    +0.134 A 
ATOM     15  C   UNL     1      -2.885  -0.236   0.725  0.00  0.00    +0.100 A 
ATOM     16  C   UNL     1      -3.058   0.369  -0.523  0.00  0.00    +0.156 A 
ATOM     17  N   UNL     1      -1.891   0.780  -0.949  0.00  0.00    -0.176 NA
ATOM     18 CL   UNL     1      -4.136  -0.936   1.704  0.00  0.00    -0.078 Cl
BRANCH  14  19
ATOM     19  N   UNL     1      -0.964  -0.673   2.195  0.00  0.00    -0.342 N 
ATOM     20  H   UNL     1      -0.007  -0.584   2.323  0.00  0.00    +0.144 HD
ATOM     21  H   UNL     1      -1.506  -1.105   2.873  0.00  0.00    +0.144 HD
ENDBRANCH  14  19
ENDBRANCH   2  13
TORSDOF 5
