REMARK  Name = ZINC52637231
REMARK  4 active torsions:
REMARK  status: ('A' for Active; 'I' for Inactive)
REMARK    1  A    between atoms: C_1  and  N_2
REMARK    2  A    between atoms: C_4  and  C_25
REMARK    3  A    between atoms: C_20  and  S_22
REMARK    4  A    between atoms: S_22  and  C_24
REMARK                            x       y       z     vdW  Elec       q    Type
REMARK                         _______ _______ _______ _____ _____    ______ ____
ROOT
ATOM      1  C   UNL     1      -0.075   1.496   0.008  0.00  0.00    +0.105 C 
ATOM      2  N   UNL     1      -0.037   0.027  -0.018  0.00  0.00    -0.301 NA
ATOM      3  C   UNL     1      -1.394  -0.533  -0.084  0.00  0.00    +0.097 C 
ATOM      4  C   UNL     1      -1.315  -2.052  -0.249  0.00  0.00    +0.090 C 
ATOM      5  C   UNL     1      -0.548  -2.654   0.932  0.00  0.00    +0.023 C 
ATOM      6  C   UNL     1       0.843  -2.018   1.000  0.00  0.00    +0.038 C 
ATOM      7  C   UNL     1       0.696  -0.500   1.139  0.00  0.00    +0.068 C 
ATOM      8  C   UNL     1       2.040   0.225   1.272  0.00  0.00    +0.054 C 
ATOM      9  C   UNL     1       2.796  -0.380   2.421  0.00  0.00    -0.024 C 
ATOM     10  C   UNL     1       2.568  -1.651   2.794  0.00  0.00    +0.004 A 
ATOM     11  C   UNL     1       1.604  -2.557   2.171  0.00  0.00    -0.034 A 
ATOM     12  C   UNL     1       1.535  -3.777   2.731  0.00  0.00    +0.004 A 
ATOM     13  C   UNL     1       2.333  -4.130   3.836  0.00  0.00    +0.002 A 
ATOM     14  C   UNL     1       3.238  -3.329   4.461  0.00  0.00    +0.026 A 
ATOM     15  C   UNL     1       3.413  -2.034   3.943  0.00  0.00    +0.044 A 
ATOM     16  N   UNL     1       4.153  -1.021   4.271  0.00  0.00    -0.367 N 
ATOM     17  C   UNL     1       3.850   0.112   3.362  0.00  0.00    +0.196 C 
ATOM     18  H   UNL     1       4.800  -1.006   4.993  0.00  0.00    +0.161 HD
ENDROOT
BRANCH   4  19
ATOM     19  C   UNL     1      -2.708  -2.627  -0.289  0.00  0.00    +0.220 C 
ATOM     20  O   UNL     1      -3.589  -2.127   0.378  0.00  0.00    -0.275 OA
ATOM     21  N   UNL     1      -2.974  -3.695  -1.066  0.00  0.00    -0.298 N 
ATOM     22  C   UNL     1      -1.893  -4.389  -1.780  0.00  0.00    +0.126 C 
ATOM     23  C   UNL     1      -1.927  -5.874  -1.396  0.00  0.00    +0.125 C 
ATOM     24  N   UNL     1      -3.304  -6.366  -1.545  0.00  0.00    -0.314 N 
ATOM     25  C   UNL     1      -4.385  -5.672  -0.831  0.00  0.00    +0.125 C 
ATOM     26  C   UNL     1      -4.350  -4.191  -1.210  0.00  0.00    +0.126 C 
ATOM     27  C   UNL     1      -3.579  -7.468  -2.346  0.00  0.00    +0.099 A 
ATOM     28  C   UNL     1      -2.531  -8.185  -2.915  0.00  0.00    +0.042 A 
ATOM     29  C   UNL     1      -2.819  -9.280  -3.710  0.00  0.00    +0.005 A 
ATOM     30  C   UNL     1      -4.150  -9.621  -3.911  0.00  0.00    +0.018 A 
ATOM     31  C   UNL     1      -5.139  -8.865  -3.316  0.00  0.00    +0.084 A 
ATOM     32  N   UNL     1      -4.835  -7.829  -2.557  0.00  0.00    -0.350 N 
ATOM     33  H   UNL     1      -5.549  -7.316  -2.147  0.00  0.00    +0.166 HD
ENDBRANCH   4  19
BRANCH  17  34
ATOM     34  S   UNL     1       3.227   1.526   4.313  0.00  0.00    +0.046 S 
ATOM     35  O   UNL     1       2.129   1.110   5.114  0.00  0.00    -0.255 OA
ATOM     36  C   UNL     1       4.618   1.982   5.385  0.00  0.00    +0.124 C 
ENDBRANCH  17  34
TORSDOF 2
