REMARK  Name = ZINC48488640
REMARK  6 active torsions:
REMARK  status: ('A' for Active; 'I' for Inactive)
REMARK    1  A    between atoms: C_3  and  C_7
REMARK    2  A    between atoms: C_12  and  C_14
REMARK    3  A    between atoms: C_17  and  C_20
REMARK    4  A    between atoms: C_20  and  N_21
REMARK    5  A    between atoms: C_25  and  C_28
REMARK    6  A    between atoms: C_28  and  N_29
REMARK                            x       y       z     vdW  Elec       q    Type
REMARK                         _______ _______ _______ _____ _____    ______ ____
ROOT
ATOM      1  C   UNL     1       4.896   5.484  -0.004  0.00  0.00    +0.017 A 
ATOM      2  C   UNL     1       6.107   6.178  -0.018  0.00  0.00    +0.012 A 
ATOM      3  C   UNL     1       6.108   7.558  -0.005  0.00  0.00    +0.005 A 
ATOM      4  C   UNL     1       4.912   8.253   0.022  0.00  0.00    -0.033 A 
ATOM      5  C   UNL     1       3.708   7.572   0.037  0.00  0.00    +0.005 A 
ATOM      6  C   UNL     1       3.693   6.192   0.017  0.00  0.00    +0.012 A 
ENDROOT
BRANCH   1  12
ATOM      7  C   UNL     1       3.682   2.031  -0.023  0.00  0.00    +0.080 A 
ATOM      8  C   UNL     1       4.857   1.296  -0.044  0.00  0.00    +0.098 A 
ATOM      9  C   UNL     1       6.083   1.983  -0.052  0.00  0.00    +0.252 A 
ATOM     10  O   UNL     1       7.138   1.371  -0.071  0.00  0.00    -0.268 OA
ATOM     11  N   UNL     1       6.072   3.333  -0.039  0.00  0.00    -0.307 N 
ATOM     12  C   UNL     1       4.887   4.006  -0.018  0.00  0.00    +0.141 A 
ATOM     13  N   UNL     1       3.736   3.370  -0.016  0.00  0.00    -0.229 NA
ATOM     14  H   UNL     1       6.908   3.824  -0.045  0.00  0.00    +0.170 HD
BRANCH   7  17
ATOM     15  C   UNL     1      -0.017   1.379   0.010  0.00  0.00    +0.020 A 
ATOM     16  C   UNL     1       1.181   2.072   0.002  0.00  0.00    +0.013 A 
ATOM     17  C   UNL     1       2.372   1.339  -0.013  0.00  0.00    +0.019 A 
ATOM     18  C   UNL     1       2.306  -0.054  -0.020  0.00  0.00    +0.120 A 
ATOM     19  N   UNL     1       1.141  -0.669  -0.013  0.00  0.00    -0.263 NA
ATOM     20  C   UNL     1       0.002  -0.004   0.002  0.00  0.00    +0.111 A 
ENDBRANCH   7  17
ENDBRANCH   1  12
BRANCH   4  21
ATOM     21  C   UNL     1       4.921   9.760   0.037  0.00  0.00    +0.119 C 
BRANCH  21  22
ATOM     22  N   UNL     1       4.901  10.263  -1.343  0.00  0.00    -0.298 NA
ATOM     23  C   UNL     1       6.137   9.908  -2.051  0.00  0.00    +0.085 C 
ATOM     24  C   UNL     1       6.021  10.318  -3.521  0.00  0.00    +0.016 C 
ATOM     25  C   UNL     1       5.777  11.828  -3.607  0.00  0.00    +0.004 C 
ATOM     26  C   UNL     1       4.511  12.178  -2.821  0.00  0.00    -0.014 C 
ATOM     27  C   UNL     1       4.671  11.713  -1.371  0.00  0.00    +0.086 C 
BRANCH  26  28
ATOM     28  C   UNL     1       4.292  13.692  -2.852  0.00  0.00    -0.082 C 
BRANCH  28  29
ATOM     29  N   UNL     1       4.024  14.120  -4.231  0.00  0.00    +0.378 N 
ATOM     30  H   UNL     1       3.880  15.118  -4.252  0.00  0.00    -0.090 HD
ATOM     31  H   UNL     1       4.811  13.881  -4.816  0.00  0.00    -0.090 HD
ATOM     32  H   UNL     1       3.197  13.653  -4.573  0.00  0.00    -0.090 HD
ENDBRANCH  28  29
ENDBRANCH  26  28
ENDBRANCH  21  22
ENDBRANCH   4  21
TORSDOF 6
