REMARK  Name = ZINC13393585
REMARK  9 active torsions:
REMARK  status: ('A' for Active; 'I' for Inactive)
REMARK    1  A    between atoms: C_1  and  C_2
REMARK    2  A    between atoms: C_2  and  C_3
REMARK    3  A    between atoms: C_3  and  C_5
REMARK    4  A    between atoms: C_3  and  N_6
REMARK    5  A    between atoms: C_16  and  S_17
REMARK    6  A    between atoms: S_17  and  C_18
REMARK    7  A    between atoms: C_18  and  C_19
REMARK    8  A    between atoms: C_27  and  C_33
REMARK    9  A    between atoms: C_28  and  C_30
REMARK                            x       y       z     vdW  Elec       q    Type
REMARK                         _______ _______ _______ _____ _____    ______ ____
ROOT
ATOM      1  S   UNL     1      -4.599   1.032   0.009  0.00  0.00    -0.083 S 
ENDROOT
BRANCH   1  12
ATOM      2  N   UNL     1      -3.212  -0.511  -1.711  0.00  0.00    -0.284 N 
ATOM      3  C   UNL     1      -2.712  -0.869  -2.917  0.00  0.00    +0.263 A 
ATOM      4  O   UNL     1      -2.041  -1.875  -3.049  0.00  0.00    -0.267 OA
ATOM      5  C   UNL     1      -3.012   0.003  -4.061  0.00  0.00    +0.065 A 
ATOM      6  C   UNL     1      -2.544  -0.279  -5.344  0.00  0.00    +0.015 A 
ATOM      7  C   UNL     1      -2.852   0.566  -6.374  0.00  0.00    +0.001 A 
ATOM      8  C   UNL     1      -3.625   1.699  -6.156  0.00  0.00    +0.002 A 
ATOM      9  C   UNL     1      -4.097   1.999  -4.909  0.00  0.00    +0.028 A 
ATOM     10  C   UNL     1      -3.799   1.155  -3.835  0.00  0.00    +0.079 A 
ATOM     11  N   UNL     1      -4.244   1.413  -2.589  0.00  0.00    -0.223 NA
ATOM     12  C   UNL     1      -3.969   0.619  -1.583  0.00  0.00    +0.173 A 
BRANCH   2  13
ATOM     13  C   UNL     1      -2.945  -1.344  -0.537  0.00  0.00    +0.089 C 
ATOM     14  C   UNL     1      -3.498  -2.751  -0.773  0.00  0.00    +0.031 C 
BRANCH  13  16
ATOM     15  C   UNL     1      -0.902  -0.035   0.059  0.00  0.00    +0.006 C 
ATOM     16  C   UNL     1      -1.435  -1.423  -0.300  0.00  0.00    +0.021 C 
ENDBRANCH  13  16
ENDBRANCH   2  13
ENDBRANCH   1  12
BRANCH   1  17
ATOM     17  C   UNL     1      -5.524   2.567  -0.269  0.00  0.00    +0.113 C 
BRANCH  17  18
ATOM     18  C   UNL     1      -6.123   3.036   1.032  0.00  0.00    -0.022 A 
ATOM     19  C   UNL     1      -7.396   2.707   1.347  0.00  0.00    +0.075 A 
ATOM     20  C   UNL     1      -7.972   3.136   2.558  0.00  0.00    +0.250 A 
ATOM     21  O   UNL     1      -9.122   2.832   2.828  0.00  0.00    -0.268 OA
ATOM     22  N   UNL     1      -7.251   3.882   3.417  0.00  0.00    -0.317 N 
ATOM     23  H   UNL     1      -7.651   4.176   4.251  0.00  0.00    +0.169 HD
ATOM     24  C   UNL     1      -5.970   4.227   3.126  0.00  0.00    +0.089 A 
ATOM     25  C   UNL     1      -5.342   3.824   1.937  0.00  0.00    +0.014 A 
ATOM     26  C   UNL     1      -4.014   4.251   1.777  0.00  0.00    -0.020 A 
ATOM     27  C   UNL     1      -3.475   5.001   2.783  0.00  0.00    +0.106 A 
ATOM     28  S   UNL     1      -4.818   5.122   3.946  0.00  0.00    -0.064 S 
ATOM     29  C   UNL     1      -3.218   3.897   0.547  0.00  0.00    +0.046 C 
BRANCH  27  30
ATOM     30  C   UNL     1      -2.172   5.553   2.874  0.00  0.00    +0.393 C 
ATOM     31  O   UNL     1      -1.367   5.377   1.968  0.00  0.00    -0.240 OA
ATOM     32  O   UNL     1      -1.852   6.207   3.860  0.00  0.00    -0.240 OA
ENDBRANCH  27  30
ENDBRANCH  17  18
ENDBRANCH   1  17
TORSDOF 6
