REMARK  Name = ZINC66704856
REMARK  9 active torsions:
REMARK  status: ('A' for Active; 'I' for Inactive)
REMARK    1  A    between atoms: C_1  and  C_2
REMARK    2  A    between atoms: C_2  and  C_3
REMARK    3  A    between atoms: C_2  and  C_4
REMARK    4  A    between atoms: C_2  and  C_5
REMARK    5  A    between atoms: C_10  and  O_11
REMARK    6  A    between atoms: O_11  and  C_12
REMARK    7  A    between atoms: C_12  and  C_13
REMARK    8  A    between atoms: C_13  and  N_14
REMARK    9  A    between atoms: N_17  and  N_18
REMARK                            x       y       z     vdW  Elec       q    Type
REMARK                         _______ _______ _______ _____ _____    ______ ____
ROOT
ATOM      1  C   UNL     1      -0.078  -4.982   0.238  0.00  0.00    +0.146 C 
ENDROOT
BRANCH   1   2
ATOM      2  N   UNL     1      -1.529  -4.779   0.258  0.00  0.00    -0.295 N 
ATOM      3  C   UNL     1      -2.288  -5.430   1.162  0.00  0.00    +0.316 C 
ATOM      4  O   UNL     1      -1.769  -6.186   1.960  0.00  0.00    -0.251 OA
ATOM      5  N   UNL     1      -3.623  -5.244   1.180  0.00  0.00    -0.217 N 
ATOM      6  H   UNL     1      -1.943  -4.176  -0.379  0.00  0.00    +0.150 HD
ATOM      7  H   UNL     1      -4.169  -5.713   1.830  0.00  0.00    +0.174 HD
BRANCH   5   8
ATOM      8  N   UNL     1      -4.221  -4.373   0.260  0.00  0.00    -0.217 N 
ATOM      9  C   UNL     1      -5.556  -4.186   0.278  0.00  0.00    +0.313 C 
ATOM     10  O   UNL     1      -6.075  -3.431  -0.520  0.00  0.00    -0.252 OA
ATOM     11  N   UNL     1      -6.315  -4.838   1.182  0.00  0.00    -0.312 N 
ATOM     12  H   UNL     1      -3.675  -3.904  -0.390  0.00  0.00    +0.174 HD
ATOM     13  H   UNL     1      -5.901  -5.441   1.819  0.00  0.00    +0.147 HD
ATOM     14  H   UNL     1      -7.275  -4.704   1.195  0.00  0.00    +0.147 HD
ENDBRANCH   5   8
ENDBRANCH   1   2
BRANCH   1  15
ATOM     15  C   UNL     1       0.540  -4.132  -0.874  0.00  0.00    +0.248 C 
BRANCH  15  16
ATOM     16  O   UNL     1       0.356  -2.747  -0.573  0.00  0.00    -0.490 OA
BRANCH  16  22
ATOM     17  C   UNL     1       0.707  -0.490  -1.238  0.00  0.00    -0.000 A 
ATOM     18  C   UNL     1       1.217   0.419  -2.145  0.00  0.00    +0.008 A 
ATOM     19  C   UNL     1       1.863  -0.026  -3.283  0.00  0.00    +0.001 A 
ATOM     20  C   UNL     1       2.003  -1.382  -3.516  0.00  0.00    +0.004 A 
ATOM     21  C   UNL     1       1.496  -2.295  -2.612  0.00  0.00    +0.046 A 
ATOM     22  C   UNL     1       0.851  -1.851  -1.467  0.00  0.00    +0.124 A 
BRANCH  17  24
ATOM     23  C   UNL     1      -0.019   1.526   0.010  0.00  0.00    +0.015 C 
ATOM     24  C   UNL     1       0.002  -0.004   0.002  0.00  0.00    -0.009 C 
ATOM     25  C   UNL     1       0.742  -0.511   1.242  0.00  0.00    +0.015 C 
ATOM     26  C   UNL     1      -1.433  -0.534   0.013  0.00  0.00    +0.015 C 
ENDBRANCH  17  24
ENDBRANCH  16  22
ENDBRANCH  15  16
ENDBRANCH   1  15
TORSDOF 6
