REMARK  Name = ZINC34954412
REMARK  9 active torsions:
REMARK  status: ('A' for Active; 'I' for Inactive)
REMARK    1  A    between atoms: C_1  and  C_2
REMARK    2  A    between atoms: C_2  and  O_3
REMARK    3  A    between atoms: O_3  and  C_4
REMARK    4  A    between atoms: C_6  and  C_11
REMARK    5  A    between atoms: C_9  and  O_10
REMARK    6  A    between atoms: C_13  and  C_14
REMARK    7  A    between atoms: C_14  and  C_15
REMARK    8  A    between atoms: C_17  and  C_22
REMARK    9  A    between atoms: C_20  and  C_21
REMARK                            x       y       z     vdW  Elec       q    Type
REMARK                         _______ _______ _______ _____ _____    ______ ____
ROOT
ATOM      1  C   UNL     1      -0.755  -4.991   0.176  0.00  0.00    +0.152 C 
ATOM      2  C   UNL     1       0.342  -5.687   0.949  0.00  0.00    +0.077 C 
ATOM      3  C   UNL     1       0.330  -6.984   0.561  0.00  0.00    +0.250 C 
ATOM      4  O   UNL     1       1.161  -7.947   1.021  0.00  0.00    -0.282 OA
ATOM      5  C   UNL     1      -0.736  -7.181  -0.444  0.00  0.00    +0.293 C 
ATOM      6  O   UNL     1      -0.998  -8.237  -0.984  0.00  0.00    -0.266 OA
ATOM      7  N   UNL     1      -1.372  -6.018  -0.672  0.00  0.00    -0.232 N 
ATOM      8  C   UNL     1      -2.424  -5.824  -1.550  0.00  0.00    +0.169 A 
ATOM      9  N   UNL     1      -3.079  -4.718  -1.819  0.00  0.00    -0.224 NA
ATOM     10  C   UNL     1      -4.095  -4.674  -2.708  0.00  0.00    +0.080 A 
ATOM     11  C   UNL     1      -4.877  -3.558  -3.086  0.00  0.00    +0.032 A 
ATOM     12  C   UNL     1      -5.879  -3.685  -4.011  0.00  0.00    +0.040 A 
ATOM     13  C   UNL     1      -6.163  -4.906  -4.610  0.00  0.00    +0.125 A 
ATOM     14  C   UNL     1      -5.417  -6.020  -4.263  0.00  0.00    +0.055 A 
ATOM     15  C   UNL     1      -4.412  -5.900  -3.337  0.00  0.00    +0.043 A 
ATOM     16  S   UNL     1      -3.230  -7.013  -2.613  0.00  0.00    -0.052 S 
ATOM     17  F   UNL     1      -7.157  -5.006  -5.519  0.00  0.00    -0.205 F 
ENDROOT
BRANCH   1  20
ATOM     18  C   UNL     1       0.167  -1.563  -1.117  0.00  0.00    +0.162 A 
ATOM     19  C   UNL     1      -0.369  -2.572  -0.333  0.00  0.00    +0.055 A 
ATOM     20  C   UNL     1      -0.171  -3.895  -0.678  0.00  0.00    -0.018 A 
ATOM     21  C   UNL     1       0.561  -4.216  -1.806  0.00  0.00    +0.009 A 
ATOM     22  C   UNL     1       1.099  -3.215  -2.593  0.00  0.00    +0.049 A 
ATOM     23  C   UNL     1       0.899  -1.886  -2.256  0.00  0.00    +0.158 A 
BRANCH  23  24
ATOM     24  O   UNL     1       1.422  -0.900  -3.032  0.00  0.00    -0.503 OA
ATOM     25  H   UNL     1       2.314  -0.629  -2.776  0.00  0.00    +0.292 HD
ENDBRANCH  23  24
BRANCH  18  26
ATOM     26  O   UNL     1      -0.028  -0.260  -0.779  0.00  0.00    -0.489 OA
BRANCH  26  28
ATOM     27  C   UNL     1      -0.886   1.504   0.632  0.00  0.00    +0.048 C 
ATOM     28  C   UNL     1      -0.699  -0.004   0.456  0.00  0.00    +0.226 C 
ENDBRANCH  26  28
ENDBRANCH  18  26
ENDBRANCH   1  20
BRANCH   2  29
ATOM     29  C   UNL     1       1.243  -5.075   1.929  0.00  0.00    +0.195 C 
ATOM     30  O   UNL     1       1.157  -3.887   2.177  0.00  0.00    -0.287 OA
BRANCH  29  31
ATOM     31  C   UNL     1       2.257  -5.903   2.618  0.00  0.00    +0.025 A 
ATOM     32  C   UNL     1       3.601  -5.818   2.247  0.00  0.00    +0.015 A 
ATOM     33  C   UNL     1       4.542  -6.592   2.893  0.00  0.00    -0.050 A 
ATOM     34  C   UNL     1       4.157  -7.452   3.907  0.00  0.00    +0.003 A 
ATOM     35  C   UNL     1       2.827  -7.541   4.280  0.00  0.00    +0.004 A 
ATOM     36  C   UNL     1       1.877  -6.768   3.645  0.00  0.00    -0.040 A 
ATOM     37  C   UNL     1       0.430  -6.862   4.056  0.00  0.00    +0.044 C 
ATOM     38  C   UNL     1       5.992  -6.502   2.494  0.00  0.00    +0.044 C 
ENDBRANCH  29  31
ENDBRANCH   2  29
TORSDOF 6
