REMARK  Name = ZINC00349584
REMARK  11 active torsions:
REMARK  status: ('A' for Active; 'I' for Inactive)
REMARK    1  A    between atoms: C_1  and  C_2
REMARK    2  A    between atoms: C_2  and  O_3
REMARK    3  A    between atoms: O_3  and  C_4
REMARK    4  A    between atoms: C_7  and  C_10
REMARK    5  A    between atoms: N_11  and  N_12
REMARK    6  A    between atoms: C_13  and  C_15
REMARK    7  A    between atoms: C_15  and  O_16
REMARK    8  A    between atoms: O_16  and  C_17
REMARK    9  A    between atoms: C_18  and  C_25
REMARK   10  A    between atoms: C_20  and  C_24
REMARK   11  A    between atoms: C_22  and  C_23
REMARK                            x       y       z     vdW  Elec       q    Type
REMARK                         _______ _______ _______ _____ _____    ______ ____
ROOT
ATOM      1  N   UNL     1      -5.026   5.265  -2.065  0.00  0.00    -0.204 N 
ATOM      2  C   UNL     1      -4.300   4.857  -1.006  0.00  0.00    +0.270 C 
ATOM      3  O   UNL     1      -4.694   5.077   0.121  0.00  0.00    -0.270 OA
ATOM      4  H   UNL     1      -4.712   5.089  -2.966  0.00  0.00    +0.177 HD
ENDROOT
BRANCH   1   6
ATOM      5  C   UNL     1      -6.935   6.337  -2.886  0.00  0.00    +0.138 C 
ATOM      6  N   UNL     1      -6.236   5.944  -1.866  0.00  0.00    -0.188 NA
BRANCH   5  10
ATOM      7  C   UNL     1     -10.600   8.394  -2.282  0.00  0.00    +0.121 A 
ATOM      8  C   UNL     1     -10.151   8.143  -3.573  0.00  0.00    +0.046 A 
ATOM      9  C   UNL     1      -8.962   7.476  -3.773  0.00  0.00    +0.013 A 
ATOM     10  C   UNL     1      -8.207   7.051  -2.676  0.00  0.00    -0.005 A 
ATOM     11  C   UNL     1      -8.666   7.301  -1.380  0.00  0.00    +0.013 A 
ATOM     12  C   UNL     1      -9.853   7.974  -1.189  0.00  0.00    +0.046 A 
BRANCH   7  13
ATOM     13  O   UNL     1     -11.772   9.052  -2.089  0.00  0.00    -0.492 OA
BRANCH  13  15
ATOM     14  C   UNL     1     -13.509  10.026  -0.719  0.00  0.00    +0.048 C 
ATOM     15  C   UNL     1     -12.175   9.277  -0.737  0.00  0.00    +0.225 C 
ENDBRANCH  13  15
ENDBRANCH   7  13
ENDBRANCH   5  10
ENDBRANCH   1   6
BRANCH   2  16
ATOM     16  C   UNL     1      -2.999   4.127  -1.220  0.00  0.00    +0.326 C 
BRANCH  16  17
ATOM     17  O   UNL     1      -2.422   3.802   0.046  0.00  0.00    -0.482 OA
BRANCH  17  18
ATOM     18  C   UNL     1      -1.237   3.137   0.031  0.00  0.00    +0.127 A 
ATOM     19  C   UNL     1      -1.218   1.750   0.017  0.00  0.00    -0.008 A 
ATOM     20  C   UNL     1      -0.013   1.076   0.008  0.00  0.00    +0.010 A 
ATOM     21  C   UNL     1       1.176   1.783   0.000  0.00  0.00    -0.050 A 
ATOM     22  C   UNL     1       1.160   3.165   0.008  0.00  0.00    +0.010 A 
ATOM     23  C   UNL     1      -0.043   3.844   0.024  0.00  0.00    -0.008 A 
ATOM     24  C   UNL     1      -0.059   5.351   0.032  0.00  0.00    +0.047 C 
ATOM     25  C   UNL     1       2.490   1.045  -0.016  0.00  0.00    +0.044 C 
ATOM     26  C   UNL     1      -2.513   0.979   0.019  0.00  0.00    +0.047 C 
ENDBRANCH  17  18
ENDBRANCH  16  17
ENDBRANCH   2  16
TORSDOF 7
