REMARK  Name = ZINC04963790
REMARK  7 active torsions:
REMARK  status: ('A' for Active; 'I' for Inactive)
REMARK    1  A    between atoms: C_1  and  C_2
REMARK    2  A    between atoms: N_4  and  N_5
REMARK    3  A    between atoms: N_5  and  C_6
REMARK    4  A    between atoms: C_15  and  O_20
REMARK    5  A    between atoms: C_16  and  O_18
REMARK    6  A    between atoms: O_18  and  C_19
REMARK    7  A    between atoms: O_20  and  C_21
REMARK                            x       y       z     vdW  Elec       q    Type
REMARK                         _______ _______ _______ _____ _____    ______ ____
ROOT
ATOM      1  C   UNL     1       0.002  -0.004   0.002  0.00  0.00    +0.103 C 
ATOM      2  C   UNL     1       0.855  -0.513   1.166  0.00  0.00    +0.025 C 
ATOM      3  C   UNL     1       0.431  -1.909   1.579  0.00  0.00    +0.002 C 
ATOM      4  C   UNL     1       0.730  -2.984   0.553  0.00  0.00    +0.005 C 
ATOM      5  C   UNL     1      -0.140  -2.807  -0.694  0.00  0.00    +0.035 C 
ATOM      6  C   UNL     1       0.546  -1.827  -1.623  0.00  0.00    -0.039 A 
ATOM      7  C   UNL     1       0.609  -0.498  -1.295  0.00  0.00    -0.022 A 
ATOM      8  C   UNL     1       1.230   0.404  -2.142  0.00  0.00    +0.055 A 
ATOM      9  C   UNL     1       1.787  -0.043  -3.330  0.00  0.00    +0.162 A 
ATOM     10  C   UNL     1       1.718  -1.392  -3.664  0.00  0.00    +0.162 A 
ATOM     11  C   UNL     1       1.103  -2.285  -2.804  0.00  0.00    +0.053 A 
ENDROOT
BRANCH   1  12
ATOM     12  N   UNL     1      -0.018   1.465   0.010  0.00  0.00    -0.233 NA
ATOM     13  H   UNL     1      -0.531   1.824  -0.781  0.00  0.00    +0.145 HD
BRANCH  12  17
ATOM     14  C   UNL     1       2.842   3.864   0.088  0.00  0.00    +0.110 C 
ATOM     15  C   UNL     1       1.443   3.305   0.053  0.00  0.00    +0.223 C 
ATOM     16  O   UNL     1       0.490   4.056   0.036  0.00  0.00    -0.275 OA
ATOM     17  N   UNL     1       1.250   1.971   0.041  0.00  0.00    -0.251 N 
ATOM     18  H   UNL     1       2.012   1.371   0.055  0.00  0.00    +0.169 HD
ENDBRANCH  12  17
ENDBRANCH   1  12
BRANCH  10  19
ATOM     19  O   UNL     1       2.263  -1.834  -4.829  0.00  0.00    -0.491 OA
ATOM     20  C   UNL     1       2.155  -3.232  -5.107  0.00  0.00    +0.277 C 
ENDBRANCH  10  19
BRANCH   9  21
ATOM     21  O   UNL     1       2.399   0.835  -4.168  0.00  0.00    -0.491 OA
ATOM     22  C   UNL     1       2.432   2.205  -3.761  0.00  0.00    +0.277 C 
ENDBRANCH   9  21
TORSDOF 4
