REMARK  Name = ZINC62743619
REMARK  6 active torsions:
REMARK  status: ('A' for Active; 'I' for Inactive)
REMARK    1  A    between atoms: C_1  and  C_2
REMARK    2  A    between atoms: C_2  and  C_3
REMARK    3  A    between atoms: C_2  and  C_4
REMARK    4  A    between atoms: C_4  and  N_5
REMARK    5  A    between atoms: N_9  and  C_12
REMARK    6  A    between atoms: C_15  and  N_18
REMARK                            x       y       z     vdW  Elec       q    Type
REMARK                         _______ _______ _______ _____ _____    ______ ____
ROOT
ATOM      1  N   UNL     1       0.003  -0.147   2.453  0.00  0.00    -0.276 N 
ATOM      2  C   UNL     1       0.126   1.108   3.215  0.00  0.00    +0.206 C 
ATOM      3  C   UNL     1      -0.894   0.951   4.326  0.00  0.00    +0.245 C 
ATOM      4  O   UNL     1      -1.146   1.747   5.205  0.00  0.00    -0.273 OA
ATOM      5  N   UNL     1      -1.462  -0.255   4.132  0.00  0.00    -0.193 N 
ATOM      6  C   UNL     1      -0.952  -0.874   3.061  0.00  0.00    +0.316 C 
ATOM      7  O   UNL     1      -1.308  -1.973   2.682  0.00  0.00    -0.252 OA
ENDROOT
BRANCH   5   8
ATOM      8  C   UNL     1      -2.468  -0.794   4.949  0.00  0.00    +0.046 A 
ATOM      9  C   UNL     1      -3.077  -1.992   4.602  0.00  0.00    +0.026 A 
ATOM     10  C   UNL     1      -4.066  -2.522   5.406  0.00  0.00    +0.024 A 
ATOM     11  C   UNL     1      -4.452  -1.857   6.563  0.00  0.00    +0.025 A 
ATOM     12  C   UNL     1      -3.842  -0.658   6.910  0.00  0.00    +0.024 A 
ATOM     13  C   UNL     1      -2.849  -0.131   6.108  0.00  0.00    +0.026 A 
BRANCH  11  14
ATOM     14  N   UNL     1      -5.454  -2.393   7.377  0.00  0.00    -0.358 N 
ATOM     15  H   UNL     1      -5.880  -3.230   7.134  0.00  0.00    +0.142 HD
ATOM     16  H   UNL     1      -5.723  -1.929   8.185  0.00  0.00    +0.142 HD
ENDBRANCH  11  14
ENDBRANCH   5   8
BRANCH   1  17
ATOM     17  C   UNL     1       0.765  -0.525   1.261  0.00  0.00    +0.113 C 
BRANCH  17  19
ATOM     18  C   UNL     1      -0.008   1.486  -0.003  0.00  0.00    +0.009 C 
ATOM     19  C   UNL     1       0.029  -0.043   0.009  0.00  0.00    +0.000 C 
ATOM     20  C   UNL     1       0.760  -0.545  -1.238  0.00  0.00    +0.009 C 
ENDBRANCH  17  19
ENDBRANCH   1  17
TORSDOF 4
