REMARK  Name = ZINC67282900
REMARK  4 active torsions:
REMARK  status: ('A' for Active; 'I' for Inactive)
REMARK    1  A    between atoms: C_1  and  C_2
REMARK    2  A    between atoms: C_5  and  C_25
REMARK    3  A    between atoms: C_7  and  N_8
REMARK    4  A    between atoms: C_15  and  C_18
REMARK                            x       y       z     vdW  Elec       q    Type
REMARK                         _______ _______ _______ _____ _____    ______ ____
ROOT
ATOM      1  N   UNL     1       0.027  -0.007   2.418  0.00  0.00    -0.269 N 
ATOM      2  C   UNL     1      -0.057  -0.682   3.581  0.00  0.00    +0.307 C 
ATOM      3  O   UNL     1      -0.042  -1.898   3.580  0.00  0.00    -0.252 OA
ATOM      4  N   UNL     1      -0.156  -0.010   4.745  0.00  0.00    -0.280 N 
ATOM      5  C   UNL     1      -0.294   1.455   4.764  0.00  0.00    +0.137 C 
ATOM      6  C   UNL     1      -1.485   1.817   5.659  0.00  0.00    +0.179 C 
ATOM      7  O   UNL     1      -1.332   1.177   6.928  0.00  0.00    -0.369 OA
ATOM      8  C   UNL     1      -1.330  -0.251   6.867  0.00  0.00    +0.166 C 
ATOM      9  C   UNL     1      -0.137  -0.720   6.034  0.00  0.00    +0.145 C 
ATOM     10  H   UNL     1       0.075   0.962   2.421  0.00  0.00    +0.156 HD
ENDROOT
BRANCH   1  17
ATOM     11  C   UNL     1      -0.988   1.302   0.108  0.00  0.00    +0.045 C 
ATOM     12  C   UNL     1      -0.442  -0.101   0.050  0.00  0.00    -0.029 A 
ATOM     13  C   UNL     1      -0.422  -0.783  -1.153  0.00  0.00    +0.006 A 
ATOM     14  C   UNL     1       0.075  -2.068  -1.214  0.00  0.00    +0.013 A 
ATOM     15  C   UNL     1       0.561  -2.685  -0.059  0.00  0.00    +0.038 A 
ATOM     16  C   UNL     1       0.541  -1.997   1.153  0.00  0.00    +0.036 A 
ATOM     17  C   UNL     1       0.044  -0.704   1.204  0.00  0.00    +0.038 A 
BRANCH  15  18
ATOM     18  C   UNL     1       1.095  -4.062  -0.122  0.00  0.00    +0.242 C 
ATOM     19  O   UNL     1       1.517  -4.597   0.884  0.00  0.00    -0.270 OA
ATOM     20  N   UNL     1       1.112  -4.725  -1.296  0.00  0.00    -0.325 N 
ATOM     21  H   UNL     1       0.775  -4.299  -2.099  0.00  0.00    +0.145 HD
ATOM     22  H   UNL     1       1.462  -5.629  -1.337  0.00  0.00    +0.145 HD
ENDBRANCH  15  18
ENDBRANCH   1  17
BRANCH   8  23
ATOM     23  C   UNL     1      -1.227  -0.815   8.261  0.00  0.00    -0.015 A 
ATOM     24  C   UNL     1      -0.476  -0.157   9.218  0.00  0.00    +0.006 A 
ATOM     25  C   UNL     1      -0.381  -0.673  10.497  0.00  0.00    +0.003 A 
ATOM     26  C   UNL     1      -1.035  -1.847  10.820  0.00  0.00    +0.038 A 
ATOM     27  C   UNL     1      -1.786  -2.506   9.862  0.00  0.00    +0.124 A 
ATOM     28  C   UNL     1      -1.886  -1.985   8.583  0.00  0.00    +0.044 A 
ATOM     29  F   UNL     1      -2.426  -3.654  10.177  0.00  0.00    -0.205 F 
ENDBRANCH   8  23
TORSDOF 3
