REMARK  Name = ZINC66599555
REMARK  9 active torsions:
REMARK  status: ('A' for Active; 'I' for Inactive)
REMARK    1  A    between atoms: C_1  and  C_2
REMARK    2  A    between atoms: C_2  and  C_3
REMARK    3  A    between atoms: C_3  and  C_4
REMARK    4  A    between atoms: C_4  and  N_5
REMARK    5  A    between atoms: C_10  and  C_12
REMARK    6  A    between atoms: C_12  and  N_13
REMARK    7  A    between atoms: C_20  and  C_23
REMARK    8  A    between atoms: C_23  and  C_24
REMARK    9  A    between atoms: C_24  and  C_25
REMARK                            x       y       z     vdW  Elec       q    Type
REMARK                         _______ _______ _______ _____ _____    ______ ____
ROOT
ATOM      1  N   UNL     1      -0.790  -3.767  -1.633  0.00  0.00    -0.301 N 
ATOM      2  C   UNL     1      -2.088  -4.082  -1.454  0.00  0.00    +0.302 C 
ATOM      3  O   UNL     1      -2.639  -4.849  -2.220  0.00  0.00    -0.253 OA
ATOM      4  N   UNL     1      -2.776  -3.545  -0.427  0.00  0.00    -0.285 N 
ATOM      5  C   UNL     1      -2.161  -2.527   0.435  0.00  0.00    +0.109 C 
ATOM      6  C   UNL     1      -3.079  -1.301   0.482  0.00  0.00    +0.019 C 
ATOM      7  C   UNL     1      -4.479  -1.734   0.921  0.00  0.00    +0.006 C 
ATOM      8  C   UNL     1      -5.051  -2.726  -0.095  0.00  0.00    +0.007 C 
ATOM      9  C   UNL     1      -4.158  -3.963  -0.152  0.00  0.00    +0.112 C 
ATOM     10  H   UNL     1      -0.370  -3.101  -1.067  0.00  0.00    +0.150 HD
ENDROOT
BRANCH   1  11
ATOM     11  C   UNL     1      -0.013  -4.432  -2.683  0.00  0.00    +0.090 C 
BRANCH  11  17
ATOM     12  N   UNL     1       1.948  -4.224  -1.233  0.00  0.00    +0.383 N 
ATOM     13  C   UNL     1       3.371  -3.873  -1.157  0.00  0.00    -0.078 C 
ATOM     14  C   UNL     1       3.548  -2.379  -1.436  0.00  0.00    -0.019 C 
ATOM     15  C   UNL     1       3.016  -2.061  -2.837  0.00  0.00    -0.003 C 
ATOM     16  C   UNL     1       1.551  -2.499  -2.927  0.00  0.00    -0.014 C 
ATOM     17  C   UNL     1       1.449  -3.989  -2.593  0.00  0.00    -0.051 C 
ATOM     18  H   UNL     1       1.428  -3.655  -0.582  0.00  0.00    -0.081 HD
BRANCH  12  19
ATOM     19  C   UNL     1       1.775  -5.642  -0.888  0.00  0.00    -0.078 C 
BRANCH  19  20
ATOM     20  C   UNL     1       2.187  -5.866   0.569  0.00  0.00    -0.019 C 
BRANCH  20  22
ATOM     21  C   UNL     1       2.419  -7.566   2.385  0.00  0.00    +0.004 C 
ATOM     22  C   UNL     1       2.007  -7.342   0.928  0.00  0.00    -0.005 C 
ENDBRANCH  20  22
ENDBRANCH  19  20
ENDBRANCH  12  19
ENDBRANCH  11  17
ENDBRANCH   1  11
BRANCH   8  23
ATOM     23  C   UNL     1      -6.464  -3.132   0.327  0.00  0.00    +0.014 C 
BRANCH  23  24
ATOM     24  C   UNL     1      -7.081  -4.025  -0.751  0.00  0.00    +0.096 C 
BRANCH  24  25
ATOM     25  C   UNL     1      -8.474  -4.425  -0.335  0.00  0.00    +0.210 C 
ATOM     26  O   UNL     1      -8.928  -4.034   0.719  0.00  0.00    -0.276 OA
ATOM     27  N   UNL     1      -9.214  -5.216  -1.136  0.00  0.00    -0.329 N 
ATOM     28  H   UNL     1      -8.851  -5.529  -1.979  0.00  0.00    +0.145 HD
ATOM     29  H   UNL     1     -10.111  -5.474  -0.868  0.00  0.00    +0.145 HD
ENDBRANCH  24  25
ENDBRANCH  23  24
ENDBRANCH   8  23
TORSDOF 8
