REMARK  Name = ZINC06817144
REMARK  3 active torsions:
REMARK  status: ('A' for Active; 'I' for Inactive)
REMARK    1  A    between atoms: C_1  and  C_2
REMARK    2  A    between atoms: C_10  and  S_16
REMARK    3  A    between atoms: S_16  and  N_19
REMARK                            x       y       z     vdW  Elec       q    Type
REMARK                         _______ _______ _______ _____ _____    ______ ____
ROOT
ATOM      1  C   UNL     1       0.003  -0.003   0.006  0.00  0.00    +0.027 C 
ATOM      2  C   UNL     1      -0.018   1.527   0.015  0.00  0.00    +0.158 C 
ATOM      3  C   UNL     1      -0.758   2.032  -1.197  0.00  0.00    +0.229 C 
ATOM      4  O   UNL     1      -0.193   2.775  -1.972  0.00  0.00    -0.275 OA
ATOM      5  N   UNL     1      -2.019   1.678  -1.432  0.00  0.00    -0.283 N 
ATOM      6  C   UNL     1      -2.773   0.803  -0.657  0.00  0.00    +0.055 A 
ATOM      7  C   UNL     1      -3.582  -0.109  -1.340  0.00  0.00    +0.027 A 
ATOM      8  C   UNL     1      -4.362  -1.012  -0.652  0.00  0.00    +0.031 A 
ATOM      9  C   UNL     1      -4.350  -1.020   0.732  0.00  0.00    +0.111 A 
ATOM     10  C   UNL     1      -3.556  -0.126   1.416  0.00  0.00    +0.054 A 
ATOM     11  C   UNL     1      -2.761   0.794   0.728  0.00  0.00    +0.057 A 
ATOM     12  N   UNL     1      -1.992   1.661   1.500  0.00  0.00    -0.283 N 
ATOM     13  C   UNL     1      -0.736   2.018   1.245  0.00  0.00    +0.229 C 
ATOM     14  O   UNL     1      -0.157   2.753   2.018  0.00  0.00    -0.275 OA
ATOM     15  H   UNL     1      -2.449   2.063  -2.211  0.00  0.00    +0.155 HD
ATOM     16  H   UNL     1      -2.408   2.037   2.292  0.00  0.00    +0.155 HD
ENDROOT
BRANCH   9  17
ATOM     17  S   UNL     1      -5.346  -2.173   1.617  0.00  0.00    +0.075 S 
ATOM     18  O   UNL     1      -5.569  -1.613   2.903  0.00  0.00    -0.150 OA
ATOM     19  O   UNL     1      -6.411  -2.539   0.750  0.00  0.00    -0.150 OA
BRANCH  17  20
ATOM     20  N   UNL     1      -4.433  -3.535   1.845  0.00  0.00    -0.203 N 
ATOM     21  C   UNL     1      -4.532  -4.666   0.912  0.00  0.00    +0.132 C 
ATOM     22  C   UNL     1      -4.605  -5.954   1.743  0.00  0.00    +0.025 C 
ATOM     23  C   UNL     1      -3.304  -6.108   2.530  0.00  0.00    +0.038 C 
ATOM     24  C   UNL     1      -2.995  -4.845   3.290  0.00  0.00    -0.025 A 
ATOM     25  C   UNL     1      -3.550  -3.626   2.927  0.00  0.00    +0.054 A 
ATOM     26  C   UNL     1      -3.244  -2.480   3.651  0.00  0.00    +0.025 A 
ATOM     27  C   UNL     1      -2.381  -2.551   4.726  0.00  0.00    +0.002 A 
ATOM     28  C   UNL     1      -1.826  -3.765   5.086  0.00  0.00    +0.000 A 
ATOM     29  C   UNL     1      -2.132  -4.907   4.371  0.00  0.00    +0.005 A 
ENDBRANCH  17  20
ENDBRANCH   9  17
TORSDOF 2
