REMARK  Name = ZINC03839134
REMARK  12 active torsions:
REMARK  status: ('A' for Active; 'I' for Inactive)
REMARK    1  A    between atoms: C_1  and  C_2
REMARK    2  A    between atoms: C_2  and  C_3
REMARK    3  A    between atoms: C_2  and  N_4
REMARK    4  A    between atoms: N_7  and  C_8
REMARK    5  A    between atoms: C_13  and  C_15
REMARK    6  A    between atoms: N_17  and  C_18
REMARK    7  A    between atoms: C_18  and  C_20
REMARK    8  A    between atoms: C_18  and  C_26
REMARK    9  A    between atoms: C_20  and  C_21
REMARK   10  A    between atoms: C_29  and  C_31
REMARK   11  A    between atoms: C_32  and  C_33
REMARK   12  A    between atoms: C_32  and  C_34
REMARK                            x       y       z     vdW  Elec       q    Type
REMARK                         _______ _______ _______ _____ _____    ______ ____
ROOT
ATOM      1  C   UNL     1       4.167   2.722  -0.962  0.00  0.00    +0.105 C 
ATOM      2  C   UNL     1       4.262   2.708   0.587  0.00  0.00    +0.043 C 
ATOM      3  C   UNL     1       5.795   2.654   0.804  0.00  0.00    +0.111 C 
ATOM      4  N   UNL     1       6.299   1.786  -0.275  0.00  0.00    -0.285 N 
ATOM      5  C   UNL     1       5.338   1.811  -1.388  0.00  0.00    +0.182 C 
ATOM      6  C   UNL     1       7.450   1.086  -0.247  0.00  0.00    +0.240 C 
ATOM      7  O   UNL     1       7.768   0.400  -1.200  0.00  0.00    -0.271 OA
ENDROOT
BRANCH   1  11
ATOM      8  N   UNL     1       0.627   2.447  -1.917  0.00  0.00    -0.297 N 
ATOM      9  C   UNL     1       1.804   2.959  -1.506  0.00  0.00    +0.300 C 
ATOM     10  O   UNL     1       1.888   4.139  -1.224  0.00  0.00    -0.253 OA
ATOM     11  N   UNL     1       2.888   2.165  -1.408  0.00  0.00    -0.294 N 
ATOM     12  H   UNL     1       0.560   1.506  -2.142  0.00  0.00    +0.150 HD
ATOM     13  H   UNL     1       2.821   1.223  -1.633  0.00  0.00    +0.151 HD
BRANCH   8  15
ATOM     14  C   UNL     1      -1.521   2.722  -3.053  0.00  0.00    +0.027 C 
ATOM     15  C   UNL     1      -0.549   3.312  -2.029  0.00  0.00    +0.068 C 
ATOM     16  C   UNL     1      -1.241   3.411  -0.668  0.00  0.00    +0.027 C 
ENDBRANCH   8  15
ENDBRANCH   1  11
BRANCH   5  17
ATOM     17  C   UNL     1       5.998   2.368  -2.623  0.00  0.00    +0.236 C 
ATOM     18  O   UNL     1       7.026   3.005  -2.526  0.00  0.00    -0.274 OA
ATOM     19  N   UNL     1       5.446   2.160  -3.834  0.00  0.00    -0.302 N 
ATOM     20  H   UNL     1       4.624   1.651  -3.911  0.00  0.00    +0.150 HD
BRANCH  19  21
ATOM     21  C   UNL     1       6.087   2.702  -5.035  0.00  0.00    +0.163 C 
BRANCH  21  22
ATOM     22  C   UNL     1       5.647   4.128  -5.239  0.00  0.00    +0.231 C 
ATOM     23  O   UNL     1       4.873   4.642  -4.459  0.00  0.00    -0.274 OA
ATOM     24  N   UNL     1       6.112   4.833  -6.289  0.00  0.00    -0.328 N 
ATOM     25  H   UNL     1       6.731   4.423  -6.913  0.00  0.00    +0.145 HD
ATOM     26  H   UNL     1       5.829   5.752  -6.421  0.00  0.00    +0.145 HD
ENDBRANCH  21  22
BRANCH  21  27
ATOM     27  C   UNL     1       5.685   1.864  -6.250  0.00  0.00    +0.074 C 
BRANCH  27  28
ATOM     28  C   UNL     1       6.232   0.468  -6.101  0.00  0.00    -0.008 A 
ATOM     29  C   UNL     1       5.660  -0.616  -5.523  0.00  0.00    +0.011 A 
ATOM     30  C   UNL     1       6.355  -1.811  -5.502  0.00  0.00    +0.008 A 
ATOM     31  C   UNL     1       7.589  -1.863  -6.061  0.00  0.00    +0.045 A 
ATOM     32  S   UNL     1       7.799  -0.190  -6.648  0.00  0.00    -0.102 S 
ENDBRANCH  27  28
ENDBRANCH  21  27
ENDBRANCH  19  21
ENDBRANCH   5  17
BRANCH   6  33
ATOM     33  C   UNL     1       8.323   1.153   0.935  0.00  0.00    +0.066 C 
ATOM     34  C   UNL     1       9.397   0.372   1.014  0.00  0.00    -0.071 C 
ATOM     35  C   UNL     1       9.633  -0.691  -0.028  0.00  0.00    +0.039 C 
ATOM     36  C   UNL     1      10.378   0.552   2.144  0.00  0.00    +0.039 C 
ENDBRANCH   6  33
TORSDOF 8
