REMARK  Name = ZINC65260030
REMARK  5 active torsions:
REMARK  status: ('A' for Active; 'I' for Inactive)
REMARK    1  A    between atoms: C_1  and  N_2
REMARK    2  A    between atoms: N_2  and  C_3
REMARK    3  A    between atoms: N_2  and  S_4
REMARK    4  A    between atoms: S_4  and  N_7
REMARK    5  A    between atoms: N_22  and  C_23
REMARK                            x       y       z     vdW  Elec       q    Type
REMARK                         _______ _______ _______ _____ _____    ______ ____
ROOT
ATOM      1  N   UNL     1       1.581  -1.045  -1.877  0.00  0.00    -0.164 NA
ATOM      2  C   UNL     1       2.277  -0.044  -2.697  0.00  0.00    +0.111 C 
ATOM      3  C   UNL     1       3.568   0.368  -1.983  0.00  0.00    +0.020 C 
ATOM      4  C   UNL     1       4.401  -0.881  -1.681  0.00  0.00    +0.036 C 
ATOM      5  C   UNL     1       3.611  -1.816  -0.768  0.00  0.00    +0.100 C 
ATOM      6  C   UNL     1       2.317  -2.244  -1.450  0.00  0.00    +0.143 C 
ATOM      7  C   UNL     1       4.445  -3.039  -0.447  0.00  0.00    +0.098 C 
ATOM      8  N   UNL     1       5.535  -2.842   0.382  0.00  0.00    -0.301 N 
ATOM      9  C   UNL     1       5.389  -1.936   1.446  0.00  0.00    +0.053 A 
ATOM     10  C   UNL     1       6.345  -1.888   2.449  0.00  0.00    +0.025 A 
ATOM     11  C   UNL     1       6.205  -0.992   3.492  0.00  0.00    +0.002 A 
ATOM     12  C   UNL     1       5.116  -0.142   3.538  0.00  0.00    +0.002 A 
ATOM     13  C   UNL     1       4.157  -0.185   2.543  0.00  0.00    +0.025 A 
ATOM     14  C   UNL     1       4.287  -1.084   1.495  0.00  0.00    +0.049 A 
ATOM     15  N   UNL     1       3.302  -1.139   0.497  0.00  0.00    -0.329 N 
ATOM     16  N   UNL     1       4.153  -4.206  -0.922  0.00  0.00    -0.372 N 
ATOM     17  H   UNL     1       2.432  -0.735   0.641  0.00  0.00    +0.147 HD
ATOM     18  H   UNL     1       3.382  -4.316  -1.500  0.00  0.00    +0.161 HD
ATOM     19  H   UNL     1       6.370  -3.313   0.234  0.00  0.00    +0.153 HD
ENDROOT
BRANCH  16  20
ATOM     20  C   UNL     1       4.986  -5.364  -0.586  0.00  0.00    +0.080 C 
ATOM     21  C   UNL     1       6.150  -5.486  -1.591  0.00  0.00    +0.024 C 
ATOM     22  C   UNL     1       6.319  -7.013  -1.792  0.00  0.00    +0.002 C 
ATOM     23  C   UNL     1       4.856  -7.522  -1.780  0.00  0.00    +0.002 C 
ATOM     24  C   UNL     1       4.163  -6.658  -0.706  0.00  0.00    +0.024 C 
ENDBRANCH  16  20
BRANCH   1  25
ATOM     25  S   UNL     1      -0.000  -0.824  -1.437  0.00  0.00    +0.099 S 
ATOM     26  O   UNL     1      -0.531  -2.115  -1.167  0.00  0.00    -0.141 OA
ATOM     27  O   UNL     1      -0.572   0.049  -2.401  0.00  0.00    -0.141 OA
BRANCH  25  29
ATOM     28  C   UNL     1      -0.018   1.461   0.010  0.00  0.00    +0.132 C 
ATOM     29  N   UNL     1       0.002  -0.004   0.002  0.00  0.00    -0.172 NA
ATOM     30  C   UNL     1       0.024  -0.743   1.267  0.00  0.00    +0.132 C 
ENDBRANCH  25  29
ENDBRANCH   1  25
TORSDOF 3
