REMARK  Name = ZINC01852422
REMARK  8 active torsions:
REMARK  status: ('A' for Active; 'I' for Inactive)
REMARK    1  A    between atoms: C_1  and  O_2
REMARK    2  A    between atoms: O_2  and  C_3
REMARK    3  A    between atoms: C_6  and  C_11
REMARK    4  A    between atoms: C_8  and  O_9
REMARK    5  A    between atoms: O_9  and  C_10
REMARK    6  A    between atoms: C_13  and  C_37
REMARK    7  A    between atoms: C_37  and  C_39
REMARK    8  A    between atoms: C_43  and  N_45
REMARK                            x       y       z     vdW  Elec       q    Type
REMARK                         _______ _______ _______ _____ _____    ______ ____
ROOT
ATOM      1  C   UNL     1       2.658  -2.610   4.371  0.00  0.00    +0.070 C 
ATOM      2  C   UNL     1       2.076  -1.996   5.672  0.00  0.00    +0.154 C 
ATOM      3  N   UNL     1       3.167  -2.013   6.647  0.00  0.00    -0.311 N 
ATOM      4  C   UNL     1       3.134  -1.753   8.013  0.00  0.00    +0.038 A 
ATOM      5  C   UNL     1       2.089  -2.104   8.838  0.00  0.00    +0.024 A 
ATOM      6  C   UNL     1       2.162  -1.814  10.191  0.00  0.00    +0.002 A 
ATOM      7  C   UNL     1       3.275  -1.177  10.711  0.00  0.00    +0.001 A 
ATOM      8  C   UNL     1       4.327  -0.814   9.893  0.00  0.00    +0.010 A 
ATOM      9  C   UNL     1       4.265  -1.091   8.533  0.00  0.00    -0.004 A 
ATOM     10  C   UNL     1       5.340  -0.692   7.603  0.00  0.00    +0.007 C 
ATOM     11  C   UNL     1       5.437  -1.236   6.393  0.00  0.00    -0.003 C 
ATOM     12  C   UNL     1       4.447  -2.278   5.950  0.00  0.00    +0.119 C 
ATOM     13  C   UNL     1       4.141  -2.189   4.457  0.00  0.00    +0.127 C 
ATOM     14  C   UNL     1       5.011  -3.104   3.641  0.00  0.00    +0.180 C 
ATOM     15  O   UNL     1       5.126  -4.303   3.774  0.00  0.00    -0.291 OA
ATOM     16  C   UNL     1       5.691  -2.264   2.652  0.00  0.00    +0.029 A 
ATOM     17  C   UNL     1       6.601  -2.632   1.655  0.00  0.00    +0.012 A 
ATOM     18  C   UNL     1       7.098  -1.617   0.849  0.00  0.00    +0.001 A 
ATOM     19  C   UNL     1       6.720  -0.298   1.012  0.00  0.00    +0.001 A 
ATOM     20  C   UNL     1       5.817   0.093   1.992  0.00  0.00    +0.012 A 
ATOM     21  C   UNL     1       5.301  -0.910   2.818  0.00  0.00    +0.029 A 
ATOM     22  C   UNL     1       4.342  -0.799   3.920  0.00  0.00    +0.180 C 
ATOM     23  O   UNL     1       3.813   0.215   4.320  0.00  0.00    -0.291 OA
ENDROOT
BRANCH   1  27
ATOM     24  C   UNL     1       0.787  -0.920   0.917  0.00  0.00    +0.161 A 
ATOM     25  C   UNL     1       0.976  -0.149   2.053  0.00  0.00    +0.049 A 
ATOM     26  C   UNL     1       1.581  -0.699   3.168  0.00  0.00    +0.008 A 
ATOM     27  C   UNL     1       1.999  -2.016   3.153  0.00  0.00    -0.037 A 
ATOM     28  C   UNL     1       1.814  -2.790   2.023  0.00  0.00    +0.053 A 
ATOM     29  C   UNL     1       1.203  -2.248   0.904  0.00  0.00    +0.162 A 
BRANCH  24  31
ATOM     30  C   UNL     1      -0.209   0.988  -0.095  0.00  0.00    +0.277 C 
ATOM     31  O   UNL     1       0.192  -0.381  -0.181  0.00  0.00    -0.491 OA
ENDBRANCH  24  31
BRANCH  29  32
ATOM     32  O   UNL     1       1.015  -3.010  -0.207  0.00  0.00    -0.491 OA
ATOM     33  C   UNL     1       1.467  -4.364  -0.149  0.00  0.00    +0.277 C 
ENDBRANCH  29  32
ENDBRANCH   1  27
BRANCH   2  34
ATOM     34  C   UNL     1       0.922  -2.828   6.167  0.00  0.00    +0.184 C 
ATOM     35  O   UNL     1       1.050  -4.027   6.295  0.00  0.00    -0.290 OA
BRANCH  34  36
ATOM     36  C   UNL     1      -0.361  -2.186   6.495  0.00  0.00    +0.021 A 
ATOM     37  C   UNL     1      -0.514  -0.804   6.344  0.00  0.00    +0.011 A 
ATOM     38  C   UNL     1      -1.719  -0.209   6.653  0.00  0.00    +0.003 A 
ATOM     39  C   UNL     1      -2.775  -0.976   7.114  0.00  0.00    +0.033 A 
ATOM     40  C   UNL     1      -2.631  -2.344   7.267  0.00  0.00    +0.127 A 
ATOM     41  C   UNL     1      -1.435  -2.954   6.956  0.00  0.00    +0.044 A 
BRANCH  40  42
ATOM     42  N   UNL     1      -3.767  -3.155   7.760  0.00  0.00    +0.056 N 
ATOM     43  O   UNL     1      -4.819  -2.622   8.029  0.00  0.00    -0.126 OA
ATOM     44  O   UNL     1      -3.643  -4.350   7.894  0.00  0.00    -0.126 OA
ENDBRANCH  40  42
ENDBRANCH  34  36
ENDBRANCH   2  34
TORSDOF 6
