REMARK  Name = ZINC32536805
REMARK  12 active torsions:
REMARK  status: ('A' for Active; 'I' for Inactive)
REMARK    1  A    between atoms: C_1  and  C_2
REMARK    2  A    between atoms: C_2  and  O_3
REMARK    3  A    between atoms: O_3  and  C_4
REMARK    4  A    between atoms: C_4  and  C_6
REMARK    5  A    between atoms: C_6  and  N_7
REMARK    6  A    between atoms: N_7  and  C_8
REMARK    7  A    between atoms: C_15  and  S_17
REMARK    8  A    between atoms: S_17  and  C_20
REMARK    9  A    between atoms: C_22  and  C_29
REMARK   10  A    between atoms: C_23  and  C_28
REMARK   11  A    between atoms: C_25  and  O_26
REMARK   12  A    between atoms: O_26  and  C_27
REMARK                            x       y       z     vdW  Elec       q    Type
REMARK                         _______ _______ _______ _____ _____    ______ ____
ROOT
ATOM      1  C   UNL     1      -3.530   1.507   0.201  0.00  0.00    -0.023 C 
ATOM      2  C   UNL     1      -3.698   1.929  -1.276  0.00  0.00    +0.152 C 
ATOM      3  S   UNL     1      -4.851   0.627  -1.894  0.00  0.00    -0.031 S 
ATOM      4  O   UNL     1      -4.111  -0.543  -2.215  0.00  0.00    -0.174 OA
ATOM      5  O   UNL     1      -5.728   1.194  -2.857  0.00  0.00    -0.174 OA
ATOM      6  C   UNL     1      -5.769   0.356  -0.316  0.00  0.00    +0.190 C 
ATOM      7  C   UNL     1      -4.667   0.643   0.728  0.00  0.00    +0.145 C 
ENDROOT
BRANCH   1   8
ATOM      8  N   UNL     1      -2.273   0.759   0.335  0.00  0.00    +0.390 N 
ATOM      9  H   UNL     1      -2.157   0.104  -0.542  0.00  0.00    -0.085 HD
ATOM     10  H   UNL     1      -2.322   0.145   1.246  0.00  0.00    -0.085 HD
BRANCH   8  11
ATOM     11  C   UNL     1      -1.125   1.671   0.420  0.00  0.00    +0.041 C 
BRANCH  11  12
ATOM     12  C   UNL     1       0.144   0.870   0.556  0.00  0.00    +0.290 C 
ATOM     13  O   UNL     1       0.097  -0.337   0.580  0.00  0.00    -0.253 OA
BRANCH  12  14
ATOM     14  O   UNL     1       1.328   1.497   0.646  0.00  0.00    -0.466 OA
BRANCH  14  16
ATOM     15  C   UNL     1       3.753   1.547   0.858  0.00  0.00    +0.048 C 
ATOM     16  C   UNL     1       2.509   0.661   0.769  0.00  0.00    +0.228 C 
ENDBRANCH  14  16
ENDBRANCH  12  14
ENDBRANCH  11  12
ENDBRANCH   8  11
ENDBRANCH   1   8
BRANCH   7  17
ATOM     17  S   UNL     1      -5.423   1.484   2.146  0.00  0.00    +0.003 S 
ATOM     18  O   UNL     1      -4.508   1.532   3.232  0.00  0.00    -0.169 OA
ATOM     19  O   UNL     1      -6.099   2.658   1.716  0.00  0.00    -0.169 OA
BRANCH  17  20
ATOM     20  C   UNL     1      -6.704   0.400   2.685  0.00  0.00    +0.130 A 
ATOM     21  C   UNL     1      -8.025   0.795   2.599  0.00  0.00    +0.034 A 
ATOM     22  C   UNL     1      -9.031  -0.057   3.018  0.00  0.00    -0.046 A 
ATOM     23  C   UNL     1      -8.716  -1.302   3.531  0.00  0.00    -0.044 A 
ATOM     24  C   UNL     1      -7.397  -1.699   3.624  0.00  0.00    +0.051 A 
ATOM     25  C   UNL     1      -6.386  -0.848   3.200  0.00  0.00    +0.145 A 
ATOM     26  C   UNL     1      -9.815  -2.225   3.991  0.00  0.00    +0.044 C 
ATOM     27  C   UNL     1     -10.471   0.374   2.919  0.00  0.00    +0.044 C 
BRANCH  25  28
ATOM     28  O   UNL     1      -5.087  -1.237   3.289  0.00  0.00    -0.493 OA
ATOM     29  C   UNL     1      -4.834  -2.535   3.830  0.00  0.00    +0.277 C 
ENDBRANCH  25  28
ENDBRANCH  17  20
ENDBRANCH   7  17
TORSDOF 8
