REMARK  Name = ZINC58304706
REMARK  7 active torsions:
REMARK  status: ('A' for Active; 'I' for Inactive)
REMARK    1  A    between atoms: C_1  and  C_2
REMARK    2  A    between atoms: C_2  and  C_4
REMARK    3  A    between atoms: C_2  and  N_16
REMARK    4  A    between atoms: C_8  and  C_10
REMARK    5  A    between atoms: C_17  and  C_19
REMARK    6  A    between atoms: C_19  and  C_20
REMARK    7  A    between atoms: C_20  and  N_21
REMARK                            x       y       z     vdW  Elec       q    Type
REMARK                         _______ _______ _______ _____ _____    ______ ____
ROOT
ATOM      1  N   UNL     1       0.711  -0.489   1.189  0.00  0.00    -0.306 N 
ATOM      2  C   UNL     1       0.051  -0.633   2.355  0.00  0.00    +0.215 C 
ATOM      3  O   UNL     1      -1.129  -0.361   2.423  0.00  0.00    -0.276 OA
ATOM      4  H   UNL     1       1.654  -0.707   1.135  0.00  0.00    +0.149 HD
ENDROOT
BRANCH   1   6
ATOM      5  C   UNL     1      -0.019   1.526   0.010  0.00  0.00    +0.036 C 
ATOM      6  C   UNL     1       0.002  -0.004   0.002  0.00  0.00    +0.134 C 
BRANCH   6   7
ATOM      7  C   UNL     1       0.707  -0.490  -1.238  0.00  0.00    +0.105 A 
ATOM      8  N   UNL     1       2.031  -0.739  -1.341  0.00  0.00    -0.348 N 
ATOM      9  H   UNL     1       2.691  -0.638  -0.637  0.00  0.00    +0.167 HD
ATOM     10  C   UNL     1       2.271  -1.159  -2.619  0.00  0.00    +0.110 A 
ATOM     11  C   UNL     1       1.074  -1.154  -3.262  0.00  0.00    +0.064 A 
ATOM     12  N   UNL     1       0.138  -0.744  -2.382  0.00  0.00    -0.342 N 
ATOM     13  H   UNL     1      -0.809  -0.650  -2.572  0.00  0.00    +0.167 HD
BRANCH  11  14
ATOM     14  C   UNL     1       0.839  -1.537  -4.676  0.00  0.00    -0.000 A 
ATOM     15  C   UNL     1      -0.447  -1.479  -5.212  0.00  0.00    +0.010 A 
ATOM     16  C   UNL     1      -0.660  -1.837  -6.527  0.00  0.00    +0.001 A 
ATOM     17  C   UNL     1       0.399  -2.253  -7.314  0.00  0.00    +0.000 A 
ATOM     18  C   UNL     1       1.677  -2.313  -6.788  0.00  0.00    +0.001 A 
ATOM     19  C   UNL     1       1.903  -1.951  -5.475  0.00  0.00    +0.010 A 
ENDBRANCH  11  14
ENDBRANCH   6   7
ENDBRANCH   1   6
BRANCH   2  20
ATOM     20  C   UNL     1       0.780  -1.133   3.576  0.00  0.00    +0.117 C 
BRANCH  20  21
ATOM     21  C   UNL     1      -0.191  -1.204   4.756  0.00  0.00    +0.138 C 
BRANCH  21  22
ATOM     22  N   UNL     1       0.517  -1.689   5.943  0.00  0.00    -0.274 N 
ATOM     23  C   UNL     1       0.661  -3.021   6.331  0.00  0.00    +0.090 A 
ATOM     24  C   UNL     1       0.231  -4.222   5.789  0.00  0.00    +0.030 A 
ATOM     25  C   UNL     1       0.538  -5.411   6.421  0.00  0.00    +0.002 A 
ATOM     26  C   UNL     1       1.274  -5.405   7.593  0.00  0.00    +0.004 A 
ATOM     27  C   UNL     1       1.706  -4.213   8.140  0.00  0.00    +0.048 A 
ATOM     28  C   UNL     1       1.403  -3.015   7.512  0.00  0.00    +0.157 A 
ATOM     29  O   UNL     1       1.683  -1.721   7.804  0.00  0.00    -0.407 OA
ATOM     30  C   UNL     1       1.155  -0.930   6.857  0.00  0.00    +0.421 A 
ATOM     31  O   UNL     1       1.235   0.283   6.830  0.00  0.00    -0.223 OA
ENDBRANCH  21  22
ENDBRANCH  20  21
ENDBRANCH   2  20
TORSDOF 6
