REMARK  Name = ZINC02565213
REMARK  5 active torsions:
REMARK  status: ('A' for Active; 'I' for Inactive)
REMARK    1  A    between atoms: C_3  and  O_23
REMARK    2  A    between atoms: C_6  and  C_7
REMARK    3  A    between atoms: N_8  and  N_9
REMARK    4  A    between atoms: C_10  and  C_12
REMARK    5  A    between atoms: N_14  and  C_15
REMARK                            x       y       z     vdW  Elec       q    Type
REMARK                         _______ _______ _______ _____ _____    ______ ____
ROOT
ATOM      1  N   UNL     1       3.453   6.344   0.318  0.00  0.00    -0.199 N 
ATOM      2  C   UNL     1       2.297   5.657   0.224  0.00  0.00    +0.318 C 
ATOM      3  O   UNL     1       1.236   6.250   0.236  0.00  0.00    -0.263 OA
ATOM      4  H   UNL     1       4.300   5.871   0.308  0.00  0.00    +0.178 HD
ENDROOT
BRANCH   2   5
ATOM      5  C   UNL     1       2.319   4.172   0.104  0.00  0.00    +0.305 C 
ATOM      6  O   UNL     1       3.379   3.580   0.091  0.00  0.00    -0.265 OA
ATOM      7  N   UNL     1       1.163   3.486   0.009  0.00  0.00    -0.276 N 
ATOM      8  H   UNL     1       0.321   3.962  -0.061  0.00  0.00    +0.155 HD
BRANCH   7   9
ATOM      9  C   UNL     1       1.178   2.088   0.013  0.00  0.00    +0.054 A 
ATOM     10  C   UNL     1       2.230   1.404   0.608  0.00  0.00    +0.044 A 
ATOM     11  C   UNL     1       2.242   0.022   0.610  0.00  0.00    +0.043 A 
ATOM     12  C   UNL     1       1.206  -0.681   0.019  0.00  0.00    +0.021 A 
ATOM     13  C   UNL     1       0.157  -0.003  -0.574  0.00  0.00    +0.023 A 
ATOM     14  C   UNL     1       0.139   1.379  -0.579  0.00  0.00    +0.062 A 
ATOM     15 CL   UNL     1      -1.175   2.228  -1.331  0.00  0.00    -0.082 Cl
ATOM     16 CL   UNL     1       3.557  -0.833   1.354  0.00  0.00    -0.083 Cl
ENDBRANCH   7   9
ENDBRANCH   2   5
BRANCH   1  18
ATOM     17  C   UNL     1       4.546   8.402   0.522  0.00  0.00    +0.138 C 
ATOM     18  N   UNL     1       3.432   7.740   0.431  0.00  0.00    -0.187 NA
BRANCH  17  24
ATOM     19  C   UNL     1       3.305  10.554   0.649  0.00  0.00    +0.013 A 
ATOM     20  C   UNL     1       3.288  11.927   0.765  0.00  0.00    +0.046 A 
ATOM     21  C   UNL     1       4.481  12.632   0.863  0.00  0.00    +0.117 A 
ATOM     22  C   UNL     1       5.696  11.957   0.849  0.00  0.00    +0.046 A 
ATOM     23  C   UNL     1       5.722  10.584   0.738  0.00  0.00    +0.013 A 
ATOM     24  C   UNL     1       4.524   9.870   0.640  0.00  0.00    -0.005 A 
BRANCH  21  25
ATOM     25  O   UNL     1       4.461  13.986   0.971  0.00  0.00    -0.507 OA
ATOM     26  H   UNL     1       4.484  14.449   0.123  0.00  0.00    +0.292 HD
ENDBRANCH  21  25
ENDBRANCH  17  24
ENDBRANCH   1  18
TORSDOF 5
