REMARK  Name = ZINC22958690
REMARK  6 active torsions:
REMARK  status: ('A' for Active; 'I' for Inactive)
REMARK    1  A    between atoms: C_1  and  C_2
REMARK    2  A    between atoms: C_5  and  C_8
REMARK    3  A    between atoms: C_10  and  C_13
REMARK    4  A    between atoms: C_13  and  N_14
REMARK    5  A    between atoms: C_17  and  C_21
REMARK    6  A    between atoms: C_17  and  C_22
REMARK                            x       y       z     vdW  Elec       q    Type
REMARK                         _______ _______ _______ _____ _____    ______ ____
ROOT
ATOM      1  N   UNL     1       4.234  -3.422   1.774  0.00  0.00    -0.216 N 
ATOM      2  C   UNL     1       3.180  -2.759   1.259  0.00  0.00    +0.251 C 
ATOM      3  O   UNL     1       2.071  -2.660   1.739  0.00  0.00    -0.272 OA
ATOM      4  C   UNL     1       3.669  -2.162  -0.046  0.00  0.00    +0.136 C 
ATOM      5  N   UNL     1       5.074  -2.599  -0.126  0.00  0.00    -0.281 N 
ATOM      6  C   UNL     1       5.310  -3.328   0.984  0.00  0.00    +0.310 C 
ATOM      7  O   UNL     1       6.381  -3.844   1.237  0.00  0.00    -0.252 OA
ATOM      8  C   UNL     1       2.866  -2.714  -1.225  0.00  0.00    +0.047 C 
ATOM      9  H   UNL     1       5.692  -2.309  -0.988  0.00  0.00    +0.152 HD
ENDROOT
BRANCH   4  10
ATOM     10  C   UNL     1       3.584  -0.658  -0.006  0.00  0.00    -0.008 A 
ATOM     11  C   UNL     1       4.715   0.094  -0.091  0.00  0.00    +0.007 A 
ATOM     12  C   UNL     1       4.656   1.486  -0.057  0.00  0.00    +0.001 A 
ATOM     13  C   UNL     1       3.465   2.134   0.063  0.00  0.00    +0.008 A 
ATOM     14  C   UNL     1       2.276   1.391   0.153  0.00  0.00    -0.018 A 
ATOM     15  C   UNL     1       2.336  -0.024   0.118  0.00  0.00    -0.012 A 
ATOM     16  C   UNL     1       1.146  -0.767   0.208  0.00  0.00    +0.009 A 
ATOM     17  C   UNL     1      -0.045  -0.119   0.327  0.00  0.00    +0.001 A 
ATOM     18  C   UNL     1      -0.104   1.273   0.362  0.00  0.00    +0.001 A 
ATOM     19  C   UNL     1       1.027   2.025   0.278  0.00  0.00    +0.008 A 
ENDBRANCH   4  10
BRANCH   1  20
ATOM     20  C   UNL     1       4.206  -4.156   3.041  0.00  0.00    +0.197 C 
BRANCH  20  23
ATOM     21  C   UNL     1       3.829  -7.661   2.366  0.00  0.00    +0.259 A 
ATOM     22  N   UNL     1       4.614  -6.609   2.517  0.00  0.00    -0.190 NA
ATOM     23  C   UNL     1       3.793  -5.582   2.787  0.00  0.00    +0.190 A 
ATOM     24  N   UNL     1       2.577  -6.043   2.794  0.00  0.00    -0.059 NA
ATOM     25  O   UNL     1       2.571  -7.231   2.550  0.00  0.00    -0.333 OA
BRANCH  21  30
ATOM     26  C   UNL     1       5.482 -13.039   1.159  0.00  0.00    +0.044 C 
ATOM     27  C   UNL     1       5.049 -11.630   1.475  0.00  0.00    -0.050 A 
ATOM     28  C   UNL     1       3.705 -11.342   1.636  0.00  0.00    +0.004 A 
ATOM     29  C   UNL     1       3.302 -10.055   1.926  0.00  0.00    +0.013 A 
ATOM     30  C   UNL     1       4.254  -9.042   2.056  0.00  0.00    +0.039 A 
ATOM     31  C   UNL     1       5.607  -9.338   1.886  0.00  0.00    +0.013 A 
ATOM     32  C   UNL     1       5.997 -10.631   1.603  0.00  0.00    +0.004 A 
ENDBRANCH  21  30
ENDBRANCH  20  23
ENDBRANCH   1  20
TORSDOF 4
