REMARK  Name = ZINC21889223
REMARK  9 active torsions:
REMARK  status: ('A' for Active; 'I' for Inactive)
REMARK    1  A    between atoms: C_1  and  C_2
REMARK    2  A    between atoms: C_2  and  O_3
REMARK    3  A    between atoms: O_3  and  C_4
REMARK    4  A    between atoms: C_7  and  C_10
REMARK    5  A    between atoms: N_27  and  C_28
REMARK    6  A    between atoms: C_28  and  C_29
REMARK    7  A    between atoms: C_29  and  C_30
REMARK    8  A    between atoms: C_30  and  O_31
REMARK    9  A    between atoms: O_31  and  C_32
REMARK                            x       y       z     vdW  Elec       q    Type
REMARK                         _______ _______ _______ _____ _____    ______ ____
ROOT
ATOM      1  C   UNL     1      -0.471   1.259  -6.108  0.00  0.00    +0.155 C 
ATOM      2  C   UNL     1      -0.436   0.017  -6.955  0.00  0.00    +0.049 A 
ATOM      3  C   UNL     1      -1.471  -0.690  -7.435  0.00  0.00    +0.025 A 
ATOM      4  C   UNL     1      -0.938  -1.773  -8.167  0.00  0.00    +0.020 A 
ATOM      5  C   UNL     1       0.409  -1.683  -8.104  0.00  0.00    +0.091 A 
ATOM      6  N   UNL     1       0.723  -0.589  -7.365  0.00  0.00    -0.318 N 
ATOM      7  C   UNL     1       1.986  -0.082  -7.024  0.00  0.00    +0.051 A 
ATOM      8  C   UNL     1       2.962   0.114  -7.986  0.00  0.00    +0.026 A 
ATOM      9  C   UNL     1       4.149   0.734  -7.642  0.00  0.00    +0.002 A 
ATOM     10  C   UNL     1       4.359   1.153  -6.340  0.00  0.00    +0.000 A 
ATOM     11  C   UNL     1       3.395   0.934  -5.373  0.00  0.00    +0.007 A 
ATOM     12  C   UNL     1       2.215   0.300  -5.706  0.00  0.00    -0.006 A 
ATOM     13  C   UNL     1       1.175   0.006  -4.662  0.00  0.00    +0.147 C 
ATOM     14  N   UNL     1       0.029   0.929  -4.758  0.00  0.00    -0.269 N 
ATOM     15  C   UNL     1      -0.545   1.447  -3.655  0.00  0.00    +0.303 C 
ATOM     16  O   UNL     1      -0.064   1.229  -2.560  0.00  0.00    -0.253 OA
ATOM     17  N   UNL     1      -1.652   2.208  -3.765  0.00  0.00    -0.299 N 
ATOM     18  H   UNL     1      -2.040   2.475  -4.760  0.00  0.00    +0.150 HD
ENDROOT
BRANCH   1  22
ATOM     19  C   UNL     1       2.020   4.252  -7.868  0.00  0.00    +0.121 A 
ATOM     20  C   UNL     1       1.374   3.325  -8.672  0.00  0.00    +0.046 A 
ATOM     21  C   UNL     1       0.569   2.358  -8.101  0.00  0.00    +0.009 A 
ATOM     22  C   UNL     1       0.407   2.314  -6.729  0.00  0.00    -0.021 A 
ATOM     23  C   UNL     1       1.046   3.241  -5.925  0.00  0.00    +0.009 A 
ATOM     24  C   UNL     1       1.857   4.206  -6.491  0.00  0.00    +0.046 A 
BRANCH  19  25
ATOM     25  O   UNL     1       2.813   5.204  -8.427  0.00  0.00    -0.492 OA
BRANCH  25  27
ATOM     26  C   UNL     1       4.291   7.114  -8.345  0.00  0.00    +0.048 C 
ATOM     27  C   UNL     1       3.447   6.125  -7.538  0.00  0.00    +0.225 C 
ENDBRANCH  25  27
ENDBRANCH  19  25
ENDBRANCH   1  22
BRANCH  17  28
ATOM     28  C   UNL     1      -2.340   2.680  -2.561  0.00  0.00    +0.108 C 
BRANCH  28  29
ATOM     29  C   UNL     1      -3.556   3.516  -2.962  0.00  0.00    +0.047 C 
BRANCH  29  30
ATOM     30  C   UNL     1      -4.274   4.009  -1.704  0.00  0.00    +0.161 C 
BRANCH  30  31
ATOM     31  O   UNL     1      -5.411   4.790  -2.080  0.00  0.00    -0.383 OA
ATOM     32  C   UNL     1      -6.155   5.302  -0.973  0.00  0.00    +0.193 C 
ENDBRANCH  30  31
ENDBRANCH  29  30
ENDBRANCH  28  29
ENDBRANCH  17  28
TORSDOF 7
