REMARK  Name = ZINC31910801
REMARK  10 active torsions:
REMARK  status: ('A' for Active; 'I' for Inactive)
REMARK    1  A    between atoms: C_1  and  C_2
REMARK    2  A    between atoms: C_2  and  N_3
REMARK    3  A    between atoms: N_3  and  C_4
REMARK    4  A    between atoms: N_3  and  C_18
REMARK    5  A    between atoms: C_4  and  C_5
REMARK    6  A    between atoms: CA_6  and  C_15
REMARK    7  A    between atoms: C_12  and  C_14
REMARK    8  A    between atoms: C_18  and  C_19
REMARK    9  A    between atoms: C_18  and  C_20
REMARK   10  A    between atoms: C_18  and  C_21
REMARK                            x       y       z     vdW  Elec       q    Type
REMARK                         _______ _______ _______ _____ _____    ______ ____
ROOT
ATOM      1  C   UNL     1       0.096   1.174  -0.941  0.00  0.00    +0.041 A 
ATOM      2  CA  UNL     1       0.671   0.239  -0.127  0.00  0.00    +0.172 A 
ATOM      3  N   UNL     1       1.740  -0.272  -0.765  0.00  0.00    -0.221 NA
ATOM      4  C   UNL     1       1.855   0.309  -1.947  0.00  0.00    +0.139 A 
ATOM      5  N   UNL     1       0.837   1.220  -2.082  0.00  0.00    -0.305 N 
ATOM      6  C   UNL     1       0.723   1.965  -3.223  0.00  0.00    +0.093 A 
ATOM      7  C   UNL     1       1.606   1.817  -4.231  0.00  0.00    +0.021 A 
ATOM      8  C   UNL     1       2.660   0.893  -4.123  0.00  0.00    -0.046 A 
ATOM      9  C   UNL     1       2.787   0.145  -2.995  0.00  0.00    +0.050 A 
ATOM     10  C   UNL     1       3.644   0.732  -5.252  0.00  0.00    +0.044 C 
ENDROOT
BRANCH   2  11
ATOM     11  C   UNL     1       0.201  -0.144   1.218  0.00  0.00    +0.406 C 
ATOM     12  O   UNL     1      -0.770   0.404   1.700  0.00  0.00    -0.239 OA
ATOM     13  OXT UNL     1       0.850  -1.100   1.911  0.00  0.00    -0.239 OA
ENDBRANCH   2  11
BRANCH   1  14
ATOM     14  C   UNL     1      -1.130   1.995  -0.635  0.00  0.00    -0.021 C 
BRANCH  14  15
ATOM     15  N   UNL     1      -2.146   1.761  -1.669  0.00  0.00    +0.386 N 
ATOM     16  H   UNL     1      -1.637   1.733  -2.644  0.00  0.00    -0.081 HD
BRANCH  15  17
ATOM     17  C   UNL     1      -2.811   0.466  -1.470  0.00  0.00    -0.074 C 
ATOM     18  C   UNL     1      -3.336   0.378  -0.035  0.00  0.00    -0.010 C 
ATOM     19  C   UNL     1      -3.979   0.337  -2.449  0.00  0.00    -0.010 C 
ATOM     20  C   UNL     1      -1.811  -0.664  -1.717  0.00  0.00    -0.010 C 
ENDBRANCH  15  17
BRANCH  15  22
ATOM     21  C   UNL     1      -3.603   3.068  -3.140  0.00  0.00    -0.017 C 
ATOM     22  C   UNL     1      -3.125   2.856  -1.703  0.00  0.00    -0.081 C 
ENDBRANCH  15  22
ENDBRANCH  14  15
ENDBRANCH   1  14
TORSDOF 5
