REMARK  Name = ZINC66614142
REMARK  5 active torsions:
REMARK  status: ('A' for Active; 'I' for Inactive)
REMARK    1  A    between atoms: C_3  and  C_9
REMARK    2  A    between atoms: C_6  and  C_7
REMARK    3  A    between atoms: N_11  and  C_12
REMARK    4  A    between atoms: C_12  and  C_13
REMARK    5  A    between atoms: C_13  and  N_14
REMARK                            x       y       z     vdW  Elec       q    Type
REMARK                         _______ _______ _______ _____ _____    ______ ____
ROOT
ATOM      1  C   UNL     1       3.657   2.175  -0.023  0.00  0.00    +0.244 C 
ATOM      2  O   UNL     1       3.640   3.390  -0.016  0.00  0.00    -0.270 OA
ATOM      3  N   UNL     1       4.833   1.518  -0.038  0.00  0.00    -0.310 N 
ATOM      4  H   UNL     1       4.847   0.548  -0.043  0.00  0.00    +0.149 HD
ENDROOT
BRANCH   1   7
ATOM      5  C   UNL     1      -0.017   1.394   0.010  0.00  0.00    +0.012 A 
ATOM      6  C   UNL     1       1.167   2.098   0.002  0.00  0.00    +0.014 A 
ATOM      7  C   UNL     1       2.385   1.417  -0.014  0.00  0.00    +0.037 A 
ATOM      8  C   UNL     1       2.405   0.021  -0.021  0.00  0.00    +0.014 A 
ATOM      9  C   UNL     1       1.223  -0.685  -0.014  0.00  0.00    +0.012 A 
ATOM     10  C   UNL     1       0.002  -0.004   0.002  0.00  0.00    +0.014 A 
BRANCH  10  11
ATOM     11  C   UNL     1      -1.264  -0.759   0.010  0.00  0.00    +0.258 C 
ATOM     12  O   UNL     1      -1.247  -1.971   0.003  0.00  0.00    -0.296 OA
ENDBRANCH  10  11
ENDBRANCH   1   7
BRANCH   3  13
ATOM     13  C   UNL     1       6.091   2.268  -0.047  0.00  0.00    +0.123 C 
BRANCH  13  14
ATOM     14  C   UNL     1       7.268   1.291  -0.064  0.00  0.00    +0.126 C 
BRANCH  14  15
ATOM     15  N   UNL     1       8.527   2.041  -0.073  0.00  0.00    -0.300 N 
ATOM     16  C   UNL     1       9.138   2.427  -1.354  0.00  0.00    +0.108 C 
ATOM     17  C   UNL     1       8.973   3.937  -1.541  0.00  0.00    +0.019 C 
ATOM     18  C   UNL     1      10.110   4.691  -0.875  0.00  0.00    +0.002 C 
ATOM     19  C   UNL     1      10.111   4.586   0.640  0.00  0.00    +0.009 C 
ATOM     20  C   UNL     1      10.407   3.151   1.083  0.00  0.00    +0.096 C 
ATOM     21  C   UNL     1       9.107   2.374   1.081  0.00  0.00    +0.216 C 
ATOM     22  O   UNL     1       8.595   2.051   2.131  0.00  0.00    -0.276 OA
ENDBRANCH  14  15
ENDBRANCH  13  14
ENDBRANCH   3  13
TORSDOF 5
