REMARK  Name = ZINC13486982
REMARK  11 active torsions:
REMARK  status: ('A' for Active; 'I' for Inactive)
REMARK    1  A    between atoms: C_1  and  C_2
REMARK    2  A    between atoms: N_4  and  C_22
REMARK    3  A    between atoms: C_12  and  C_15
REMARK    4  A    between atoms: C_15  and  N_16
REMARK    5  A    between atoms: N_16  and  C_17
REMARK    6  A    between atoms: C_22  and  CA_23
REMARK    7  A    between atoms: CA_23  and  C_25
REMARK    8  A    between atoms: CA_23  and  N_27
REMARK    9  A    between atoms: C_28  and  O_30
REMARK   10  A    between atoms: O_30  and  C_31
REMARK   11  A    between atoms: C_31  and  C_32
REMARK                            x       y       z     vdW  Elec       q    Type
REMARK                         _______ _______ _______ _____ _____    ______ ____
ROOT
ATOM      1  C   UNL     1       2.684   5.921   5.890  0.00  0.00    +0.049 C 
ATOM      2  C   UNL     1       1.369   5.323   5.462  0.00  0.00    +0.006 A 
ATOM      3  C   UNL     1       1.100   4.016   5.694  0.00  0.00    +0.097 A 
ATOM      4  N   UNL     1      -0.095   3.499   5.292  0.00  0.00    -0.296 N 
ATOM      5  C   UNL     1      -1.002   4.282   4.680  0.00  0.00    +0.350 A 
ATOM      6  O   UNL     1      -2.069   3.804   4.331  0.00  0.00    -0.244 OA
ATOM      7  N   UNL     1      -0.755   5.570   4.449  0.00  0.00    -0.178 NA
ATOM      8  C   UNL     1       0.397   6.116   4.818  0.00  0.00    +0.131 A 
ATOM      9  N   UNL     1       0.641   7.447   4.575  0.00  0.00    -0.315 N 
ATOM     10  C   UNL     1      -0.064   7.900   3.369  0.00  0.00    +0.107 C 
ATOM     11  C   UNL     1       0.344   9.339   3.048  0.00  0.00    +0.024 C 
ATOM     12  C   UNL     1      -0.006  10.241   4.235  0.00  0.00    +0.009 C 
ATOM     13  C   UNL     1       0.703   9.720   5.488  0.00  0.00    +0.024 C 
ATOM     14  C   UNL     1       0.284   8.269   5.739  0.00  0.00    +0.107 C 
ENDROOT
BRANCH  12  15
ATOM     15  C   UNL     1       0.455  11.671   3.944  0.00  0.00    +0.106 C 
BRANCH  15  16
ATOM     16  N   UNL     1      -0.310  12.211   2.818  0.00  0.00    -0.330 N 
ATOM     17  H   UNL     1      -0.987  11.667   2.385  0.00  0.00    +0.147 HD
BRANCH  16  18
ATOM     18  C   UNL     1      -0.066  13.504   2.368  0.00  0.00    +0.096 A 
ATOM     19  C   UNL     1       0.902  14.281   2.996  0.00  0.00    +0.041 A 
ATOM     20  C   UNL     1       1.139  15.563   2.534  0.00  0.00    +0.005 A 
ATOM     21  C   UNL     1       0.388  16.031   1.464  0.00  0.00    +0.018 A 
ATOM     22  C   UNL     1      -0.560  15.207   0.892  0.00  0.00    +0.084 A 
ATOM     23  N   UNL     1      -0.816  13.941   1.315  0.00  0.00    -0.350 N 
ATOM     24  H   UNL     1      -1.528  13.350   0.870  0.00  0.00    +0.166 HD
ENDBRANCH  16  18
ENDBRANCH  15  16
ENDBRANCH  12  15
BRANCH   4  25
ATOM     25  C   UNL     1      -0.396   2.086   5.533  0.00  0.00    +0.160 C 
BRANCH  25  26
ATOM     26  CA  UNL     1       0.070   1.254   4.336  0.00  0.00    +0.209 C 
BRANCH  26  27
ATOM     27  N   UNL     1      -0.536   1.780   3.111  0.00  0.00    -0.266 N 
ATOM     28  C   UNL     1       0.067   1.580   1.922  0.00  0.00    +0.401 C 
ATOM     29  O   UNL     1       1.113   0.964   1.867  0.00  0.00    -0.226 OA
ATOM     30  H   UNL     1      -1.371   2.272   3.155  0.00  0.00    +0.153 HD
BRANCH  28  31
ATOM     31  O   UNL     1      -0.490   2.063   0.795  0.00  0.00    -0.446 OA
BRANCH  31  32
ATOM     32  C   UNL     1       0.214   1.811  -0.449  0.00  0.00    +0.269 C 
BRANCH  32  33
ATOM     33  C   UNL     1      -0.553   2.421  -1.593  0.00  0.00    -0.010 A 
ATOM     34  C   UNL     1      -1.510   1.678  -2.259  0.00  0.00    +0.007 A 
ATOM     35  C   UNL     1      -2.217   2.240  -3.306  0.00  0.00    +0.000 A 
ATOM     36  C   UNL     1      -1.960   3.542  -3.693  0.00  0.00    +0.000 A 
ATOM     37  C   UNL     1      -0.999   4.283  -3.031  0.00  0.00    +0.000 A 
ATOM     38  C   UNL     1      -0.296   3.723  -1.981  0.00  0.00    +0.007 A 
ENDBRANCH  32  33
ENDBRANCH  31  32
ENDBRANCH  28  31
ENDBRANCH  26  27
BRANCH  26  39
ATOM     39  C   UNL     1      -0.348  -0.181   4.528  0.00  0.00    +0.378 C 
ATOM     40  O   UNL     1      -1.078  -0.710   3.724  0.00  0.00    -0.244 OA
ATOM     41  OXT UNL     1       0.089  -0.871   5.593  0.00  0.00    -0.244 OA
ENDBRANCH  26  39
ENDBRANCH  25  26
ENDBRANCH   4  25
TORSDOF 10
