REMARK  Name = ZINC33088617
REMARK  4 active torsions:
REMARK  status: ('A' for Active; 'I' for Inactive)
REMARK    1  A    between atoms: C_1  and  N_2
REMARK    2  A    between atoms: C_5  and  C_17
REMARK    3  A    between atoms: C_6  and  N_8
REMARK    4  A    between atoms: C_9  and  C_11
REMARK                            x       y       z     vdW  Elec       q    Type
REMARK                         _______ _______ _______ _____ _____    ______ ____
ROOT
ATOM      1  C   UNL     1       1.248   1.716  -0.001  0.00  0.00    +0.127 C 
ATOM      2  N   UNL     1      -0.011   0.966   0.007  0.00  0.00    -0.326 N 
ATOM      3  C   UNL     1      -1.220   1.642   0.017  0.00  0.00    +0.160 A 
ATOM      4  N   UNL     1      -1.442   2.938   0.031  0.00  0.00    -0.218 NA
ATOM      5  C   UNL     1      -2.687   3.432   0.034  0.00  0.00    +0.156 A 
ATOM      6  C   UNL     1      -3.754   2.537   0.034  0.00  0.00    +0.106 A 
ATOM      7  S   UNL     1      -2.879   0.978   0.021  0.00  0.00    -0.037 S 
ATOM      8  H   UNL     1       0.004  -0.134   0.006  0.00  0.00    +0.148 HD
ENDROOT
BRANCH   5   9
ATOM      9  C   UNL     1      -2.921   4.878   0.044  0.00  0.00    +0.262 C 
ATOM     10  O   UNL     1      -4.059   5.311   0.053  0.00  0.00    -0.269 OA
ATOM     11  N   UNL     1      -1.876   5.729   0.044  0.00  0.00    -0.324 N 
ATOM     12  H   UNL     1      -2.051   6.815   0.051  0.00  0.00    +0.145 HD
ATOM     13  H   UNL     1      -0.848   5.339   0.037  0.00  0.00    +0.145 HD
ENDBRANCH   5   9
BRANCH   6  14
ATOM     14  N   UNL     1      -5.117   2.785   0.042  0.00  0.00    -0.272 N 
ATOM     15  C   UNL     1      -5.989   1.758   0.040  0.00  0.00    +0.284 C 
ATOM     16  O   UNL     1      -5.580   0.612   0.032  0.00  0.00    -0.266 OA
ATOM     17  H   UNL     1      -5.487   3.821   0.049  0.00  0.00    +0.156 HD
BRANCH  15  18
ATOM     18  C   UNL     1      -7.430   2.021   0.049  0.00  0.00    +0.191 A 
ATOM     19  C   UNL     1      -8.418   1.077   0.042  0.00  0.00    +0.056 A 
ATOM     20  C   UNL     1      -9.638   1.770   0.057  0.00  0.00    +0.058 A 
ATOM     21  C   UNL     1      -9.346   3.091   0.063  0.00  0.00    +0.171 A 
ATOM     22  O   UNL     1      -8.014   3.237   0.058  0.00  0.00    -0.444 OA
ATOM     23 BR   UNL     1     -10.609   4.498   0.076  0.00  0.00    -0.008 Br
ENDBRANCH  15  18
ENDBRANCH   6  14
TORSDOF 3
