REMARK  Name = ZINC21242423
REMARK  8 active torsions:
REMARK  status: ('A' for Active; 'I' for Inactive)
REMARK    1  A    between atoms: C_1  and  C_2
REMARK    2  A    between atoms: C_5  and  N_8
REMARK    3  A    between atoms: C_9  and  C_33
REMARK    4  A    between atoms: C_12  and  S_13
REMARK    5  A    between atoms: S_13  and  C_14
REMARK    6  A    between atoms: C_14  and  C_16
REMARK    7  A    between atoms: C_14  and  C_17
REMARK    8  A    between atoms: N_22  and  C_23
REMARK                            x       y       z     vdW  Elec       q    Type
REMARK                         _______ _______ _______ _____ _____    ______ ____
ROOT
ATOM      1  C   UNL     1      -4.058  -0.543   0.160  0.00  0.00    +0.233 C 
ATOM      2  O   UNL     1      -4.155  -1.718  -0.125  0.00  0.00    -0.274 OA
ATOM      3  N   UNL     1      -5.137   0.136   0.595  0.00  0.00    -0.239 N 
ATOM      4  C   UNL     1      -6.325  -0.489   0.713  0.00  0.00    +0.306 C 
ATOM      5  O   UNL     1      -6.423  -1.667   0.427  0.00  0.00    -0.252 OA
ATOM      6  N   UNL     1      -7.404   0.190   1.148  0.00  0.00    -0.294 N 
ATOM      7  H   UNL     1      -5.049   1.202   0.854  0.00  0.00    +0.159 HD
ATOM      8  H   UNL     1      -7.316   1.256   1.407  0.00  0.00    +0.151 HD
ENDROOT
BRANCH   6   9
ATOM      9  C   UNL     1      -8.696  -0.490   1.277  0.00  0.00    +0.037 C 
ATOM     10  C   UNL     1      -9.125  -1.031  -0.089  0.00  0.00    +0.029 C 
ATOM     11  C   UNL     1     -10.473  -1.742   0.045  0.00  0.00    -0.008 C 
ATOM     12  C   UNL     1     -11.523  -0.752   0.555  0.00  0.00    +0.007 C 
ATOM     13  C   UNL     1     -11.094  -0.211   1.920  0.00  0.00    -0.008 C 
ATOM     14  C   UNL     1      -9.745   0.500   1.786  0.00  0.00    +0.029 C 
ATOM     15  C   UNL     1     -10.963  -1.370   2.910  0.00  0.00    +0.007 C 
ATOM     16  C   UNL     1      -9.913  -2.360   2.401  0.00  0.00    -0.008 C 
ATOM     17  C   UNL     1     -10.343  -2.901   1.035  0.00  0.00    +0.007 C 
ATOM     18  C   UNL     1      -8.565  -1.649   2.267  0.00  0.00    +0.029 C 
ENDBRANCH   6   9
BRANCH   1  19
ATOM     19  C   UNL     1      -2.730   0.157   0.028  0.00  0.00    +0.137 C 
ATOM     20  C   UNL     1      -2.703   0.958  -1.275  0.00  0.00    +0.029 C 
BRANCH  19  21
ATOM     21  S   UNL     1      -1.400  -1.071   0.009  0.00  0.00    -0.073 S 
BRANCH  21  26
ATOM     22  N   UNL     1       1.315  -0.386  -0.013  0.00  0.00    -0.274 N 
ATOM     23  C   UNL     1       2.039   0.777  -0.013  0.00  0.00    +0.135 A 
ATOM     24  N   UNL     1       1.186   1.763   0.000  0.00  0.00    -0.133 NA
ATOM     25  N   UNL     1      -0.016   1.309   0.009  0.00  0.00    -0.122 NA
ATOM     26  C   UNL     1       0.002  -0.004   0.002  0.00  0.00    +0.197 A 
ATOM     27  C   UNL     1       3.541   0.895  -0.027  0.00  0.00    +0.088 C 
BRANCH  22  32
ATOM     28  C   UNL     1       3.345  -5.687  -0.063  0.00  0.00    +0.044 C 
ATOM     29  C   UNL     1       2.806  -4.279  -0.050  0.00  0.00    -0.050 A 
ATOM     30  C   UNL     1       2.076  -3.810  -1.126  0.00  0.00    +0.005 A 
ATOM     31  C   UNL     1       1.581  -2.521  -1.117  0.00  0.00    +0.026 A 
ATOM     32  C   UNL     1       1.817  -1.696  -0.025  0.00  0.00    +0.050 A 
ATOM     33  C   UNL     1       2.555  -2.168   1.051  0.00  0.00    +0.026 A 
ATOM     34  C   UNL     1       3.043  -3.460   1.039  0.00  0.00    +0.005 A 
ENDBRANCH  22  32
ENDBRANCH  21  26
ENDBRANCH  19  21
ENDBRANCH   1  19
TORSDOF 5
