REMARK  Name = ZINC43290031
REMARK  7 active torsions:
REMARK  status: ('A' for Active; 'I' for Inactive)
REMARK    1  A    between atoms: C_1  and  C_2
REMARK    2  A    between atoms: C_2  and  C_3
REMARK    3  A    between atoms: C_3  and  C_5
REMARK    4  A    between atoms: C_3  and  N_22
REMARK    5  A    between atoms: C_5  and  C_7
REMARK    6  A    between atoms: C_5  and  O_13
REMARK    7  A    between atoms: O_13  and  C_14
REMARK                            x       y       z     vdW  Elec       q    Type
REMARK                         _______ _______ _______ _____ _____    ______ ____
ROOT
ATOM      1  C   UNL     1      -1.421  -2.131  -0.104  0.00  0.00    +0.196 C 
ENDROOT
BRANCH   1   2
ATOM      2  C   UNL     1      -2.717  -2.894  -0.014  0.00  0.00    +0.029 A 
ATOM      3  C   UNL     1      -3.309  -3.445   1.074  0.00  0.00    +0.030 A 
ATOM      4  C   UNL     1      -4.512  -4.108   0.919  0.00  0.00    +0.025 A 
ATOM      5  C   UNL     1      -5.065  -4.187  -0.317  0.00  0.00    +0.060 A 
ATOM      6  S   UNL     1      -3.875  -3.301  -1.310  0.00  0.00    -0.097 S 
ATOM      7 BR   UNL     1      -5.375  -4.892   2.408  0.00  0.00    -0.050 Br
ENDBRANCH   1   2
BRANCH   1   8
ATOM      8  C   UNL     1      -1.705  -0.630  -0.014  0.00  0.00    -0.029 C 
BRANCH   8   9
ATOM      9  N   UNL     1      -2.360  -0.332   1.267  0.00  0.00    +0.383 N 
ATOM     10  H   UNL     1      -2.548   0.657   1.326  0.00  0.00    -0.089 HD
ATOM     11  H   UNL     1      -3.228  -0.843   1.327  0.00  0.00    -0.089 HD
ATOM     12  H   UNL     1      -1.755  -0.606   2.026  0.00  0.00    -0.089 HD
ENDBRANCH   8   9
BRANCH   8  14
ATOM     13  C   UNL     1      -0.683   1.646  -0.141  0.00  0.00    +0.002 C 
ATOM     14  C   UNL     1      -0.389   0.145  -0.106  0.00  0.00    -0.016 C 
ENDBRANCH   8  14
ENDBRANCH   1   8
BRANCH   1  15
ATOM     15  O   UNL     1      -0.783  -2.420  -1.350  0.00  0.00    -0.484 OA
BRANCH  15  16
ATOM     16  C   UNL     1       0.573  -2.512  -1.343  0.00  0.00    +0.140 A 
ATOM     17  C   UNL     1       1.273  -2.360  -0.155  0.00  0.00    +0.050 A 
ATOM     18  C   UNL     1       2.651  -2.454  -0.149  0.00  0.00    +0.042 A 
ATOM     19  C   UNL     1       3.335  -2.699  -1.328  0.00  0.00    +0.125 A 
ATOM     20  C   UNL     1       2.639  -2.851  -2.515  0.00  0.00    +0.062 A 
ATOM     21  C   UNL     1       1.259  -2.763  -2.523  0.00  0.00    +0.085 A 
ATOM     22 CL   UNL     1       0.385  -2.960  -4.011  0.00  0.00    -0.080 Cl
ATOM     23  F   UNL     1       4.683  -2.790  -1.320  0.00  0.00    -0.205 F 
ENDBRANCH  15  16
ENDBRANCH   1  15
TORSDOF 6
