REMARK  Name = ZINC15323905
REMARK  13 active torsions:
REMARK  status: ('A' for Active; 'I' for Inactive)
REMARK    1  A    between atoms: C_1  and  C_2
REMARK    2  A    between atoms: C_2  and  C_3
REMARK    3  A    between atoms: C_3  and  C_4
REMARK    4  A    between atoms: C_4  and  N_5
REMARK    5  A    between atoms: C_6  and  N_36
REMARK    6  A    between atoms: C_7  and  N_14
REMARK    7  A    between atoms: N_14  and  C_15
REMARK    8  A    between atoms: C_15  and  C_16
REMARK    9  A    between atoms: C_16  and  C_17
REMARK   10  A    between atoms: C_16  and  C_18
REMARK   11  A    between atoms: C_19  and  C_21
REMARK   12  A    between atoms: C_25  and  S_27
REMARK   13  A    between atoms: S_27  and  N_30
REMARK                            x       y       z     vdW  Elec       q    Type
REMARK                         _______ _______ _______ _____ _____    ______ ____
ROOT
ATOM      1  N   UNL     1       5.266  -3.805   3.255  0.00  0.00    -0.260 N 
ATOM      2  C   UNL     1       6.065  -3.039   2.486  0.00  0.00    +0.251 C 
ATOM      3  O   UNL     1       7.218  -2.840   2.817  0.00  0.00    -0.270 OA
ENDROOT
BRANCH   1   6
ATOM      4  N   UNL     1       1.598  -3.712   3.438  0.00  0.00    -0.280 N 
ATOM      5  C   UNL     1       2.917  -3.547   3.792  0.00  0.00    +0.127 A 
ATOM      6  C   UNL     1       3.905  -3.961   2.921  0.00  0.00    +0.140 A 
ATOM      7  C   UNL     1       3.529  -4.539   1.694  0.00  0.00    +0.277 A 
ATOM      8  O   UNL     1       4.381  -4.914   0.906  0.00  0.00    -0.266 OA
ATOM      9  N   UNL     1       2.223  -4.677   1.396  0.00  0.00    -0.273 N 
ATOM     10  H   UNL     1       1.963  -5.076   0.551  0.00  0.00    +0.173 HD
ATOM     11  C   UNL     1       1.274  -4.274   2.260  0.00  0.00    +0.331 A 
ATOM     12  O   UNL     1       0.102  -4.415   1.968  0.00  0.00    -0.246 OA
BRANCH   5  13
ATOM     13  N   UNL     1       3.248  -2.978   4.998  0.00  0.00    -0.343 N 
ATOM     14  H   UNL     1       2.552  -2.629   5.577  0.00  0.00    +0.144 HD
ATOM     15  H   UNL     1       4.177  -2.925   5.271  0.00  0.00    +0.144 HD
ENDBRANCH   5  13
BRANCH   4  16
ATOM     16  C   UNL     1       0.539  -3.277   4.353  0.00  0.00    +0.128 C 
BRANCH  16  17
ATOM     17  C   UNL     1       0.173  -4.428   5.292  0.00  0.00    +0.021 C 
BRANCH  17  19
ATOM     18  C   UNL     1      -1.299  -5.126   7.187  0.00  0.00    +0.004 C 
ATOM     19  C   UNL     1      -0.933  -3.975   6.248  0.00  0.00    -0.002 C 
ENDBRANCH  17  19
ENDBRANCH  16  17
ENDBRANCH   4  16
ENDBRANCH   1   6
BRANCH   2  20
ATOM     20  C   UNL     1       5.540  -2.442   1.240  0.00  0.00    +0.039 A 
ATOM     21  C   UNL     1       4.184  -2.130   1.130  0.00  0.00    +0.014 A 
ATOM     22  C   UNL     1       3.700  -1.573  -0.035  0.00  0.00    +0.023 A 
ATOM     23  C   UNL     1       4.557  -1.323  -1.095  0.00  0.00    +0.067 A 
ATOM     24  C   UNL     1       5.903  -1.631  -0.991  0.00  0.00    +0.124 A 
ATOM     25  C   UNL     1       6.400  -2.184   0.171  0.00  0.00    +0.043 A 
ATOM     26 CL   UNL     1       3.940  -0.623  -2.558  0.00  0.00    -0.082 Cl
BRANCH  24  27
ATOM     27  S   UNL     1       6.985  -1.311  -2.345  0.00  0.00    +0.062 S 
ATOM     28  O   UNL     1       6.732   0.025  -2.759  0.00  0.00    -0.153 OA
ATOM     29  O   UNL     1       8.275  -1.754  -1.947  0.00  0.00    -0.153 OA
BRANCH  27  30
ATOM     30  N   UNL     1       6.511  -2.291  -3.593  0.00  0.00    -0.177 NA
ATOM     31  C   UNL     1       7.002  -3.654  -3.845  0.00  0.00    +0.109 C 
ATOM     32  C   UNL     1       6.304  -4.162  -5.124  0.00  0.00    +0.018 C 
ATOM     33  C   UNL     1       5.885  -2.850  -5.837  0.00  0.00    +0.018 C 
ATOM     34  C   UNL     1       5.524  -1.944  -4.631  0.00  0.00    +0.109 C 
ENDBRANCH  27  30
ENDBRANCH  24  27
ENDBRANCH   2  20
BRANCH   1  35
ATOM     35  C   UNL     1       5.812  -4.477   4.437  0.00  0.00    +0.117 C 
BRANCH  35  36
ATOM     36  C   UNL     1       6.459  -5.799   4.019  0.00  0.00    +0.001 C 
ATOM     37  C   UNL     1       7.165  -6.424   5.224  0.00  0.00    +0.009 C 
ATOM     38  C   UNL     1       5.380  -6.755   3.507  0.00  0.00    +0.009 C 
ENDBRANCH  35  36
ENDBRANCH   1  35
TORSDOF 10
