REMARK  Name = ZINC58235641
REMARK  9 active torsions:
REMARK  status: ('A' for Active; 'I' for Inactive)
REMARK    1  A    between atoms: C_1  and  C_2
REMARK    2  A    between atoms: C_5  and  C_8
REMARK    3  A    between atoms: C_8  and  C_10
REMARK    4  A    between atoms: C_10  and  C_11
REMARK    5  A    between atoms: C_11  and  C_12
REMARK    6  A    between atoms: N_14  and  C_15
REMARK    7  A    between atoms: C_15  and  C_16
REMARK    8  A    between atoms: C_15  and  C_17
REMARK    9  A    between atoms: C_20  and  N_23
REMARK                            x       y       z     vdW  Elec       q    Type
REMARK                         _______ _______ _______ _____ _____    ______ ____
ROOT
ATOM      1  C   UNL     1      -0.116  -7.199   2.403  0.00  0.00    +0.214 C 
ATOM      2  O   UNL     1       0.012  -6.654   3.479  0.00  0.00    -0.276 OA
ATOM      3  N   UNL     1      -0.073  -8.544   2.320  0.00  0.00    -0.309 N 
ATOM      4  H   UNL     1      -0.176  -8.980   1.460  0.00  0.00    +0.149 HD
ENDROOT
BRANCH   3   5
ATOM      5  C   UNL     1       0.128  -9.347   3.529  0.00  0.00    +0.100 C 
ATOM      6  C   UNL     1       1.626  -9.463   3.820  0.00  0.00    +0.033 C 
BRANCH   5   7
ATOM      7  C   UNL     1      -0.452 -10.722   3.321  0.00  0.00    -0.027 A 
ATOM      8  C   UNL     1      -0.294 -11.361   2.105  0.00  0.00    +0.007 A 
ATOM      9  C   UNL     1      -0.825 -12.621   1.911  0.00  0.00    +0.023 A 
ATOM     10  C   UNL     1      -1.517 -13.247   2.940  0.00  0.00    +0.035 A 
ATOM     11  C   UNL     1      -1.673 -12.603   4.160  0.00  0.00    +0.023 A 
ATOM     12  C   UNL     1      -1.135 -11.345   4.349  0.00  0.00    +0.007 A 
BRANCH  10  13
ATOM     13  N   UNL     1      -2.056 -14.524   2.747  0.00  0.00    -0.270 N 
ATOM     14  C   UNL     1      -1.425 -15.408   1.949  0.00  0.00    +0.301 C 
ATOM     15  O   UNL     1      -0.341 -15.132   1.474  0.00  0.00    -0.253 OA
ATOM     16  N   UNL     1      -1.997 -16.598   1.677  0.00  0.00    -0.313 N 
ATOM     17  H   UNL     1      -2.883 -14.773   3.188  0.00  0.00    +0.156 HD
ATOM     18  H   UNL     1      -2.862 -16.818   2.056  0.00  0.00    +0.146 HD
ATOM     19  H   UNL     1      -1.543 -17.234   1.103  0.00  0.00    +0.146 HD
ENDBRANCH  10  13
ENDBRANCH   5   7
ENDBRANCH   3   5
BRANCH   1  20
ATOM     20  C   UNL     1      -0.324  -6.374   1.160  0.00  0.00    +0.103 C 
BRANCH  20  21
ATOM     21  C   UNL     1      -0.332  -4.889   1.529  0.00  0.00    +0.089 C 
BRANCH  21  22
ATOM     22  C   UNL     1      -0.539  -4.063   0.286  0.00  0.00    +0.164 C 
ATOM     23  O   UNL     1      -0.668  -4.609  -0.790  0.00  0.00    -0.292 OA
BRANCH  22  28
ATOM     24  C   UNL     1      -0.725   1.671   0.641  0.00  0.00    +0.044 C 
ATOM     25  C   UNL     1      -0.676   0.168   0.548  0.00  0.00    -0.050 A 
ATOM     26  C   UNL     1      -0.822  -0.451  -0.682  0.00  0.00    +0.004 A 
ATOM     27  C   UNL     1      -0.779  -1.825  -0.775  0.00  0.00    +0.011 A 
ATOM     28  C   UNL     1      -0.586  -2.595   0.377  0.00  0.00    +0.017 A 
ATOM     29  C   UNL     1      -0.439  -1.963   1.615  0.00  0.00    +0.011 A 
ATOM     30  C   UNL     1      -0.479  -0.587   1.691  0.00  0.00    +0.004 A 
ENDBRANCH  22  28
ENDBRANCH  21  22
ENDBRANCH  20  21
ENDBRANCH   1  20
TORSDOF 7
