REMARK  Name = ZINC10464494
REMARK  8 active torsions:
REMARK  status: ('A' for Active; 'I' for Inactive)
REMARK    1  A    between atoms: C_1  and  C_2
REMARK    2  A    between atoms: C_2  and  C_3
REMARK    3  A    between atoms: C_2  and  C_4
REMARK    4  A    between atoms: C_4  and  C_6
REMARK    5  A    between atoms: C_4  and  N_16
REMARK    6  A    between atoms: N_19  and  C_20
REMARK    7  A    between atoms: C_20  and  C_21
REMARK    8  A    between atoms: N_23  and  C_24
REMARK                            x       y       z     vdW  Elec       q    Type
REMARK                         _______ _______ _______ _____ _____    ______ ____
ROOT
ATOM      1  N   UNL     1      -4.636  -0.142  -0.890  0.00  0.00    -0.292 N 
ATOM      2  C   UNL     1      -5.640  -0.848  -1.445  0.00  0.00    +0.300 C 
ATOM      3  O   UNL     1      -5.740  -2.040  -1.225  0.00  0.00    -0.253 OA
ATOM      4  N   UNL     1      -6.535  -0.234  -2.245  0.00  0.00    -0.291 N 
ATOM      5  H   UNL     1      -4.556   0.809  -1.066  0.00  0.00    +0.151 HD
ATOM      6  H   UNL     1      -6.455   0.717  -2.420  0.00  0.00    +0.151 HD
ENDROOT
BRANCH   1   7
ATOM      7  C   UNL     1      -3.664  -0.810  -0.021  0.00  0.00    +0.107 C 
BRANCH   7   8
ATOM      8  C   UNL     1      -2.369  -0.038  -0.029  0.00  0.00    -0.023 A 
ATOM      9  C   UNL     1      -2.390   1.344  -0.013  0.00  0.00    +0.009 A 
ATOM     10  C   UNL     1      -1.206   2.056  -0.025  0.00  0.00    +0.050 A 
ATOM     11  C   UNL     1       0.008   1.385  -0.044  0.00  0.00    +0.162 A 
ATOM     12  C   UNL     1       0.029  -0.004  -0.058  0.00  0.00    +0.162 A 
ATOM     13  C   UNL     1      -1.164  -0.713  -0.050  0.00  0.00    +0.055 A 
ATOM     14  O   UNL     1       1.209  -0.683  -0.076  0.00  0.00    -0.485 OA
ATOM     15  C   UNL     1       2.371   0.059  -0.461  0.00  0.00    +0.270 C 
ATOM     16  C   UNL     1       2.361   1.394   0.295  0.00  0.00    +0.270 C 
ATOM     17  O   UNL     1       1.166   2.099  -0.056  0.00  0.00    -0.485 OA
ENDBRANCH   7   8
BRANCH   7  19
ATOM     18  C   UNL     1      -4.580   0.538   1.872  0.00  0.00    +0.009 C 
ATOM     19  C   UNL     1      -4.213  -0.872   1.406  0.00  0.00    +0.008 C 
ATOM     20  C   UNL     1      -5.458  -1.759   1.435  0.00  0.00    +0.009 C 
ENDBRANCH   7  19
ENDBRANCH   1   7
BRANCH   4  21
ATOM     21  C   UNL     1      -7.627  -1.002  -2.848  0.00  0.00    +0.202 C 
BRANCH  21  22
ATOM     22  C   UNL     1      -8.478  -0.087  -3.690  0.00  0.00    +0.234 C 
ATOM     23  O   UNL     1      -8.200   1.091  -3.778  0.00  0.00    -0.274 OA
ATOM     24  N   UNL     1      -9.549  -0.577  -4.346  0.00  0.00    -0.283 N 
ATOM     25  H   UNL     1      -9.734  -1.529  -4.329  0.00  0.00    +0.155 HD
BRANCH  24  26
ATOM     26  C   UNL     1     -10.394   0.288  -5.051  0.00  0.00    +0.047 A 
ATOM     27  C   UNL     1      -9.870   1.401  -5.695  0.00  0.00    +0.024 A 
ATOM     28  C   UNL     1     -10.705   2.250  -6.394  0.00  0.00    +0.002 A 
ATOM     29  C   UNL     1     -12.064   1.998  -6.445  0.00  0.00    +0.001 A 
ATOM     30  C   UNL     1     -12.591   0.894  -5.801  0.00  0.00    +0.017 A 
ATOM     31  C   UNL     1     -11.759   0.037  -5.104  0.00  0.00    +0.039 A 
ATOM     32 BR   UNL     1     -12.480  -1.472  -4.223  0.00  0.00    -0.048 Br
ENDBRANCH  24  26
ENDBRANCH  21  22
ENDBRANCH   4  21
TORSDOF 6
