REMARK  Name = ZINC63161711
REMARK  8 active torsions:
REMARK  status: ('A' for Active; 'I' for Inactive)
REMARK    1  A    between atoms: C_1  and  C_2
REMARK    2  A    between atoms: C_2  and  O_3
REMARK    3  A    between atoms: O_3  and  C_4
REMARK    4  A    between atoms: C_7  and  C_10
REMARK    5  A    between atoms: C_10  and  C_11
REMARK    6  A    between atoms: C_10  and  N_12
REMARK    7  A    between atoms: N_15  and  C_16
REMARK    8  A    between atoms: C_18  and  C_24
REMARK                            x       y       z     vdW  Elec       q    Type
REMARK                         _______ _______ _______ _____ _____    ______ ____
ROOT
ATOM      1  N   UNL     1      -3.008  -6.414   1.014  0.00  0.00    -0.293 N 
ATOM      2  C   UNL     1      -3.062  -7.638   1.575  0.00  0.00    +0.304 C 
ATOM      3  O   UNL     1      -2.118  -8.397   1.470  0.00  0.00    -0.252 OA
ATOM      4  N   UNL     1      -4.161  -8.021   2.254  0.00  0.00    -0.265 N 
ATOM      5  H   UNL     1      -3.761  -5.809   1.098  0.00  0.00    +0.151 HD
ATOM      6  H   UNL     1      -4.884  -7.390   2.402  0.00  0.00    +0.157 HD
ENDROOT
BRANCH   4   7
ATOM      7  C   UNL     1      -4.261  -9.329   2.747  0.00  0.00    +0.100 A 
ATOM      8  C   UNL     1      -4.438  -9.554   4.085  0.00  0.00    +0.042 A 
ATOM      9  C   UNL     1      -4.535 -10.873   4.551  0.00  0.00    +0.073 A 
ATOM     10  C   UNL     1      -4.455 -11.906   3.682  0.00  0.00    +0.098 A 
ATOM     11  N   UNL     1      -4.279 -11.685   2.352  0.00  0.00    -0.327 N 
ATOM     12  H   UNL     1      -4.223 -12.439   1.744  0.00  0.00    +0.168 HD
ATOM     13  C   UNL     1      -4.187 -10.431   1.868  0.00  0.00    +0.270 A 
ATOM     14  O   UNL     1      -4.035 -10.248   0.671  0.00  0.00    -0.266 OA
BRANCH   9  15
ATOM     15  C   UNL     1      -4.729 -11.139   6.021  0.00  0.00    +0.419 C 
ATOM     16  F   UNL     1      -4.797 -12.519   6.240  0.00  0.00    -0.166 F 
ATOM     17  F   UNL     1      -3.653 -10.606   6.738  0.00  0.00    -0.166 F 
ATOM     18  F   UNL     1      -5.918 -10.540   6.451  0.00  0.00    -0.166 F 
ENDBRANCH   9  15
ENDBRANCH   4   7
BRANCH   1  19
ATOM     19  C   UNL     1      -1.813  -5.999   0.276  0.00  0.00    +0.102 C 
ATOM     20  C   UNL     1      -1.906  -6.496  -1.168  0.00  0.00    +0.033 C 
BRANCH  19  24
ATOM     21  C   UNL     1      -1.536  -1.734   0.297  0.00  0.00    +0.121 A 
ATOM     22  C   UNL     1      -0.393  -2.505   0.452  0.00  0.00    +0.046 A 
ATOM     23  C   UNL     1      -0.485  -3.884   0.445  0.00  0.00    +0.009 A 
ATOM     24  C   UNL     1      -1.715  -4.495   0.283  0.00  0.00    -0.027 A 
ATOM     25  C   UNL     1      -2.856  -3.728   0.128  0.00  0.00    +0.009 A 
ATOM     26  C   UNL     1      -2.770  -2.350   0.141  0.00  0.00    +0.046 A 
BRANCH  21  27
ATOM     27  O   UNL     1      -1.448  -0.378   0.304  0.00  0.00    -0.492 OA
BRANCH  27  29
ATOM     28  C   UNL     1      -0.246   1.714   0.451  0.00  0.00    +0.048 C 
ATOM     29  C   UNL     1      -0.146   0.187   0.469  0.00  0.00    +0.225 C 
ENDBRANCH  27  29
ENDBRANCH  21  27
ENDBRANCH  19  24
ENDBRANCH   1  19
TORSDOF 6
