REMARK  Name = ZINC66876465
REMARK  9 active torsions:
REMARK  status: ('A' for Active; 'I' for Inactive)
REMARK    1  A    between atoms: C_1  and  C_2
REMARK    2  A    between atoms: C_2  and  C_3
REMARK    3  A    between atoms: C_3  and  C_4
REMARK    4  A    between atoms: C_4  and  C_5
REMARK    5  A    between atoms: C_5  and  C_7
REMARK    6  A    between atoms: C_5  and  N_10
REMARK    7  A    between atoms: C_13  and  N_16
REMARK    8  A    between atoms: C_17  and  C_19
REMARK    9  A    between atoms: C_19  and  C_20
REMARK                            x       y       z     vdW  Elec       q    Type
REMARK                         _______ _______ _______ _____ _____    ______ ____
ROOT
ATOM      1  N   UNL     1      -3.277  -1.906   1.338  0.00  0.00    +0.387 N 
ATOM      2  C   UNL     1      -4.721  -2.002   1.587  0.00  0.00    -0.076 C 
ATOM      3  C   UNL     1      -5.057  -1.345   2.927  0.00  0.00    +0.004 C 
ATOM      4  C   UNL     1      -4.642   0.129   2.884  0.00  0.00    +0.069 C 
ATOM      5  C   UNL     1      -3.150   0.220   2.551  0.00  0.00    +0.004 C 
ATOM      6  C   UNL     1      -2.885  -0.496   1.225  0.00  0.00    -0.076 C 
ATOM      7  H   UNL     1      -2.777  -2.333   2.103  0.00  0.00    -0.081 HD
ENDROOT
BRANCH   4   8
ATOM      8  N   UNL     1      -4.891   0.746   4.189  0.00  0.00    -0.313 N 
ATOM      9  C   UNL     1      -5.092   2.075   4.279  0.00  0.00    +0.213 C 
ATOM     10  O   UNL     1      -5.067   2.761   3.279  0.00  0.00    -0.276 OA
ATOM     11  H   UNL     1      -4.910   0.197   4.989  0.00  0.00    +0.149 HD
BRANCH   9  12
ATOM     12  C   UNL     1      -5.348   2.710   5.622  0.00  0.00    +0.099 C 
BRANCH  12  13
ATOM     13  C   UNL     1      -5.542   4.217   5.445  0.00  0.00    -0.002 C 
ATOM     14  C   UNL     1      -4.216   4.873   5.007  0.00  0.00    +0.004 C 
ATOM     15  C   UNL     1      -4.205   6.235   5.744  0.00  0.00    +0.000 C 
ATOM     16  C   UNL     1      -4.822   5.885   7.120  0.00  0.00    +0.000 C 
ATOM     17  C   UNL     1      -5.928   4.860   6.789  0.00  0.00    +0.004 C 
ENDBRANCH  12  13
ENDBRANCH   9  12
ENDBRANCH   4   8
BRANCH   1  18
ATOM     18  C   UNL     1      -2.949  -2.606   0.089  0.00  0.00    +0.019 C 
BRANCH  18  19
ATOM     19  C   UNL     1      -3.585  -1.887  -1.072  0.00  0.00    +0.197 C 
ATOM     20  O   UNL     1      -4.468  -1.079  -0.875  0.00  0.00    -0.278 OA
ATOM     21  N   UNL     1      -3.173  -2.141  -2.330  0.00  0.00    -0.331 N 
ATOM     22  H   UNL     1      -2.467  -2.788  -2.488  0.00  0.00    +0.145 HD
ATOM     23  H   UNL     1      -3.583  -1.678  -3.078  0.00  0.00    +0.145 HD
ENDBRANCH  18  19
BRANCH  18  24
ATOM     24  C   UNL     1      -3.480  -4.040   0.154  0.00  0.00    -0.006 C 
BRANCH  24  25
ATOM     25  C   UNL     1      -2.788  -4.788   1.294  0.00  0.00    -0.001 C 
BRANCH  25  27
ATOM     26  C   UNL     1      -2.529  -7.005   2.418  0.00  0.00    +0.004 C 
ATOM     27  C   UNL     1      -3.220  -6.256   1.277  0.00  0.00    -0.003 C 
ENDBRANCH  25  27
ENDBRANCH  24  25
ENDBRANCH  18  24
ENDBRANCH   1  18
TORSDOF 8
