REMARK  Name = ZINC43221894
REMARK  10 active torsions:
REMARK  status: ('A' for Active; 'I' for Inactive)
REMARK    1  A    between atoms: C_1  and  C_2
REMARK    2  A    between atoms: C_2  and  C_3
REMARK    3  A    between atoms: C_7  and  C_35
REMARK    4  A    between atoms: C_8  and  N_9
REMARK    5  A    between atoms: C_14  and  C_29
REMARK    6  A    between atoms: C_17  and  C_22
REMARK    7  A    between atoms: C_17  and  C_26
REMARK    8  A    between atoms: C_22  and  C_24
REMARK    9  A    between atoms: C_22  and  O_25
REMARK   10  A    between atoms: C_35  and  C_36
REMARK                            x       y       z     vdW  Elec       q    Type
REMARK                         _______ _______ _______ _____ _____    ______ ____
ROOT
ATOM      1  N   UNL     1      -1.504  -0.314  -2.393  0.00  0.00    -0.209 N 
ATOM      2  C   UNL     1      -1.562   0.944  -2.940  0.00  0.00    +0.229 C 
ATOM      3  O   UNL     1      -1.924   1.969  -2.403  0.00  0.00    -0.275 OA
ATOM      4  C   UNL     1      -1.098   0.778  -4.295  0.00  0.00    +0.078 C 
ATOM      5  C   UNL     1      -0.534   1.562  -5.408  0.00  0.00    -0.020 C 
ATOM      6  N   UNL     1      -0.115   0.485  -6.370  0.00  0.00    +0.398 N 
ATOM      7  C   UNL     1       0.081  -0.774  -5.591  0.00  0.00    +0.074 C 
ATOM      8  C   UNL     1       0.003  -0.342  -4.119  0.00  0.00    +0.089 C 
ATOM      9  C   UNL     1      -0.785  -1.189  -3.158  0.00  0.00    +0.229 C 
ATOM     10  O   UNL     1      -0.783  -2.398  -3.080  0.00  0.00    -0.275 OA
ATOM     11  H   UNL     1      -0.834   0.348  -7.065  0.00  0.00    -0.083 HD
ATOM     12  H   UNL     1       0.750   0.747  -6.820  0.00  0.00    -0.083 HD
ENDROOT
BRANCH   1  18
ATOM     13  C   UNL     1      -1.412  -0.526   0.013  0.00  0.00    -0.026 A 
ATOM     14  C   UNL     1      -2.015  -0.864   1.208  0.00  0.00    +0.005 A 
ATOM     15  C   UNL     1      -3.312  -1.342   1.219  0.00  0.00    +0.001 A 
ATOM     16  C   UNL     1      -4.010  -1.484   0.034  0.00  0.00    +0.005 A 
ATOM     17  C   UNL     1      -3.412  -1.147  -1.165  0.00  0.00    -0.026 A 
ATOM     18  C   UNL     1      -2.111  -0.661  -1.179  0.00  0.00    +0.050 A 
BRANCH  13  20
ATOM     19  C   UNL     1      -0.019   1.526   0.010  0.00  0.00    +0.009 C 
ATOM     20  C   UNL     1       0.002  -0.004   0.002  0.00  0.00    +0.033 C 
ENDBRANCH  13  20
BRANCH  17  21
ATOM     21  C   UNL     1      -4.173  -1.301  -2.457  0.00  0.00    +0.033 C 
ATOM     22  C   UNL     1      -3.836  -2.653  -3.089  0.00  0.00    +0.009 C 
ENDBRANCH  17  21
ENDBRANCH   1  18
BRANCH   5  23
ATOM     23  C   UNL     1      -1.582   2.454  -6.022  0.00  0.00    -0.022 A 
ATOM     24  C   UNL     1      -1.792   3.779  -5.832  0.00  0.00    +0.011 A 
ATOM     25  C   UNL     1      -2.826   4.399  -6.510  0.00  0.00    +0.028 A 
ATOM     26  C   UNL     1      -3.599   3.661  -7.345  0.00  0.00    +0.078 A 
ATOM     27  S   UNL     1      -2.863   2.042  -7.196  0.00  0.00    -0.083 S 
ATOM     28 CL   UNL     1      -4.949   4.163  -8.314  0.00  0.00    -0.076 Cl
ENDBRANCH   5  23
BRANCH   7  29
ATOM     29  C   UNL     1       1.440  -1.360  -5.878  0.00  0.00    +0.349 C 
ATOM     30  O   UNL     1       2.182  -0.814  -6.677  0.00  0.00    -0.248 OA
ATOM     31  O   UNL     1       1.796  -2.379  -5.313  0.00  0.00    -0.248 OA
ENDBRANCH   7  29
BRANCH   7  32
ATOM     32  C   UNL     1      -1.016  -1.784  -5.931  0.00  0.00    +0.112 C 
ATOM     33  C   UNL     1      -0.941  -2.136  -7.418  0.00  0.00    +0.037 C 
BRANCH  32  34
ATOM     34  O   UNL     1      -0.832  -2.968  -5.152  0.00  0.00    -0.393 OA
ATOM     35  H   UNL     1      -1.493  -3.654  -5.316  0.00  0.00    +0.210 HD
ENDBRANCH  32  34
ENDBRANCH   7  32
TORSDOF 7
