REMARK  Name = ZINC19470650
REMARK  6 active torsions:
REMARK  status: ('A' for Active; 'I' for Inactive)
REMARK    1  A    between atoms: C_3  and  N_11
REMARK    2  A    between atoms: C_6  and  C_7
REMARK    3  A    between atoms: N_8  and  O_9
REMARK    4  A    between atoms: C_16  and  C_18
REMARK    5  A    between atoms: C_18  and  C_19
REMARK    6  A    between atoms: C_19  and  O_20
REMARK                            x       y       z     vdW  Elec       q    Type
REMARK                         _______ _______ _______ _____ _____    ______ ____
ROOT
ATOM      1  C   UNL     1      -4.186   1.260  -2.200  0.00  0.00    +0.016 A 
ATOM      2  C   UNL     1      -2.851   1.606  -2.244  0.00  0.00    +0.044 A 
ATOM      3  C   UNL     1      -2.025   1.269  -1.174  0.00  0.00    +0.121 A 
ATOM      4  N   UNL     1      -2.507   0.632  -0.117  0.00  0.00    -0.240 NA
ATOM      5  C   UNL     1      -3.776   0.289  -0.033  0.00  0.00    +0.124 A 
ATOM      6  C   UNL     1      -4.663   0.588  -1.067  0.00  0.00    +0.036 A 
ENDROOT
BRANCH   3   7
ATOM      7  N   UNL     1      -0.680   1.609  -1.214  0.00  0.00    -0.312 N 
ATOM      8  C   UNL     1       0.082   0.649  -2.022  0.00  0.00    +0.107 C 
ATOM      9  C   UNL     1       1.527   1.133  -2.164  0.00  0.00    +0.019 C 
ATOM     10  C   UNL     1       2.153   1.268  -0.773  0.00  0.00    +0.003 C 
ATOM     11  C   UNL     1       1.313   2.236   0.065  0.00  0.00    +0.022 C 
ATOM     12  C   UNL     1      -0.126   1.720   0.141  0.00  0.00    +0.077 C 
BRANCH  12  13
ATOM     13  C   UNL     1      -0.974   2.695   0.961  0.00  0.00    +0.050 C 
BRANCH  13  14
ATOM     14  C   UNL     1      -0.493   2.694   2.413  0.00  0.00    +0.157 C 
BRANCH  14  15
ATOM     15  O   UNL     1      -1.359   3.511   3.203  0.00  0.00    -0.395 OA
ATOM     16  H   UNL     1      -1.171   3.632   4.280  0.00  0.00    +0.209 HD
ENDBRANCH  14  15
ENDBRANCH  13  14
ENDBRANCH  12  13
ENDBRANCH   3   7
BRANCH   6  17
ATOM     17  C   UNL     1      -6.087   0.200  -0.969  0.00  0.00    +0.164 C 
ATOM     18  N   UNL     1      -6.907   0.483  -1.939  0.00  0.00    -0.071 NA
ATOM     19  N   UNL     1      -6.548  -0.465   0.155  0.00  0.00    -0.340 N 
ATOM     20  H   UNL     1      -7.607  -0.753   0.228  0.00  0.00    +0.144 HD
ATOM     21  H   UNL     1      -5.855  -0.704   0.975  0.00  0.00    +0.144 HD
BRANCH  18  22
ATOM     22  O   UNL     1      -8.270   0.112  -1.845  0.00  0.00    -0.408 OA
ATOM     23  H   UNL     1      -8.963   0.351  -2.665  0.00  0.00    +0.328 HD
ENDBRANCH  18  22
ENDBRANCH   6  17
TORSDOF 6
