REMARK  Name = ZINC65251651
REMARK  6 active torsions:
REMARK  status: ('A' for Active; 'I' for Inactive)
REMARK    1  A    between atoms: C_1  and  C_2
REMARK    2  A    between atoms: C_2  and  C_3
REMARK    3  A    between atoms: C_2  and  N_14
REMARK    4  A    between atoms: N_8  and  C_9
REMARK    5  A    between atoms: C_18  and  C_20
REMARK    6  A    between atoms: N_22  and  C_23
REMARK                            x       y       z     vdW  Elec       q    Type
REMARK                         _______ _______ _______ _____ _____    ______ ____
ROOT
ATOM      1  C   UNL     1       0.019   1.316   0.776  0.00  0.00    -0.004 C 
ATOM      2  C   UNL     1       0.002  -0.004   0.002  0.00  0.00    +0.017 C 
ENDROOT
BRANCH   2   3
ATOM      3  C   UNL     1      -1.363  -0.634   0.113  0.00  0.00    +0.207 C 
ATOM      4  O   UNL     1      -1.591  -1.432   0.997  0.00  0.00    -0.277 OA
ATOM      5  N   UNL     1      -2.328  -0.310  -0.769  0.00  0.00    -0.242 N 
ATOM      6  C   UNL     1      -3.549  -0.873  -0.670  0.00  0.00    +0.306 C 
ATOM      7  O   UNL     1      -3.778  -1.673   0.216  0.00  0.00    -0.252 OA
ATOM      8  N   UNL     1      -4.514  -0.549  -1.552  0.00  0.00    -0.296 N 
ATOM      9  H   UNL     1      -2.145   0.329  -1.476  0.00  0.00    +0.159 HD
ATOM     10  H   UNL     1      -4.331   0.090  -2.259  0.00  0.00    +0.151 HD
BRANCH   8  11
ATOM     11  C   UNL     1      -5.841  -1.161  -1.444  0.00  0.00    +0.074 C 
ATOM     12  C   UNL     1      -5.875  -2.490  -2.226  0.00  0.00    +0.022 C 
ATOM     13  C   UNL     1      -7.294  -2.530  -2.846  0.00  0.00    +0.002 C 
ATOM     14  C   UNL     1      -7.537  -1.051  -3.237  0.00  0.00    +0.002 C 
ATOM     15  C   UNL     1      -6.898  -0.246  -2.086  0.00  0.00    +0.022 C 
ENDBRANCH   8  11
ENDBRANCH   2   3
BRANCH   2  16
ATOM     16  N   UNL     1       1.009  -0.914   0.564  0.00  0.00    +0.388 N 
ATOM     17  C   UNL     1       1.010  -2.170  -0.197  0.00  0.00    -0.078 C 
ATOM     18  C   UNL     1       1.999  -3.152   0.434  0.00  0.00    -0.018 C 
ATOM     19  C   UNL     1       3.402  -2.539   0.412  0.00  0.00    +0.009 C 
ATOM     20  C   UNL     1       3.373  -1.195   1.144  0.00  0.00    +0.058 C 
ATOM     21  C   UNL     1       2.333  -0.285   0.487  0.00  0.00    -0.065 C 
ATOM     22  H   UNL     1       0.785  -1.108   1.528  0.00  0.00    -0.081 HD
BRANCH  20  23
ATOM     23  C   UNL     1       4.731  -0.547   1.062  0.00  0.00    +0.215 C 
ATOM     24  O   UNL     1       4.855   0.537   0.533  0.00  0.00    -0.276 OA
ATOM     25  N   UNL     1       5.809  -1.173   1.575  0.00  0.00    -0.312 N 
ATOM     26  H   UNL     1       5.710  -2.041   1.998  0.00  0.00    +0.149 HD
BRANCH  25  27
ATOM     27  C   UNL     1       7.129  -0.544   1.495  0.00  0.00    +0.073 C 
ATOM     28  C   UNL     1       8.311  -1.430   1.096  0.00  0.00    +0.024 C 
ATOM     29  C   UNL     1       8.169  -0.949   2.542  0.00  0.00    +0.024 C 
ENDBRANCH  25  27
ENDBRANCH  20  23
ENDBRANCH   2  16
TORSDOF 5
