REMARK  Name = ZINC63560258
REMARK  6 active torsions:
REMARK  status: ('A' for Active; 'I' for Inactive)
REMARK    1  A    between atoms: C_1  and  C_2
REMARK    2  A    between atoms: C_4  and  C_24
REMARK    3  A    between atoms: N_6  and  C_13
REMARK    4  A    between atoms: C_13  and  C_14
REMARK    5  A    between atoms: C_14  and  C_15
REMARK    6  A    between atoms: C_28  and  O_30
REMARK                            x       y       z     vdW  Elec       q    Type
REMARK                         _______ _______ _______ _____ _____    ______ ____
ROOT
ATOM      1  C   UNL     1      -0.018   1.503   0.010  0.00  0.00    +0.067 C 
ATOM      2  C   UNL     1       0.002  -0.004   0.002  0.00  0.00    +0.064 C 
ATOM      3  C   UNL     1      -1.065  -0.759   0.003  0.00  0.00    +0.013 C 
ATOM      4  C   UNL     1      -2.515  -1.112  -0.230  0.00  0.00    +0.137 C 
ATOM      5  N   UNL     1      -2.429  -2.319  -1.089  0.00  0.00    -0.288 N 
ATOM      6  C   UNL     1      -1.228  -2.932  -0.898  0.00  0.00    +0.247 C 
ATOM      7  O   UNL     1      -0.819  -3.908  -1.490  0.00  0.00    -0.273 OA
ATOM      8  C   UNL     1      -0.503  -2.180   0.177  0.00  0.00    +0.243 C 
ATOM      9  N   UNL     1       0.925  -1.982   0.025  0.00  0.00    -0.170 NA
ATOM     10  N   UNL     1       1.131  -0.758  -0.013  0.00  0.00    -0.158 NA
ENDROOT
BRANCH   4  11
ATOM     11  C   UNL     1      -3.202  -1.429   1.074  0.00  0.00    -0.019 A 
ATOM     12  C   UNL     1      -3.015  -2.661   1.672  0.00  0.00    +0.006 A 
ATOM     13  C   UNL     1      -3.644  -2.955   2.867  0.00  0.00    +0.004 A 
ATOM     14  C   UNL     1      -4.462  -2.017   3.467  0.00  0.00    +0.045 A 
ATOM     15  C   UNL     1      -4.651  -0.779   2.870  0.00  0.00    +0.117 A 
ATOM     16  C   UNL     1      -4.014  -0.485   1.673  0.00  0.00    +0.051 A 
BRANCH  15  17
ATOM     17  O   UNL     1      -5.455   0.145   3.458  0.00  0.00    -0.507 OA
ATOM     18  H   UNL     1      -4.994   0.733   4.072  0.00  0.00    +0.292 HD
ENDBRANCH  15  17
ENDBRANCH   4  11
BRANCH   5  19
ATOM     19  C   UNL     1      -3.477  -2.781  -2.002  0.00  0.00    +0.113 C 
BRANCH  19  20
ATOM     20  C   UNL     1      -3.269  -2.148  -3.379  0.00  0.00    +0.052 C 
BRANCH  20  21
ATOM     21  C   UNL     1      -4.347  -2.623  -4.319  0.00  0.00    -0.040 C 
ATOM     22  C   UNL     1      -5.508  -1.994  -4.610  0.00  0.00    -0.001 A 
ATOM     23  C   UNL     1      -6.093  -0.727  -4.155  0.00  0.00    +0.010 A 
ATOM     24  C   UNL     1      -7.301  -0.352  -4.635  0.00  0.00    +0.001 A 
ATOM     25  C   UNL     1      -8.007  -1.142  -5.552  0.00  0.00    +0.002 A 
ATOM     26  C   UNL     1      -7.535  -2.319  -6.016  0.00  0.00    +0.026 A 
ATOM     27  C   UNL     1      -6.274  -2.809  -5.580  0.00  0.00    +0.043 A 
ATOM     28  N   UNL     1      -5.611  -3.901  -5.877  0.00  0.00    -0.380 N 
ATOM     29  C   UNL     1      -4.347  -3.898  -5.133  0.00  0.00    +0.144 C 
ATOM     30  H   UNL     1      -5.906  -4.593  -6.489  0.00  0.00    +0.160 HD
ENDBRANCH  20  21
ENDBRANCH  19  20
ENDBRANCH   5  19
TORSDOF 5
