REMARK  Name = ZINC50197243
REMARK  6 active torsions:
REMARK  status: ('A' for Active; 'I' for Inactive)
REMARK    1  A    between atoms: C_1  and  C_2
REMARK    2  A    between atoms: C_2  and  C_3
REMARK    3  A    between atoms: C_2  and  C_4
REMARK    4  A    between atoms: C_2  and  N_9
REMARK    5  A    between atoms: C_4  and  C_5
REMARK    6  A    between atoms: C_5  and  C_6
REMARK                            x       y       z     vdW  Elec       q    Type
REMARK                         _______ _______ _______ _____ _____    ______ ____
ROOT
ATOM      1  N   UNL     1       0.689  -0.480  -1.201  0.00  0.00    -0.294 N 
ATOM      2  C   UNL     1       1.972  -0.132  -1.427  0.00  0.00    +0.303 C 
ATOM      3  O   UNL     1       2.531   0.646  -0.679  0.00  0.00    -0.253 OA
ATOM      4  N   UNL     1       2.633  -0.647  -2.482  0.00  0.00    -0.278 N 
ATOM      5  C   UNL     1       1.949  -1.496  -3.470  0.00  0.00    +0.137 C 
ATOM      6  C   UNL     1       2.248  -0.955  -4.872  0.00  0.00    +0.179 C 
ATOM      7  O   UNL     1       3.662  -0.801  -5.031  0.00  0.00    -0.373 OA
ATOM      8  C   UNL     1       4.248   0.129  -4.120  0.00  0.00    +0.139 C 
ATOM      9  C   UNL     1       4.068  -0.376  -2.691  0.00  0.00    +0.106 C 
ATOM     10  C   UNL     1       4.837  -1.688  -2.513  0.00  0.00    +0.025 C 
ATOM     11  C   UNL     1       6.319  -1.464  -2.815  0.00  0.00    +0.002 C 
ATOM     12  C   UNL     1       6.474  -0.991  -4.262  0.00  0.00    +0.003 C 
ATOM     13  C   UNL     1       5.732   0.311  -4.426  0.00  0.00    +0.033 C 
ATOM     14  H   UNL     1       0.220  -1.044  -1.836  0.00  0.00    +0.151 HD
ENDROOT
BRANCH   1  16
ATOM     15  C   UNL     1      -0.022   1.524   0.007  0.00  0.00    +0.031 C 
ATOM     16  C   UNL     1       0.003  -0.006   0.004  0.00  0.00    +0.031 C 
ATOM     17  C   UNL     1       0.746  -0.506   1.244  0.00  0.00    +0.031 C 
BRANCH  16  18
ATOM     18  C   UNL     1      -1.431  -0.540   0.018  0.00  0.00    +0.036 C 
BRANCH  18  19
ATOM     19  C   UNL     1      -2.147  -0.045   1.276  0.00  0.00    +0.127 C 
BRANCH  19  20
ATOM     20  C   UNL     1      -3.559  -0.571   1.290  0.00  0.00    +0.356 C 
ATOM     21  O   UNL     1      -3.956  -1.276   0.378  0.00  0.00    -0.246 OA
ATOM     22  O   UNL     1      -4.305  -0.291   2.213  0.00  0.00    -0.246 OA
ENDBRANCH  19  20
ENDBRANCH  18  19
ENDBRANCH  16  18
ENDBRANCH   1  16
TORSDOF 4
