REMARK  Name = ZINC22457325
REMARK  4 active torsions:
REMARK  status: ('A' for Active; 'I' for Inactive)
REMARK    1  A    between atoms: C_1  and  C_2
REMARK    2  A    between atoms: C_2  and  C_3
REMARK    3  A    between atoms: C_8  and  N_9
REMARK    4  A    between atoms: C_25  and  C_30
REMARK                            x       y       z     vdW  Elec       q    Type
REMARK                         _______ _______ _______ _____ _____    ______ ____
ROOT
ATOM      1  N   UNL     1       1.558   4.781   0.021  0.00  0.00    -0.297 N 
ATOM      2  C   UNL     1       0.734   3.684   0.261  0.00  0.00    +0.156 A 
ATOM      3  C   UNL     1       1.134   2.291   0.296  0.00  0.00    +0.080 A 
ATOM      4  C   UNL     1      -0.009   1.544   0.570  0.00  0.00    +0.060 A 
ATOM      5  N   UNL     1      -1.024   2.403   0.695  0.00  0.00    -0.210 N 
ATOM      6  N   UNL     1      -0.560   3.711   0.500  0.00  0.00    -0.148 NA
ATOM      7  C   UNL     1      -2.339   2.053   0.972  0.00  0.00    +0.195 A 
ATOM      8  N   UNL     1      -2.852   0.859   1.158  0.00  0.00    -0.221 NA
ATOM      9  C   UNL     1      -4.160   0.664   1.426  0.00  0.00    +0.081 A 
ATOM     10  C   UNL     1      -4.834  -0.559   1.650  0.00  0.00    +0.029 A 
ATOM     11  C   UNL     1      -6.170  -0.583   1.904  0.00  0.00    +0.002 A 
ATOM     12  C   UNL     1      -6.923   0.581   1.955  0.00  0.00    +0.001 A 
ATOM     13  C   UNL     1      -6.302   1.799   1.742  0.00  0.00    +0.017 A 
ATOM     14  C   UNL     1      -4.954   1.833   1.484  0.00  0.00    +0.041 A 
ATOM     15  S   UNL     1      -3.766   3.113   1.159  0.00  0.00    -0.048 S 
ATOM     16  C   UNL     1       0.003   0.043   0.691  0.00  0.00    +0.060 C 
ATOM     17  C   UNL     1       1.433  -0.428   0.978  0.00  0.00    -0.001 C 
ATOM     18  C   UNL     1       2.409   0.143  -0.056  0.00  0.00    +0.083 C 
ATOM     19  C   UNL     1       2.442   1.657   0.099  0.00  0.00    +0.169 C 
ATOM     20  O   UNL     1       3.475   2.293   0.060  0.00  0.00    -0.292 OA
ATOM     21  C   UNL     1       1.480  -1.956   0.924  0.00  0.00    +0.008 C 
ATOM     22  H   UNL     1       2.642   4.639  -0.098  0.00  0.00    +0.154 HD
ENDROOT
BRANCH   1  28
ATOM     23  C   UNL     1       1.839   7.171  -0.165  0.00  0.00    -0.026 A 
ATOM     24  C   UNL     1       1.292   8.436  -0.257  0.00  0.00    +0.005 A 
ATOM     25  C   UNL     1      -0.081   8.600  -0.243  0.00  0.00    +0.000 A 
ATOM     26  C   UNL     1      -0.911   7.498  -0.141  0.00  0.00    +0.002 A 
ATOM     27  C   UNL     1      -0.371   6.231  -0.053  0.00  0.00    +0.023 A 
ATOM     28  C   UNL     1       1.008   6.062  -0.068  0.00  0.00    +0.036 A 
BRANCH  23  30
ATOM     29  C   UNL     1       3.805   6.701  -1.601  0.00  0.00    +0.009 C 
ATOM     30  C   UNL     1       3.336   6.995  -0.175  0.00  0.00    +0.033 C 
ENDBRANCH  23  30
ENDBRANCH   1  28
TORSDOF 2
