REMARK  Name = ZINC09960467
REMARK  12 active torsions:
REMARK  status: ('A' for Active; 'I' for Inactive)
REMARK    1  A    between atoms: C_1  and  C_2
REMARK    2  A    between atoms: C_2  and  C_4
REMARK    3  A    between atoms: C_2  and  O_11
REMARK    4  A    between atoms: N_9  and  C_10
REMARK    5  A    between atoms: O_11  and  C_12
REMARK    6  A    between atoms: C_12  and  C_14
REMARK    7  A    between atoms: C_17  and  C_20
REMARK    8  A    between atoms: C_20  and  O_22
REMARK    9  A    between atoms: O_22  and  C_23
REMARK   10  A    between atoms: C_23  and  C_25
REMARK   11  A    between atoms: C_23  and  C_26
REMARK   12  A    between atoms: N_31  and  C_32
REMARK                            x       y       z     vdW  Elec       q    Type
REMARK                         _______ _______ _______ _____ _____    ______ ____
ROOT
ATOM      1  C   UNL     1      -1.269  -0.761   0.010  0.00  0.00    +0.059 A 
ATOM      2  C   UNL     1      -2.487  -0.080   0.031  0.00  0.00    +0.016 A 
ATOM      3  C   UNL     1      -3.671  -0.785   0.034  0.00  0.00    +0.016 A 
ATOM      4  C   UNL     1      -3.652  -2.181   0.026  0.00  0.00    +0.059 A 
ATOM      5  C   UNL     1      -2.434  -2.862   0.010  0.00  0.00    +0.016 A 
ATOM      6  C   UNL     1      -1.250  -2.157   0.002  0.00  0.00    +0.016 A 
ENDROOT
BRANCH   1   7
ATOM      7  C   UNL     1       0.002  -0.004   0.002  0.00  0.00    +0.340 C 
ATOM      8  O   UNL     1       1.062  -0.597  -0.011  0.00  0.00    -0.245 OA
BRANCH   7   9
ATOM      9  O   UNL     1      -0.016   1.343   0.009  0.00  0.00    -0.449 OA
BRANCH   9  11
ATOM     10  C   UNL     1       1.733   2.249   1.440  0.00  0.00    +0.062 C 
ATOM     11  C   UNL     1       1.268   2.019   0.001  0.00  0.00    +0.259 C 
BRANCH  11  12
ATOM     12  C   UNL     1       1.133   3.346  -0.701  0.00  0.00    +0.261 C 
ATOM     13  O   UNL     1       0.043   3.728  -1.070  0.00  0.00    -0.271 OA
ATOM     14  N   UNL     1       2.223   4.108  -0.919  0.00  0.00    -0.237 N 
ATOM     15  C   UNL     1       2.102   5.294  -1.547  0.00  0.00    +0.306 C 
ATOM     16  O   UNL     1       1.009   5.677  -1.917  0.00  0.00    -0.252 OA
ATOM     17  N   UNL     1       3.192   6.056  -1.766  0.00  0.00    -0.302 N 
ATOM     18  C   UNL     1       3.060   7.345  -2.448  0.00  0.00    +0.129 C 
ATOM     19  H   UNL     1       3.095   3.802  -0.625  0.00  0.00    +0.159 HD
ATOM     20  H   UNL     1       4.064   5.750  -1.471  0.00  0.00    +0.150 HD
ENDBRANCH  11  12
ENDBRANCH   9  11
ENDBRANCH   7   9
ENDBRANCH   1   7
BRANCH   4  21
ATOM     21  C   UNL     1      -4.923  -2.938   0.033  0.00  0.00    +0.340 C 
ATOM     22  O   UNL     1      -4.907  -4.152   0.025  0.00  0.00    -0.245 OA
BRANCH  21  23
ATOM     23  O   UNL     1      -6.099  -2.280   0.048  0.00  0.00    -0.449 OA
BRANCH  23  24
ATOM     24  C   UNL     1      -7.305  -3.088   0.054  0.00  0.00    +0.259 C 
ATOM     25  C   UNL     1      -7.743  -3.362  -1.386  0.00  0.00    +0.062 C 
BRANCH  24  26
ATOM     26  C   UNL     1      -8.400  -2.349   0.779  0.00  0.00    +0.261 C 
ATOM     27  O   UNL     1      -8.214  -1.215   1.166  0.00  0.00    -0.271 OA
ATOM     28  N   UNL     1      -9.587  -2.948   0.999  0.00  0.00    -0.237 N 
ATOM     29  C   UNL     1     -10.567  -2.288   1.647  0.00  0.00    +0.306 C 
ATOM     30  O   UNL     1     -10.379  -1.151   2.034  0.00  0.00    -0.252 OA
ATOM     31  N   UNL     1     -11.754  -2.887   1.867  0.00  0.00    -0.302 N 
ATOM     32  C   UNL     1     -12.818  -2.169   2.572  0.00  0.00    +0.129 C 
ATOM     33  H   UNL     1      -9.737  -3.856   0.689  0.00  0.00    +0.159 HD
ATOM     34  H   UNL     1     -11.903  -3.794   1.557  0.00  0.00    +0.150 HD
ENDBRANCH  24  26
ENDBRANCH  23  24
ENDBRANCH  21  23
ENDBRANCH   4  21
TORSDOF 8
