REMARK  Name = ZINC06744567
REMARK  6 active torsions:
REMARK  status: ('A' for Active; 'I' for Inactive)
REMARK    1  A    between atoms: C_2  and  C_3
REMARK    2  A    between atoms: C_3  and  N_4
REMARK    3  A    between atoms: C_5  and  C_22
REMARK    4  A    between atoms: C_8  and  C_15
REMARK    5  A    between atoms: C_20  and  O_21
REMARK    6  A    between atoms: C_25  and  O_28
REMARK                            x       y       z     vdW  Elec       q    Type
REMARK                         _______ _______ _______ _____ _____    ______ ____
ROOT
ATOM      1  N   UNL     1       1.216  -1.355   1.188  0.00  0.00    -0.281 N 
ATOM      2  C   UNL     1       1.603  -1.339   2.604  0.00  0.00    +0.142 C 
ATOM      3  C   UNL     1       1.343  -2.727   3.123  0.00  0.00    +0.035 A 
ATOM      4  C   UNL     1       1.384  -3.607   4.210  0.00  0.00    +0.102 A 
ATOM      5  N   UNL     1       0.935  -4.774   3.790  0.00  0.00    -0.173 NA
ATOM      6  N   UNL     1       0.615  -4.718   2.546  0.00  0.00    -0.272 N 
ATOM      7  H   UNL     1       0.262  -5.458   2.027  0.00  0.00    +0.189 HD
ATOM      8  C   UNL     1       0.846  -3.461   2.063  0.00  0.00    +0.126 A 
ATOM      9  C   UNL     1       0.774  -2.589   0.885  0.00  0.00    +0.266 C 
ATOM     10  O   UNL     1       0.373  -2.933  -0.210  0.00  0.00    -0.268 OA
ENDROOT
BRANCH   4  11
ATOM     11  C   UNL     1       1.847  -3.287   5.582  0.00  0.00    +0.044 A 
ATOM     12  C   UNL     1       3.038  -2.591   5.774  0.00  0.00    +0.014 A 
ATOM     13  C   UNL     1       3.465  -2.295   7.053  0.00  0.00    +0.001 A 
ATOM     14  C   UNL     1       2.714  -2.687   8.146  0.00  0.00    +0.004 A 
ATOM     15  C   UNL     1       1.531  -3.379   7.967  0.00  0.00    +0.046 A 
ATOM     16  C   UNL     1       1.088  -3.677   6.689  0.00  0.00    +0.126 A 
BRANCH  16  17
ATOM     17  O   UNL     1      -0.078  -4.352   6.511  0.00  0.00    -0.506 OA
ATOM     18  H   UNL     1       0.024  -5.314   6.491  0.00  0.00    +0.292 HD
ENDBRANCH  16  17
ENDBRANCH   4  11
BRANCH   2  19
ATOM     19  C   UNL     1       0.767  -0.338   3.359  0.00  0.00    -0.022 A 
ATOM     20  C   UNL     1      -0.606  -0.320   3.193  0.00  0.00    +0.009 A 
ATOM     21  C   UNL     1      -1.374   0.598   3.884  0.00  0.00    +0.046 A 
ATOM     22  C   UNL     1      -0.767   1.501   4.744  0.00  0.00    +0.117 A 
ATOM     23  C   UNL     1       0.610   1.480   4.909  0.00  0.00    +0.046 A 
ATOM     24  C   UNL     1       1.373   0.558   4.221  0.00  0.00    +0.009 A 
BRANCH  22  25
ATOM     25  O   UNL     1      -1.521   2.405   5.424  0.00  0.00    -0.507 OA
ATOM     26  H   UNL     1      -1.827   2.092   6.286  0.00  0.00    +0.292 HD
ENDBRANCH  22  25
ENDBRANCH   2  19
BRANCH   1  27
ATOM     27  C   UNL     1       1.292  -0.220   0.264  0.00  0.00    +0.135 C 
BRANCH  27  29
ATOM     28  C   UNL     1       0.012   1.836   0.569  0.00  0.00    +0.005 C 
ATOM     29  C   UNL     1      -0.001   0.552   0.310  0.00  0.00    -0.016 C 
ENDBRANCH  27  29
ENDBRANCH   1  27
TORSDOF 6
