REMARK  Name = ZINC39684085
REMARK  10 active torsions:
REMARK  status: ('A' for Active; 'I' for Inactive)
REMARK    1  A    between atoms: C_1  and  C_2
REMARK    2  A    between atoms: C_7  and  C_11
REMARK    3  A    between atoms: C_11  and  C_12
REMARK    4  A    between atoms: C_12  and  N_13
REMARK    5  A    between atoms: C_14  and  C_16
REMARK    6  A    between atoms: C_27  and  C_29
REMARK    7  A    between atoms: C_32  and  O_37
REMARK    8  A    between atoms: C_33  and  O_35
REMARK    9  A    between atoms: O_35  and  C_36
REMARK   10  A    between atoms: O_37  and  C_38
REMARK                            x       y       z     vdW  Elec       q    Type
REMARK                         _______ _______ _______ _____ _____    ______ ____
ROOT
ATOM      1  C   UNL     1      -8.822   1.371  -5.641  0.00  0.00    +0.100 C 
ATOM      2  C   UNL     1     -10.084   2.029  -5.038  0.00  0.00    +0.121 C 
ATOM      3  N   UNL     1     -11.194   1.581  -5.912  0.00  0.00    -0.296 N 
ATOM      4  C   UNL     1     -10.874   0.165  -6.217  0.00  0.00    +0.115 C 
ATOM      5  C   UNL     1      -9.345   0.148  -6.413  0.00  0.00    -0.004 C 
ATOM      6  C   UNL     1      -9.002   0.272  -7.894  0.00  0.00    -0.010 C 
ATOM      7  C   UNL     1      -9.482  -0.981  -8.631  0.00  0.00    -0.082 C 
ATOM      8  N   UNL     1      -8.835  -2.167  -8.056  0.00  0.00    +0.379 N 
ATOM      9  C   UNL     1      -9.245  -2.331  -6.656  0.00  0.00    -0.082 C 
ATOM     10  C   UNL     1      -8.755  -1.135  -5.835  0.00  0.00    -0.010 C 
ATOM     11  C   UNL     1     -12.254   2.298  -6.335  0.00  0.00    +0.247 C 
ATOM     12  O   UNL     1     -12.312   3.490  -6.104  0.00  0.00    -0.270 OA
ATOM     13  H   UNL     1      -9.106  -2.985  -8.582  0.00  0.00    -0.086 HD
ATOM     14  H   UNL     1      -7.833  -2.058  -8.101  0.00  0.00    -0.086 HD
ENDROOT
BRANCH  11  15
ATOM     15  C   UNL     1     -13.344   1.636  -7.077  0.00  0.00    +0.041 A 
ATOM     16  C   UNL     1     -13.521   0.254  -6.977  0.00  0.00    +0.017 A 
ATOM     17  C   UNL     1     -14.539  -0.363  -7.670  0.00  0.00    +0.050 A 
ATOM     18  C   UNL     1     -15.391   0.387  -8.471  0.00  0.00    +0.162 A 
ATOM     19  C   UNL     1     -15.220   1.766  -8.576  0.00  0.00    +0.162 A 
ATOM     20  C   UNL     1     -14.205   2.391  -7.878  0.00  0.00    +0.062 A 
BRANCH  19  21
ATOM     21  O   UNL     1     -16.056   2.497  -9.361  0.00  0.00    -0.491 OA
ATOM     22  C   UNL     1     -15.822   3.905  -9.422  0.00  0.00    +0.277 C 
ENDBRANCH  19  21
BRANCH  18  23
ATOM     23  O   UNL     1     -16.393  -0.226  -9.153  0.00  0.00    -0.491 OA
ATOM     24  C   UNL     1     -16.511  -1.642  -9.000  0.00  0.00    +0.277 C 
ENDBRANCH  18  23
ENDBRANCH  11  15
BRANCH   1  26
ATOM     25  N   UNL     1      -6.554   0.912  -4.768  0.00  0.00    -0.315 N 
ATOM     26  C   UNL     1      -7.883   0.937  -4.545  0.00  0.00    +0.218 C 
ATOM     27  O   UNL     1      -8.323   0.610  -3.463  0.00  0.00    -0.275 OA
ATOM     28  H   UNL     1      -6.202   1.174  -5.633  0.00  0.00    +0.149 HD
BRANCH  25  29
ATOM     29  C   UNL     1      -5.641   0.490  -3.703  0.00  0.00    +0.109 C 
BRANCH  29  30
ATOM     30  C   UNL     1      -4.199   0.553  -4.212  0.00  0.00    +0.056 C 
BRANCH  30  37
ATOM     31  C   UNL     1      -0.495  -2.254  -0.002  0.00  0.00    +0.046 C 
ATOM     32  C   UNL     1      -1.450  -2.330  -1.165  0.00  0.00    -0.027 A 
ATOM     33  C   UNL     1      -1.793  -3.554  -1.699  0.00  0.00    +0.005 A 
ATOM     34  C   UNL     1      -2.671  -3.638  -2.770  0.00  0.00    +0.001 A 
ATOM     35  C   UNL     1      -3.212  -2.507  -3.315  0.00  0.00    +0.010 A 
ATOM     36  C   UNL     1      -2.879  -1.257  -2.790  0.00  0.00    +0.003 A 
ATOM     37  C   UNL     1      -3.260   0.119  -3.117  0.00  0.00    -0.021 A 
ATOM     38  C   UNL     1      -2.613   0.920  -2.256  0.00  0.00    +0.087 A 
ATOM     39  N   UNL     1      -1.849   0.170  -1.404  0.00  0.00    -0.360 N 
ATOM     40  C   UNL     1      -1.993  -1.167  -1.700  0.00  0.00    +0.050 A 
ATOM     41  H   UNL     1      -1.291   0.527  -0.695  0.00  0.00    +0.165 HD
ENDBRANCH  30  37
ENDBRANCH  29  30
ENDBRANCH  25  29
ENDBRANCH   1  26
TORSDOF 7
