REMARK  Name = ZINC19042929
REMARK  7 active torsions:
REMARK  status: ('A' for Active; 'I' for Inactive)
REMARK    1  A    between atoms: C_5  and  N_7
REMARK    2  A    between atoms: C_8  and  C_10
REMARK    3  A    between atoms: C_10  and  N_11
REMARK    4  A    between atoms: C_12  and  C_14
REMARK    5  A    between atoms: C_14  and  O_15
REMARK    6  A    between atoms: O_15  and  C_16
REMARK    7  A    between atoms: C_21  and  C_22
REMARK                            x       y       z     vdW  Elec       q    Type
REMARK                         _______ _______ _______ _____ _____    ______ ____
ROOT
ATOM      1  N   UNL     1       3.908  -2.193  -0.070  0.00  0.00    -0.304 N 
ATOM      2  C   UNL     1       3.711  -0.860  -0.071  0.00  0.00    +0.251 C 
ATOM      3  O   UNL     1       4.661  -0.106  -0.081  0.00  0.00    -0.272 OA
ATOM      4  H   UNL     1       3.148  -2.796  -0.061  0.00  0.00    +0.149 HD
ENDROOT
BRANCH   1   5
ATOM      5  C   UNL     1       5.270  -2.732  -0.081  0.00  0.00    +0.200 C 
BRANCH   5   7
ATOM      6  N   UNL     1       6.356  -4.954  -0.085  0.00  0.00    -0.283 N 
ATOM      7  C   UNL     1       5.215  -4.238  -0.077  0.00  0.00    +0.234 C 
ATOM      8  O   UNL     1       4.143  -4.805  -0.066  0.00  0.00    -0.274 OA
ATOM      9  H   UNL     1       7.212  -4.503  -0.160  0.00  0.00    +0.155 HD
BRANCH   6  14
ATOM     10  C   UNL     1       5.219  -8.430  -0.476  0.00  0.00    +0.002 A 
ATOM     11  C   UNL     1       6.210  -9.108   0.209  0.00  0.00    +0.001 A 
ATOM     12  C   UNL     1       7.250  -8.412   0.797  0.00  0.00    +0.017 A 
ATOM     13  C   UNL     1       7.301  -7.034   0.702  0.00  0.00    +0.039 A 
ATOM     14  C   UNL     1       6.308  -6.349   0.013  0.00  0.00    +0.047 A 
ATOM     15  C   UNL     1       5.263  -7.052  -0.572  0.00  0.00    +0.024 A 
ATOM     16 BR   UNL     1       8.723  -6.082   1.507  0.00  0.00    -0.048 Br
ENDBRANCH   6  14
ENDBRANCH   5   7
ENDBRANCH   1   5
BRANCH   2  17
ATOM     17  C   UNL     1       2.309  -0.305  -0.059  0.00  0.00    +0.324 C 
BRANCH  17  18
ATOM     18  O   UNL     1       2.362   1.123  -0.063  0.00  0.00    -0.482 OA
BRANCH  18  19
ATOM     19  C   UNL     1       1.177   1.783  -0.054  0.00  0.00    +0.133 A 
ATOM     20  C   UNL     1      -0.015   1.073  -0.042  0.00  0.00    +0.048 A 
ATOM     21  C   UNL     1      -1.221   1.746  -0.038  0.00  0.00    +0.023 A 
ATOM     22  C   UNL     1      -1.251   3.132  -0.036  0.00  0.00    +0.042 A 
ATOM     23  C   UNL     1      -0.075   3.853  -0.048  0.00  0.00    +0.036 A 
ATOM     24  C   UNL     1       1.151   3.184  -0.058  0.00  0.00    +0.079 A 
ATOM     25 CL   UNL     1      -2.774   3.964  -0.025  0.00  0.00    -0.084 Cl
BRANCH  24  26
ATOM     26  C   UNL     1       2.413   3.948  -0.070  0.00  0.00    +0.245 C 
ATOM     27  O   UNL     1       3.479   3.363  -0.078  0.00  0.00    -0.270 OA
ATOM     28  N   UNL     1       2.385   5.296  -0.074  0.00  0.00    -0.325 N 
ATOM     29  H   UNL     1       1.535   5.763  -0.068  0.00  0.00    +0.145 HD
ATOM     30  H   UNL     1       3.214   5.798  -0.082  0.00  0.00    +0.145 HD
ENDBRANCH  24  26
ENDBRANCH  18  19
ENDBRANCH  17  18
ENDBRANCH   2  17
TORSDOF 7
