REMARK  Name = ZINC33436924
REMARK  8 active torsions:
REMARK  status: ('A' for Active; 'I' for Inactive)
REMARK    1  A    between atoms: C_1  and  C_2
REMARK    2  A    between atoms: C_2  and  C_3
REMARK    3  A    between atoms: C_2  and  C_4
REMARK    4  A    between atoms: C_4  and  C_5
REMARK    5  A    between atoms: C_5  and  C_27
REMARK    6  A    between atoms: C_10  and  C_13
REMARK    7  A    between atoms: C_18  and  O_19
REMARK    8  A    between atoms: N_23  and  C_26
REMARK                            x       y       z     vdW  Elec       q    Type
REMARK                         _______ _______ _______ _____ _____    ______ ____
ROOT
ATOM      1  C   UNL     1       1.503   2.092   0.036  0.00  0.00    +0.048 C 
ATOM      2  C   UNL     1       2.691   1.320  -0.378  0.00  0.00    +0.086 C 
ATOM      3  C   UNL     1       2.509   1.292  -1.949  0.00  0.00    +0.077 C 
ATOM      4  C   UNL     1       2.276   2.788  -2.151  0.00  0.00    -0.023 C 
ATOM      5  N   UNL     1       1.516   3.233  -0.944  0.00  0.00    +0.396 N 
ATOM      6  C   UNL     1       3.857   0.698  -2.250  0.00  0.00    +0.224 C 
ATOM      7  O   UNL     1       4.573   0.945  -3.197  0.00  0.00    -0.275 OA
ATOM      8  N   UNL     1       4.106  -0.179  -1.232  0.00  0.00    -0.245 N 
ATOM      9  C   UNL     1       3.284   0.021  -0.157  0.00  0.00    +0.225 C 
ATOM     10  O   UNL     1       3.097  -0.730   0.776  0.00  0.00    -0.275 OA
ATOM     11  C   UNL     1       5.130  -1.224  -1.292  0.00  0.00    +0.141 C 
ATOM     12  H   UNL     1       0.482   3.493  -1.218  0.00  0.00    -0.083 HD
ATOM     13  H   UNL     1       2.004   4.105  -0.485  0.00  0.00    -0.083 HD
ENDROOT
BRANCH   4  14
ATOM     14  C   UNL     1       3.593   3.515  -2.236  0.00  0.00    -0.018 A 
ATOM     15  C   UNL     1       4.136   4.096  -1.107  0.00  0.00    +0.025 A 
ATOM     16  C   UNL     1       5.345   4.764  -1.185  0.00  0.00    +0.041 A 
ATOM     17  C   UNL     1       6.013   4.851  -2.394  0.00  0.00    +0.023 A 
ATOM     18  C   UNL     1       5.473   4.271  -3.525  0.00  0.00    +0.047 A 
ATOM     19  C   UNL     1       4.263   3.596  -3.448  0.00  0.00    +0.119 A 
ATOM     20 CL   UNL     1       6.026   5.493   0.236  0.00  0.00    -0.084 Cl
BRANCH  19  21
ATOM     21  O   UNL     1       3.733   3.020  -4.559  0.00  0.00    -0.507 OA
ATOM     22  H   UNL     1       4.266   3.085  -5.519  0.00  0.00    +0.292 HD
ENDBRANCH  19  21
ENDBRANCH   4  14
BRANCH   1  23
ATOM     23  C   UNL     1       0.248   1.270  -0.110  0.00  0.00    +0.346 C 
ATOM     24  O   UNL     1       0.304   0.065  -0.042  0.00  0.00    -0.248 OA
ATOM     25  O   UNL     1      -0.930   1.877  -0.322  0.00  0.00    -0.248 OA
ENDBRANCH   1  23
BRANCH   1  26
ATOM     26  C   UNL     1       1.655   2.602   1.471  0.00  0.00    +0.002 C 
BRANCH  26  28
ATOM     27  C   UNL     1       0.466   3.721   3.362  0.00  0.00    +0.007 C 
ATOM     28  C   UNL     1       0.398   3.376   1.873  0.00  0.00    -0.018 C 
ATOM     29  C   UNL     1       0.311   4.666   1.055  0.00  0.00    +0.007 C 
ENDBRANCH  26  28
ENDBRANCH   1  26
TORSDOF 5
