REMARK  Name = ZINC27265056
REMARK  8 active torsions:
REMARK  status: ('A' for Active; 'I' for Inactive)
REMARK    1  A    between atoms: C_1  and  C_2
REMARK    2  A    between atoms: C_7  and  N_12
REMARK    3  A    between atoms: C_9  and  C_11
REMARK    4  A    between atoms: N_12  and  C_13
REMARK    5  A    between atoms: C_13  and  N_15
REMARK    6  A    between atoms: N_15  and  N_16
REMARK    7  A    between atoms: C_17  and  C_19
REMARK    8  A    between atoms: C_28  and  C_30
REMARK                            x       y       z     vdW  Elec       q    Type
REMARK                         _______ _______ _______ _____ _____    ______ ____
ROOT
ATOM      1  N   UNL     1       2.772  -3.391   4.650  0.00  0.00    -0.231 N 
ATOM      2  C   UNL     1       3.425  -3.837   5.741  0.00  0.00    +0.260 C 
ATOM      3  O   UNL     1       3.953  -4.932   5.728  0.00  0.00    -0.269 OA
ATOM      4  H   UNL     1       2.351  -2.518   4.660  0.00  0.00    +0.173 HD
ENDROOT
BRANCH   2   5
ATOM      5  C   UNL     1       3.499  -2.996   6.952  0.00  0.00    +0.039 A 
ATOM      6  C   UNL     1       2.889  -1.739   6.974  0.00  0.00    +0.015 A 
ATOM      7  C   UNL     1       2.961  -0.958   8.102  0.00  0.00    +0.024 A 
ATOM      8  C   UNL     1       3.642  -1.412   9.237  0.00  0.00    +0.040 A 
ATOM      9  C   UNL     1       4.247  -2.662   9.211  0.00  0.00    -0.024 A 
ATOM     10  C   UNL     1       4.175  -3.453   8.086  0.00  0.00    +0.018 A 
ATOM     11  C   UNL     1       4.906  -2.904  10.550  0.00  0.00    +0.056 C 
ATOM     12  C   UNL     1       4.608  -1.633  11.362  0.00  0.00    +0.118 C 
ATOM     13  N   UNL     1       3.826  -0.778  10.465  0.00  0.00    -0.271 N 
ATOM     14  C   UNL     1       3.353   0.443  10.781  0.00  0.00    +0.217 C 
ATOM     15  O   UNL     1       2.793   1.113   9.939  0.00  0.00    -0.276 OA
ATOM     16  C   UNL     1       3.519   0.976  12.181  0.00  0.00    +0.109 C 
ENDBRANCH   2   5
BRANCH   1  17
ATOM     17  N   UNL     1       2.702  -4.190   3.501  0.00  0.00    -0.246 N 
ATOM     18  H   UNL     1       3.123  -5.064   3.490  0.00  0.00    +0.172 HD
BRANCH  17  19
ATOM     19  C   UNL     1       2.049  -3.744   2.409  0.00  0.00    +0.147 C 
ATOM     20  S   UNL     1       1.963  -4.720   1.005  0.00  0.00    -0.017 S 
BRANCH  19  21
ATOM     21  N   UNL     1       1.464  -2.530   2.423  0.00  0.00    -0.322 N 
ATOM     22  H   UNL     1       1.512  -1.977   3.219  0.00  0.00    +0.148 HD
BRANCH  21  28
ATOM     23  C   UNL     1      -0.029   1.521   0.013  0.00  0.00    +0.008 C 
ATOM     24  C   UNL     1      -0.009  -0.009   0.005  0.00  0.00    -0.009 C 
ATOM     25  C   UNL     1      -1.444  -0.539   0.018  0.00  0.00    +0.003 C 
ATOM     26  C   UNL     1      -1.423  -2.069   0.010  0.00  0.00    +0.002 C 
ATOM     27  C   UNL     1      -0.681  -2.575   1.249  0.00  0.00    +0.022 C 
ATOM     28  C   UNL     1       0.754  -2.045   1.237  0.00  0.00    +0.075 C 
ATOM     29  C   UNL     1       0.733  -0.515   1.244  0.00  0.00    +0.009 C 
ATOM     30  C   UNL     1       0.018  -0.021   2.504  0.00  0.00    +0.009 C 
ENDBRANCH  21  28
ENDBRANCH  19  21
ENDBRANCH  17  19
ENDBRANCH   1  17
TORSDOF 5
