REMARK  Name = ZINC67633504
REMARK  11 active torsions:
REMARK  status: ('A' for Active; 'I' for Inactive)
REMARK    1  A    between atoms: C_1  and  C_2
REMARK    2  A    between atoms: N_5  and  C_8
REMARK    3  A    between atoms: C_8  and  C_9
REMARK    4  A    between atoms: C_9  and  C_11
REMARK    5  A    between atoms: C_9  and  O_28
REMARK    6  A    between atoms: C_11  and  N_12
REMARK    7  A    between atoms: N_15  and  C_16
REMARK    8  A    between atoms: C_16  and  C_18
REMARK    9  A    between atoms: C_16  and  C_19
REMARK   10  A    between atoms: C_19  and  O_20
REMARK   11  A    between atoms: O_20  and  C_21
REMARK                            x       y       z     vdW  Elec       q    Type
REMARK                         _______ _______ _______ _____ _____    ______ ____
ROOT
ATOM      1  N   UNL     1       0.526  -6.331   4.079  0.00  0.00    -0.297 N 
ATOM      2  C   UNL     1       0.687  -7.641   4.351  0.00  0.00    +0.300 C 
ATOM      3  O   UNL     1       0.343  -8.477   3.538  0.00  0.00    -0.253 OA
ATOM      4  N   UNL     1       1.230  -8.024   5.523  0.00  0.00    -0.294 N 
ATOM      5  H   UNL     1       0.800  -5.664   4.727  0.00  0.00    +0.150 HD
ATOM      6  H   UNL     1       1.505  -7.357   6.171  0.00  0.00    +0.151 HD
ENDROOT
BRANCH   4   7
ATOM      7  C   UNL     1       1.405  -9.449   5.818  0.00  0.00    +0.109 C 
ATOM      8  C   UNL     1       2.725  -9.936   5.216  0.00  0.00    +0.031 C 
BRANCH   7   9
ATOM      9  C   UNL     1       1.429  -9.656   7.334  0.00  0.00    +0.251 C 
BRANCH   9  10
ATOM     10  O   UNL     1       2.579  -9.011   7.885  0.00  0.00    -0.487 OA
BRANCH  10  11
ATOM     11  C   UNL     1       2.752  -9.100   9.231  0.00  0.00    +0.156 A 
ATOM     12  C   UNL     1       1.836  -9.798  10.003  0.00  0.00    +0.048 A 
ATOM     13  C   UNL     1       2.013  -9.887  11.371  0.00  0.00    +0.004 A 
ATOM     14  C   UNL     1       3.101  -9.281  11.970  0.00  0.00    +0.003 A 
ATOM     15  C   UNL     1       4.016  -8.584  11.204  0.00  0.00    +0.042 A 
ATOM     16  C   UNL     1       3.848  -8.497   9.833  0.00  0.00    +0.165 A 
ATOM     17  F   UNL     1       4.745  -7.821   9.083  0.00  0.00    -0.202 F 
ENDBRANCH  10  11
ENDBRANCH   9  10
ENDBRANCH   7   9
ENDBRANCH   4   7
BRANCH   1  18
ATOM     18  C   UNL     1      -0.065  -5.914   2.804  0.00  0.00    +0.135 C 
BRANCH  18  19
ATOM     19  C   UNL     1      -0.134  -4.387   2.750  0.00  0.00    +0.115 C 
BRANCH  19  20
ATOM     20  O   UNL     1      -0.941  -3.908   3.828  0.00  0.00    -0.392 OA
ATOM     21  H   UNL     1      -1.850  -4.235   3.814  0.00  0.00    +0.210 HD
ENDBRANCH  19  20
BRANCH  19  22
ATOM     22  C   UNL     1      -0.750  -3.952   1.419  0.00  0.00    -0.046 C 
BRANCH  22  27
ATOM     23  C   UNL     1      -0.019   1.526   0.010  0.00  0.00    +0.007 C 
ATOM     24  C   UNL     1       0.002  -0.004   0.002  0.00  0.00    -0.018 C 
ATOM     25  C   UNL     1      -1.434  -0.536   0.023  0.00  0.00    -0.016 C 
ATOM     26  C   UNL     1      -1.405  -2.064   0.095  0.00  0.00    -0.078 C 
ATOM     27  N   UNL     1      -0.707  -2.487   1.315  0.00  0.00    +0.381 N 
ATOM     28  C   UNL     1       0.691  -2.042   1.269  0.00  0.00    -0.078 C 
ATOM     29  C   UNL     1       0.743  -0.513   1.242  0.00  0.00    -0.016 C 
ATOM     30  H   UNL     1      -1.162  -2.082   2.119  0.00  0.00    -0.082 HD
ENDBRANCH  22  27
ENDBRANCH  19  22
ENDBRANCH  18  19
ENDBRANCH   1  18
TORSDOF 9
