REMARK  Name = ZINC65216100
REMARK  4 active torsions:
REMARK  status: ('A' for Active; 'I' for Inactive)
REMARK    1  A    between atoms: C_1  and  C_2
REMARK    2  A    between atoms: C_12  and  C_15
REMARK    3  A    between atoms: C_17  and  C_20
REMARK    4  A    between atoms: C_20  and  N_21
REMARK                            x       y       z     vdW  Elec       q    Type
REMARK                         _______ _______ _______ _____ _____    ______ ____
ROOT
ATOM      1  C   UNL     1      -0.914  -5.362   5.260  0.00  0.00    +0.203 A 
ATOM      2  N   UNL     1      -0.904  -6.706   5.217  0.00  0.00    -0.190 NA
ATOM      3  C   UNL     1      -1.347  -7.191   6.342  0.00  0.00    +0.242 A 
ATOM      4  O   UNL     1      -1.659  -6.171   7.151  0.00  0.00    -0.336 OA
ATOM      5  N   UNL     1      -1.365  -4.983   6.431  0.00  0.00    -0.056 NA
ENDROOT
BRANCH   1  16
ATOM      6  C   UNL     1       3.285  -2.506  -1.723  0.00  0.00    +0.009 C 
ATOM      7  C   UNL     1       2.705  -1.992  -0.404  0.00  0.00    +0.003 C 
ATOM      8  C   UNL     1       2.509  -0.476  -0.489  0.00  0.00    +0.006 C 
ATOM      9  C   UNL     1       1.960   0.044   0.841  0.00  0.00    +0.019 C 
ATOM     10  C   UNL     1       0.599  -0.604   1.115  0.00  0.00    +0.106 C 
ATOM     11  N   UNL     1       0.751  -2.064   1.055  0.00  0.00    -0.316 N 
ATOM     12  C   UNL     1       1.354  -2.664  -0.143  0.00  0.00    +0.109 C 
ATOM     13  C   UNL     1       0.333  -2.863   2.111  0.00  0.00    +0.099 A 
ATOM     14  C   UNL     1      -0.119  -2.268   3.286  0.00  0.00    +0.042 A 
ATOM     15  C   UNL     1      -0.533  -3.069   4.331  0.00  0.00    +0.016 A 
ATOM     16  C   UNL     1      -0.481  -4.458   4.166  0.00  0.00    +0.038 A 
ATOM     17  C   UNL     1      -0.017  -4.980   2.962  0.00  0.00    +0.095 A 
ATOM     18  N   UNL     1       0.364  -4.181   1.985  0.00  0.00    -0.349 N 
ATOM     19  H   UNL     1       0.680  -4.569   1.154  0.00  0.00    +0.167 HD
ENDBRANCH   1  16
BRANCH   3  20
ATOM     20  C   UNL     1      -1.485  -8.654   6.676  0.00  0.00    +0.183 C 
BRANCH  20  21
ATOM     21  N   UNL     1      -0.240  -9.136   7.290  0.00  0.00    -0.291 NA
ATOM     22  C   UNL     1       0.871  -9.093   6.330  0.00  0.00    +0.104 C 
ATOM     23  C   UNL     1       2.180  -9.428   7.053  0.00  0.00    +0.122 C 
ATOM     24  N   UNL     1       2.012 -10.711   7.752  0.00  0.00    -0.314 N 
ATOM     25  C   UNL     1       0.842 -10.878   8.629  0.00  0.00    +0.122 C 
ATOM     26  C   UNL     1      -0.414 -10.485   7.843  0.00  0.00    +0.104 C 
ATOM     27  C   UNL     1       2.934 -11.738   7.590  0.00  0.00    +0.099 A 
ATOM     28  C   UNL     1       4.099 -11.511   6.865  0.00  0.00    +0.042 A 
ATOM     29  C   UNL     1       5.008 -12.541   6.711  0.00  0.00    +0.005 A 
ATOM     30  C   UNL     1       4.721 -13.770   7.291  0.00  0.00    +0.018 A 
ATOM     31  C   UNL     1       3.545 -13.926   7.997  0.00  0.00    +0.084 A 
ATOM     32  N   UNL     1       2.699 -12.923   8.132  0.00  0.00    -0.350 N 
ATOM     33  H   UNL     1       1.882 -13.058   8.637  0.00  0.00    +0.166 HD
ENDBRANCH  20  21
ENDBRANCH   3  20
TORSDOF 3
