REMARK  Name = ZINC13431295
REMARK  9 active torsions:
REMARK  status: ('A' for Active; 'I' for Inactive)
REMARK    1  A    between atoms: C_1  and  C_2
REMARK    2  A    between atoms: C_2  and  C_3
REMARK    3  A    between atoms: C_2  and  C_4
REMARK    4  A    between atoms: C_2  and  O_33
REMARK    5  A    between atoms: C_20  and  O_30
REMARK    6  A    between atoms: C_21  and  O_28
REMARK    7  A    between atoms: C_24  and  O_27
REMARK    8  A    between atoms: O_28  and  C_29
REMARK    9  A    between atoms: O_30  and  C_31
REMARK                            x       y       z     vdW  Elec       q    Type
REMARK                         _______ _______ _______ _____ _____    ______ ____
ROOT
ATOM      1  C   UNL     1       5.558   7.976   2.759  0.00  0.00    +0.209 C 
ATOM      2  C   UNL     1       4.010   7.941   2.703  0.00  0.00    +0.090 C 
ATOM      3  C   UNL     1       3.763   6.983   1.569  0.00  0.00    +0.040 A 
ATOM      4  C   UNL     1       4.969   6.317   1.317  0.00  0.00    +0.128 A 
ATOM      5  C   UNL     1       5.056   5.365   0.293  0.00  0.00    +0.047 A 
ATOM      6  C   UNL     1       3.929   5.109  -0.443  0.00  0.00    +0.019 A 
ATOM      7  C   UNL     1       2.724   5.769  -0.191  0.00  0.00    +0.063 A 
ATOM      8  C   UNL     1       2.619   6.728   0.841  0.00  0.00    +0.139 A 
ATOM      9  O   UNL     1       1.456   7.351   1.103  0.00  0.00    -0.481 OA
ATOM     10  C   UNL     1       0.445   7.423   0.095  0.00  0.00    +0.254 C 
ATOM     11  C   UNL     1      -0.868   7.856   0.772  0.00  0.00    +0.277 C 
ATOM     12  O   UNL     1      -1.105   6.983   1.877  0.00  0.00    -0.488 OA
ATOM     13  C   UNL     1      -0.996   5.643   1.675  0.00  0.00    +0.131 A 
ATOM     14  C   UNL     1      -1.529   4.783   2.629  0.00  0.00    +0.095 A 
ATOM     15  C   UNL     1      -1.432   3.413   2.466  0.00  0.00    +0.165 A 
ATOM     16  C   UNL     1      -0.787   2.893   1.346  0.00  0.00    +0.162 A 
ATOM     17  C   UNL     1      -0.260   3.751   0.397  0.00  0.00    +0.060 A 
ATOM     18  C   UNL     1      -0.365   5.123   0.557  0.00  0.00    +0.040 A 
ATOM     19  C   UNL     1       0.210   6.028  -0.498  0.00  0.00    +0.197 C 
ATOM     20  C   UNL     1       1.528   5.484  -0.997  0.00  0.00    +0.206 C 
ATOM     21  O   UNL     1       1.597   4.838  -2.022  0.00  0.00    -0.288 OA
ATOM     22  O   UNL     1       5.935   6.717   2.168  0.00  0.00    -0.485 OA
ENDROOT
BRANCH   1  24
ATOM     23  C   UNL     1       7.575   8.094   4.229  0.00  0.00    +0.045 C 
ATOM     24  C   UNL     1       6.045   8.061   4.207  0.00  0.00    +0.097 C 
ATOM     25  C   UNL     1       5.498   9.334   4.855  0.00  0.00    +0.045 C 
BRANCH  24  26
ATOM     26  O   UNL     1       5.583   6.920   4.932  0.00  0.00    -0.385 OA
ATOM     27  H   UNL     1       5.855   6.907   5.860  0.00  0.00    +0.210 HD
ENDBRANCH  24  26
ENDBRANCH   1  24
BRANCH  19  28
ATOM     28  O   UNL     1      -0.706   6.124  -1.591  0.00  0.00    -0.373 OA
ATOM     29  H   UNL     1      -0.901   5.278  -2.016  0.00  0.00    +0.211 HD
ENDBRANCH  19  28
BRANCH  16  30
ATOM     30  O   UNL     1      -0.682   1.547   1.184  0.00  0.00    -0.491 OA
ATOM     31  C   UNL     1      -0.013   1.086   0.008  0.00  0.00    +0.277 C 
ENDBRANCH  16  30
BRANCH  15  32
ATOM     32  O   UNL     1      -1.959   2.575   3.398  0.00  0.00    -0.491 OA
ATOM     33  C   UNL     1      -2.606   3.179   4.521  0.00  0.00    +0.277 C 
ENDBRANCH  15  32
TORSDOF 5
