REMARK  Name = ZINC09054613
REMARK  6 active torsions:
REMARK  status: ('A' for Active; 'I' for Inactive)
REMARK    1  A    between atoms: C_1  and  C_2
REMARK    2  A    between atoms: C_3  and  C_26
REMARK    3  A    between atoms: C_7  and  N_17
REMARK    4  A    between atoms: C_9  and  C_11
REMARK    5  A    between atoms: C_11  and  N_50
REMARK    6  A    between atoms: N_17  and  C_18
REMARK                            x       y       z     vdW  Elec       q    Type
REMARK                         _______ _______ _______ _____ _____    ______ ____
ROOT
ATOM      1  C   UNL     1       0.057  -0.003  -0.028  0.00  0.00    +0.045 C 
ATOM      2  C   UNL     1       0.031   1.504  -0.017  0.00  0.00    -0.028 A 
ATOM      3  C   UNL     1       1.140   2.203  -0.300  0.00  0.00    -0.008 A 
ATOM      4  S   UNL     1       0.609   3.900  -0.159  0.00  0.00    -0.074 S 
ATOM      5  C   UNL     1      -1.087   3.623   0.276  0.00  0.00    +0.114 A 
ATOM      6  C   UNL     1      -1.196   2.215   0.294  0.00  0.00    +0.051 A 
ATOM      7  C   UNL     1      -2.482   1.708   0.628  0.00  0.00    +0.131 A 
ATOM      8  N   UNL     1      -3.465   2.557   0.882  0.00  0.00    -0.219 NA
ATOM      9  C   UNL     1      -3.291   3.866   0.842  0.00  0.00    +0.116 A 
ATOM     10  N   UNL     1      -2.121   4.396   0.543  0.00  0.00    -0.227 NA
ATOM     11  C   UNL     1       2.508   1.680  -0.653  0.00  0.00    +0.052 C 
ENDROOT
BRANCH   7  12
ATOM     12  N   UNL     1      -2.704   0.344   0.681  0.00  0.00    -0.324 N 
ATOM     13  H   UNL     1      -1.963  -0.273   0.575  0.00  0.00    +0.148 HD
BRANCH  12  14
ATOM     14  C   UNL     1      -4.059  -0.170   0.898  0.00  0.00    +0.094 C 
ATOM     15  C   UNL     1      -3.980  -1.571   1.525  0.00  0.00    +0.046 C 
ATOM     16  C   UNL     1      -5.394  -2.215   1.454  0.00  0.00    +0.168 C 
ATOM     17  S   UNL     1      -5.923  -1.681  -0.228  0.00  0.00    -0.029 S 
ATOM     18  O   UNL     1      -5.572  -2.691  -1.165  0.00  0.00    -0.174 OA
ATOM     19  O   UNL     1      -7.266  -1.222  -0.166  0.00  0.00    -0.174 OA
ATOM     20  C   UNL     1      -4.806  -0.239  -0.456  0.00  0.00    +0.188 C 
ENDBRANCH  12  14
ENDBRANCH   7  12
BRANCH   9  21
ATOM     21  C   UNL     1      -4.457   4.773   1.142  0.00  0.00    -0.001 C 
BRANCH  21  27
ATOM     22  C   UNL     1      -4.348   5.870  -1.015  0.00  0.00    -0.050 C 
ATOM     23  C   UNL     1      -5.115   6.106  -2.319  0.00  0.00    +0.141 C 
ATOM     24  O   UNL     1      -6.362   6.742  -2.025  0.00  0.00    -0.383 OA
ATOM     25  C   UNL     1      -7.196   5.992  -1.138  0.00  0.00    +0.141 C 
ATOM     26  C   UNL     1      -6.450   5.754   0.178  0.00  0.00    -0.050 C 
ATOM     27  N   UNL     1      -5.185   5.048  -0.116  0.00  0.00    +0.387 N 
ATOM     28  H   UNL     1      -5.399   4.158  -0.579  0.00  0.00    -0.081 HD
ENDBRANCH  21  27
ENDBRANCH   9  21
TORSDOF 4
