REMARK  Name = ZINC40757723
REMARK  4 active torsions:
REMARK  status: ('A' for Active; 'I' for Inactive)
REMARK    1  A    between atoms: C_1  and  N_2
REMARK    2  A    between atoms: N_2  and  C_3
REMARK    3  A    between atoms: C_10  and  N_23
REMARK    4  A    between atoms: C_11  and  N_15
REMARK                            x       y       z     vdW  Elec       q    Type
REMARK                         _______ _______ _______ _____ _____    ______ ____
ROOT
ATOM      1  C   UNL     1       1.294   0.339   0.591  0.00  0.00    +0.137 C 
ATOM      2  N   UNL     1       0.005  -0.038   0.004  0.00  0.00    -0.288 N 
ATOM      3  C   UNL     1      -0.042  -0.602  -1.265  0.00  0.00    +0.128 A 
ATOM      4  C   UNL     1      -0.059   0.209  -2.402  0.00  0.00    +0.104 A 
ATOM      5  C   UNL     1      -0.107  -0.409  -3.652  0.00  0.00    +0.150 A 
ATOM      6  N   UNL     1      -0.135  -1.738  -3.714  0.00  0.00    -0.221 NA
ATOM      7  C   UNL     1      -0.118  -2.467  -2.616  0.00  0.00    +0.200 A 
ATOM      8  N   UNL     1      -0.067  -1.924  -1.417  0.00  0.00    -0.333 N 
ATOM      9  H   UNL     1      -0.051  -2.496  -0.633  0.00  0.00    +0.168 HD
ENDROOT
BRANCH   5  10
ATOM     10  N   UNL     1      -0.126   0.353  -4.816  0.00  0.00    -0.283 N 
ATOM     11  C   UNL     1      -0.283  -0.269  -6.052  0.00  0.00    +0.124 A 
ATOM     12  C   UNL     1      -0.193   0.484  -7.218  0.00  0.00    +0.045 A 
ATOM     13  C   UNL     1      -0.351  -0.146  -8.440  0.00  0.00    +0.025 A 
ATOM     14  C   UNL     1      -0.595  -1.514  -8.453  0.00  0.00    +0.059 A 
ATOM     15  C   UNL     1      -0.672  -2.199  -7.256  0.00  0.00    +0.132 A 
ATOM     16  N   UNL     1      -0.512  -1.571  -6.106  0.00  0.00    -0.239 NA
ATOM     17 CL   UNL     1      -0.801  -2.353  -9.959  0.00  0.00    -0.082 Cl
ATOM     18  H   UNL     1      -0.030   1.317  -4.767  0.00  0.00    +0.155 HD
ENDBRANCH   5  10
BRANCH   2  19
ATOM     19  C   UNL     1      -1.176   0.169   0.722  0.00  0.00    +0.035 A 
ATOM     20  C   UNL     1      -2.387  -0.285   0.215  0.00  0.00    +0.023 A 
ATOM     21  C   UNL     1      -3.552  -0.078   0.926  0.00  0.00    +0.002 A 
ATOM     22  C   UNL     1      -3.515   0.580   2.142  0.00  0.00    +0.000 A 
ATOM     23  C   UNL     1      -2.311   1.034   2.649  0.00  0.00    +0.002 A 
ATOM     24  C   UNL     1      -1.141   0.825   1.946  0.00  0.00    +0.023 A 
ENDBRANCH   2  19
BRANCH   4  25
ATOM     25  N   UNL     1      -0.029   1.608  -2.289  0.00  0.00    -0.353 N 
ATOM     26  H   UNL     1      -0.069   2.026  -1.415  0.00  0.00    +0.143 HD
ATOM     27  H   UNL     1       0.033   2.158  -3.087  0.00  0.00    +0.143 HD
ENDBRANCH   4  25
TORSDOF 3
