REMARK  Name = ZINC16904347
REMARK  6 active torsions:
REMARK  status: ('A' for Active; 'I' for Inactive)
REMARK    1  A    between atoms: C_1  and  C_2
REMARK    2  A    between atoms: C_2  and  N_3
REMARK    3  A    between atoms: C_7  and  C_8
REMARK    4  A    between atoms: C_13  and  C_14
REMARK    5  A    between atoms: N_17  and  C_18
REMARK    6  A    between atoms: C_21  and  O_24
REMARK                            x       y       z     vdW  Elec       q    Type
REMARK                         _______ _______ _______ _____ _____    ______ ____
ROOT
ATOM      1  N   UNL     1      -2.768   7.812  -0.240  0.00  0.00    -0.246 N 
ATOM      2  C   UNL     1      -1.504   7.429  -0.168  0.00  0.00    +0.259 C 
ATOM      3  O   UNL     1      -0.593   8.235  -0.191  0.00  0.00    -0.269 OA
ATOM      4  C   UNL     1      -1.250   5.978  -0.058  0.00  0.00    +0.078 C 
ATOM      5  C   UNL     1      -0.070   5.316   0.030  0.00  0.00    +0.028 C 
ATOM      6  S   UNL     1      -2.915   5.330  -0.079  0.00  0.00    -0.049 S 
ATOM      7  C   UNL     1      -3.786   6.883  -0.212  0.00  0.00    +0.168 C 
ATOM      8  N   UNL     1      -5.082   7.090  -0.273  0.00  0.00    -0.225 NA
ENDROOT
BRANCH   5   9
ATOM      9  C   UNL     1      -0.044   3.848  -0.045  0.00  0.00    -0.021 A 
ATOM     10  C   UNL     1      -1.137   3.151  -0.573  0.00  0.00    +0.008 A 
ATOM     11  C   UNL     1      -1.103   1.775  -0.645  0.00  0.00    +0.001 A 
ATOM     12  C   UNL     1       0.005   1.082  -0.188  0.00  0.00    +0.000 A 
ATOM     13  C   UNL     1       1.090   1.763   0.336  0.00  0.00    +0.004 A 
ATOM     14  C   UNL     1       1.073   3.140   0.410  0.00  0.00    -0.043 A 
ATOM     15  C   UNL     1       2.256   3.880   0.981  0.00  0.00    +0.044 C 
ENDBRANCH   5   9
BRANCH   8  16
ATOM     16  C   UNL     1      -5.947   6.030  -0.231  0.00  0.00    +0.067 A 
ATOM     17  C   UNL     1      -5.701   4.893  -1.004  0.00  0.00    +0.031 A 
ATOM     18  C   UNL     1      -6.572   3.825  -0.954  0.00  0.00    +0.047 A 
ATOM     19  C   UNL     1      -7.699   3.884  -0.145  0.00  0.00    +0.117 A 
ATOM     20  C   UNL     1      -7.951   5.014   0.621  0.00  0.00    +0.047 A 
ATOM     21  C   UNL     1      -7.082   6.084   0.582  0.00  0.00    +0.031 A 
BRANCH  19  22
ATOM     22  O   UNL     1      -8.559   2.831  -0.103  0.00  0.00    -0.507 OA
ATOM     23  H   UNL     1      -9.268   2.877  -0.759  0.00  0.00    +0.292 HD
ENDBRANCH  19  22
ENDBRANCH   8  16
BRANCH   1  25
ATOM     24  C   UNL     1      -3.149   9.633  -1.827  0.00  0.00    +0.025 C 
ATOM     25  C   UNL     1      -3.089   9.237  -0.350  0.00  0.00    +0.112 C 
ENDBRANCH   1  25
TORSDOF 4
