REMARK  Name = ZINC66741176
REMARK  4 active torsions:
REMARK  status: ('A' for Active; 'I' for Inactive)
REMARK    1  A    between atoms: C_1  and  C_2
REMARK    2  A    between atoms: C_11  and  C_14
REMARK    3  A    between atoms: C_17  and  C_19
REMARK    4  A    between atoms: C_22  and  N_26
REMARK                            x       y       z     vdW  Elec       q    Type
REMARK                         _______ _______ _______ _____ _____    ______ ____
ROOT
ATOM      1  C   UNL     1      -2.052  -1.577  -3.288  0.00  0.00    +0.144 A 
ATOM      2  C   UNL     1      -2.893  -2.615  -3.466  0.00  0.00    +0.049 A 
ATOM      3  C   UNL     1      -4.203  -2.103  -3.381  0.00  0.00    +0.050 A 
ATOM      4  C   UNL     1      -4.088  -0.768  -3.152  0.00  0.00    +0.137 A 
ATOM      5  O   UNL     1      -2.778  -0.464  -3.093  0.00  0.00    -0.456 OA
ENDROOT
BRANCH   1  16
ATOM      6  C   UNL     1      -0.018   1.503   0.010  0.00  0.00    +0.067 C 
ATOM      7  C   UNL     1       0.002  -0.004   0.002  0.00  0.00    +0.055 A 
ATOM      8  C   UNL     1       0.008  -0.795  -1.075  0.00  0.00    +0.082 A 
ATOM      9  C   UNL     1       0.036  -2.138  -0.574  0.00  0.00    +0.168 A 
ATOM     10  N   UNL     1       0.036  -2.062   0.724  0.00  0.00    -0.167 NA
ATOM     11  N   UNL     1       0.024  -0.824   1.094  0.00  0.00    -0.279 N 
ATOM     12  H   UNL     1       0.027  -0.521   2.015  0.00  0.00    +0.189 HD
ATOM     13  C   UNL     1       0.065  -3.267  -1.523  0.00  0.00    +0.268 C 
ATOM     14  O   UNL     1       0.262  -4.408  -1.151  0.00  0.00    -0.268 OA
ATOM     15  N   UNL     1      -0.138  -2.973  -2.829  0.00  0.00    -0.285 N 
ATOM     16  C   UNL     1      -0.547  -1.654  -3.298  0.00  0.00    +0.226 C 
ATOM     17  N   UNL     1      -0.010  -0.572  -2.459  0.00  0.00    -0.317 N 
ATOM     18  H   UNL     1      -0.004  -3.674  -3.486  0.00  0.00    +0.151 HD
ATOM     19  H   UNL     1       0.316   0.257  -2.844  0.00  0.00    +0.148 HD
ENDBRANCH   1  16
BRANCH   4  20
ATOM     20  C   UNL     1      -5.207   0.184  -2.991  0.00  0.00    +0.036 A 
ATOM     21  C   UNL     1      -6.247   0.208  -3.923  0.00  0.00    +0.015 A 
ATOM     22  C   UNL     1      -7.289   1.099  -3.766  0.00  0.00    +0.033 A 
ATOM     23  C   UNL     1      -7.306   1.967  -2.689  0.00  0.00    +0.128 A 
ATOM     24  C   UNL     1      -6.279   1.949  -1.762  0.00  0.00    +0.053 A 
ATOM     25  C   UNL     1      -5.233   1.059  -1.903  0.00  0.00    +0.054 A 
ATOM     26 CL   UNL     1      -3.949   1.032  -0.734  0.00  0.00    -0.083 Cl
BRANCH  23  27
ATOM     27  N   UNL     1      -8.427   2.920  -2.528  0.00  0.00    +0.056 N 
ATOM     28  O   UNL     1      -9.325   2.938  -3.337  0.00  0.00    -0.126 OA
ATOM     29  O   UNL     1      -8.444   3.680  -1.588  0.00  0.00    -0.126 OA
ENDBRANCH  23  27
ENDBRANCH   4  20
TORSDOF 3
