REMARK  Name = ZINC26780125
REMARK  9 active torsions:
REMARK  status: ('A' for Active; 'I' for Inactive)
REMARK    1  A    between atoms: C_1  and  C_2
REMARK    2  A    between atoms: C_2  and  N_24
REMARK    3  A    between atoms: C_4  and  N_11
REMARK    4  A    between atoms: C_7  and  C_9
REMARK    5  A    between atoms: C_7  and  C_10
REMARK    6  A    between atoms: N_14  and  C_15
REMARK    7  A    between atoms: C_18  and  N_21
REMARK    8  A    between atoms: N_27  and  C_28
REMARK    9  A    between atoms: C_31  and  N_34
REMARK                            x       y       z     vdW  Elec       q    Type
REMARK                         _______ _______ _______ _____ _____    ______ ____
ROOT
ATOM      1  C   UNL     1      -0.343   1.847   0.433  0.00  0.00    +0.031 C 
ATOM      2  C   UNL     1      -0.140   0.334   0.314  0.00  0.00    +0.035 C 
ATOM      3  C   UNL     1       0.494  -0.005  -1.031  0.00  0.00    +0.048 C 
ATOM      4  C   UNL     1       1.963   0.409  -1.058  0.00  0.00    +0.077 C 
ATOM      5  C   UNL     1       2.714  -0.364   0.024  0.00  0.00    +0.029 C 
ATOM      6  C   UNL     1       2.161  -0.037   1.406  0.00  0.00    -0.031 C 
ATOM      7  C   UNL     1       0.655  -0.207   1.488  0.00  0.00    +0.032 C 
ATOM      8  C   UNL     1       2.579   1.379   1.816  0.00  0.00    +0.011 C 
ATOM      9  C   UNL     1       2.806  -1.015   2.413  0.00  0.00    +0.011 C 
ENDROOT
BRANCH   4  10
ATOM     10  N   UNL     1       2.533   0.076  -2.370  0.00  0.00    -0.296 N 
ATOM     11  C   UNL     1       2.401   0.935  -3.400  0.00  0.00    +0.304 C 
ATOM     12  O   UNL     1       1.811   1.986  -3.243  0.00  0.00    -0.253 OA
ATOM     13  N   UNL     1       2.924   0.629  -4.604  0.00  0.00    -0.269 N 
ATOM     14  H   UNL     1       3.003  -0.763  -2.495  0.00  0.00    +0.151 HD
ATOM     15  H   UNL     1       3.452  -0.177  -4.713  0.00  0.00    +0.156 HD
BRANCH  13  16
ATOM     16  C   UNL     1       2.704   1.475  -5.697  0.00  0.00    +0.035 A 
ATOM     17  C   UNL     1       2.536   0.940  -6.968  0.00  0.00    +0.025 A 
ATOM     18  C   UNL     1       2.319   1.777  -8.045  0.00  0.00    +0.034 A 
ATOM     19  C   UNL     1       2.269   3.146  -7.859  0.00  0.00    +0.126 A 
ATOM     20  C   UNL     1       2.437   3.682  -6.595  0.00  0.00    +0.034 A 
ATOM     21  C   UNL     1       2.649   2.850  -5.513  0.00  0.00    +0.025 A 
BRANCH  19  22
ATOM     22  N   UNL     1       2.037   4.040  -9.015  0.00  0.00    +0.056 N 
ATOM     23  O   UNL     1       1.890   3.574 -10.121  0.00  0.00    -0.126 OA
ATOM     24  O   UNL     1       1.993   5.238  -8.854  0.00  0.00    -0.126 OA
ENDBRANCH  19  22
ENDBRANCH  13  16
ENDBRANCH   4  10
BRANCH   2  25
ATOM     25  N   UNL     1      -1.481  -0.292   0.346  0.00  0.00    -0.294 N 
ATOM     26  C   UNL     1      -2.393   0.021  -0.595  0.00  0.00    +0.304 C 
ATOM     27  O   UNL     1      -2.115   0.818  -1.470  0.00  0.00    -0.252 OA
ATOM     28  N   UNL     1      -3.614  -0.549  -0.566  0.00  0.00    -0.269 N 
ATOM     29  H   UNL     1      -1.702  -0.928   1.044  0.00  0.00    +0.151 HD
ATOM     30  H   UNL     1      -3.862  -1.127   0.172  0.00  0.00    +0.156 HD
BRANCH  28  31
ATOM     31  C   UNL     1      -4.524  -0.307  -1.601  0.00  0.00    +0.035 A 
ATOM     32  C   UNL     1      -4.068  -0.122  -2.900  0.00  0.00    +0.025 A 
ATOM     33  C   UNL     1      -4.969   0.117  -3.919  0.00  0.00    +0.034 A 
ATOM     34  C   UNL     1      -6.324   0.171  -3.648  0.00  0.00    +0.126 A 
ATOM     35  C   UNL     1      -6.781  -0.013  -2.356  0.00  0.00    +0.034 A 
ATOM     36  C   UNL     1      -5.886  -0.257  -1.333  0.00  0.00    +0.025 A 
BRANCH  34  37
ATOM     37  N   UNL     1      -7.287   0.426  -4.743  0.00  0.00    +0.056 N 
ATOM     38  O   UNL     1      -6.888   0.587  -5.873  0.00  0.00    -0.126 OA
ATOM     39  O   UNL     1      -8.472   0.474  -4.507  0.00  0.00    -0.126 OA
ENDBRANCH  34  37
ENDBRANCH  28  31
ENDBRANCH   2  25
TORSDOF 6
