REMARK  Name = ZINC62380496
REMARK  3 active torsions:
REMARK  status: ('A' for Active; 'I' for Inactive)
REMARK    1  A    between atoms: C_1  and  S_2
REMARK    2  A    between atoms: S_2  and  C_5
REMARK    3  A    between atoms: C_10  and  N_11
REMARK                            x       y       z     vdW  Elec       q    Type
REMARK                         _______ _______ _______ _____ _____    ______ ____
ROOT
ATOM      1  N   UNL     1      -0.950   0.527  -2.781  0.00  0.00    -0.268 N 
ATOM      2  C   UNL     1      -1.439   0.924  -3.972  0.00  0.00    +0.307 C 
ATOM      3  O   UNL     1      -0.855   0.632  -4.997  0.00  0.00    -0.252 OA
ATOM      4  N   UNL     1      -2.576   1.646  -4.027  0.00  0.00    -0.282 N 
ATOM      5  C   UNL     1      -3.171   2.077  -2.794  0.00  0.00    +0.113 C 
ATOM      6  C   UNL     1      -3.842   3.413  -2.902  0.00  0.00    +0.007 C 
ATOM      7  C   UNL     1      -2.993   4.443  -3.628  0.00  0.00    +0.008 C 
ATOM      8  C   UNL     1      -3.169   4.447  -5.133  0.00  0.00    -0.009 C 
ATOM      9  C   UNL     1      -4.652   4.492  -5.513  0.00  0.00    +0.007 C 
ATOM     10  C   UNL     1      -5.312   3.252  -4.905  0.00  0.00    -0.009 C 
ATOM     11  C   UNL     1      -5.265   3.381  -3.382  0.00  0.00    +0.008 C 
ATOM     12  C   UNL     1      -4.642   1.979  -5.369  0.00  0.00    +0.026 C 
ATOM     13  C   UNL     1      -3.136   1.956  -5.330  0.00  0.00    +0.078 C 
ATOM     14  C   UNL     1      -2.520   3.258  -5.828  0.00  0.00    +0.026 C 
ATOM     15  H   UNL     1      -1.450   0.702  -1.968  0.00  0.00    +0.156 HD
ENDROOT
BRANCH   1  21
ATOM     16  C   UNL     1       1.075  -0.021  -1.584  0.00  0.00    +0.109 A 
ATOM     17  C   UNL     1       2.286  -0.684  -1.521  0.00  0.00    +0.029 A 
ATOM     18  C   UNL     1       2.708  -1.459  -2.586  0.00  0.00    +0.002 A 
ATOM     19  C   UNL     1       1.920  -1.572  -3.717  0.00  0.00    +0.002 A 
ATOM     20  C   UNL     1       0.709  -0.912  -3.787  0.00  0.00    +0.025 A 
ATOM     21  C   UNL     1       0.280  -0.139  -2.716  0.00  0.00    +0.060 A 
BRANCH  16  23
ATOM     22  C   UNL     1       0.494   2.660  -0.872  0.00  0.00    +0.200 C 
ATOM     23  S   UNL     1       0.538   0.965  -0.227  0.00  0.00    -0.004 S 
ATOM     24  O   UNL     1       1.568   0.838   0.744  0.00  0.00    -0.170 OA
ATOM     25  O   UNL     1      -0.780   0.513   0.051  0.00  0.00    -0.170 OA
ENDBRANCH  16  23
ENDBRANCH   1  21
TORSDOF 2
