REMARK  Name = ZINC53125919
REMARK  8 active torsions:
REMARK  status: ('A' for Active; 'I' for Inactive)
REMARK    1  A    between atoms: C_1  and  C_2
REMARK    2  A    between atoms: C_7  and  C_9
REMARK    3  A    between atoms: C_7  and  N_11
REMARK    4  A    between atoms: C_9  and  O_10
REMARK    5  A    between atoms: N_11  and  C_12
REMARK    6  A    between atoms: C_12  and  C_13
REMARK    7  A    between atoms: C_13  and  C_15
REMARK    8  A    between atoms: C_13  and  O_23
REMARK                            x       y       z     vdW  Elec       q    Type
REMARK                         _______ _______ _______ _____ _____    ______ ____
ROOT
ATOM      1  N   UNL     1       1.452  -2.633   2.332  0.00  0.00    +0.386 N 
ATOM      2  H   UNL     1       1.560  -3.625   2.183  0.00  0.00    -0.085 HD
ATOM      3  H   UNL     1       2.360  -2.208   2.438  0.00  0.00    -0.085 HD
ENDROOT
BRANCH   1   9
ATOM      4  C   UNL     1      -0.075   1.621   0.321  0.00  0.00    +0.007 C 
ATOM      5  C   UNL     1      -0.014   0.102   0.149  0.00  0.00    -0.015 C 
ATOM      6  C   UNL     1       0.751  -0.236  -1.132  0.00  0.00    +0.003 C 
ATOM      7  C   UNL     1       0.812  -1.756  -1.303  0.00  0.00    -0.001 C 
ATOM      8  C   UNL     1       1.529  -2.376  -0.102  0.00  0.00    -0.010 C 
ATOM      9  C   UNL     1       0.763  -2.038   1.179  0.00  0.00    -0.044 C 
ATOM     10  C   UNL     1       0.703  -0.518   1.350  0.00  0.00    -0.007 C 
BRANCH   9  11
ATOM     11  C   UNL     1      -0.657  -2.598   1.087  0.00  0.00    +0.143 C 
BRANCH  11  12
ATOM     12  O   UNL     1      -0.605  -4.026   1.051  0.00  0.00    -0.396 OA
ATOM     13  H   UNL     1      -1.472  -4.449   0.993  0.00  0.00    +0.209 HD
ENDBRANCH  11  12
ENDBRANCH   9  11
ENDBRANCH   1   9
BRANCH   1  14
ATOM     14  C   UNL     1       0.658  -2.404   3.547  0.00  0.00    -0.045 C 
BRANCH  14  15
ATOM     15  C   UNL     1       1.431  -2.917   4.764  0.00  0.00    +0.129 C 
BRANCH  15  16
ATOM     16  C   UNL     1       0.617  -2.682   6.011  0.00  0.00    -0.001 A 
ATOM     17  C   UNL     1      -0.183  -3.690   6.514  0.00  0.00    +0.027 A 
ATOM     18  C   UNL     1      -0.930  -3.475   7.659  0.00  0.00    +0.041 A 
ATOM     19  C   UNL     1      -0.875  -2.249   8.299  0.00  0.00    +0.021 A 
ATOM     20  C   UNL     1      -0.075  -1.241   7.796  0.00  0.00    +0.022 A 
ATOM     21  C   UNL     1       0.676  -1.459   6.655  0.00  0.00    +0.047 A 
ATOM     22 CL   UNL     1       1.687  -0.195   6.027  0.00  0.00    -0.083 Cl
ATOM     23 CL   UNL     1      -1.935  -4.741   8.290  0.00  0.00    -0.084 Cl
ENDBRANCH  15  16
BRANCH  15  24
ATOM     24  O   UNL     1       1.681  -4.316   4.615  0.00  0.00    -0.389 OA
ATOM     25  H   UNL     1       0.880  -4.853   4.539  0.00  0.00    +0.210 HD
ENDBRANCH  15  24
ENDBRANCH  14  15
ENDBRANCH   1  14
TORSDOF 7
