REMARK  Name = ZINC36267168
REMARK  4 active torsions:
REMARK  status: ('A' for Active; 'I' for Inactive)
REMARK    1  A    between atoms: C_1  and  C_2
REMARK    2  A    between atoms: C_3  and  S_9
REMARK    3  A    between atoms: S_9  and  N_12
REMARK    4  A    between atoms: C_18  and  N_24
REMARK                            x       y       z     vdW  Elec       q    Type
REMARK                         _______ _______ _______ _____ _____    ______ ____
ROOT
ATOM      1  N   UNL     1      -3.443  -0.496  -1.469  0.00  0.00    -0.176 NA
ATOM      2  C   UNL     1      -3.413   0.392  -2.650  0.00  0.00    +0.113 C 
ATOM      3  C   UNL     1      -4.597  -0.087  -3.509  0.00  0.00    +0.009 C 
ATOM      4  C   UNL     1      -4.496   0.350  -4.947  0.00  0.00    +0.003 C 
ATOM      5  C   UNL     1      -3.300  -0.290  -5.652  0.00  0.00    -0.016 C 
ATOM      6  C   UNL     1      -3.464  -1.812  -5.579  0.00  0.00    -0.075 C 
ATOM      7  C   UNL     1      -3.403  -2.234  -4.113  0.00  0.00    -0.011 C 
ATOM      8  C   UNL     1      -4.542  -1.615  -3.328  0.00  0.00    +0.008 C 
ATOM      9  C   UNL     1      -4.136  -1.742  -1.834  0.00  0.00    +0.113 C 
ENDROOT
BRANCH   6  10
ATOM     10  N   UNL     1      -2.380  -2.463  -6.326  0.00  0.00    +0.380 N 
ATOM     11  H   UNL     1      -1.491  -2.202  -5.926  0.00  0.00    -0.090 HD
ATOM     12  H   UNL     1      -2.490  -3.465  -6.276  0.00  0.00    -0.090 HD
ATOM     13  H   UNL     1      -2.413  -2.169  -7.291  0.00  0.00    -0.090 HD
ENDBRANCH   6  10
BRANCH   1  14
ATOM     14  S   UNL     1      -2.797  -0.150   0.016  0.00  0.00    +0.069 S 
ATOM     15  O   UNL     1      -3.492  -0.955   0.959  0.00  0.00    -0.152 OA
ATOM     16  O   UNL     1      -2.745   1.266   0.116  0.00  0.00    -0.152 OA
BRANCH  14  19
ATOM     17  C   UNL     1      -0.018   1.503   0.010  0.00  0.00    +0.066 C 
ATOM     18  C   UNL     1       0.002  -0.004   0.002  0.00  0.00    +0.050 A 
ATOM     19  C   UNL     1      -1.129  -0.716   0.004  0.00  0.00    +0.166 A 
ATOM     20  S   UNL     1      -0.508  -2.388  -0.008  0.00  0.00    -0.007 S 
ATOM     21  C   UNL     1       1.138  -2.048  -0.015  0.00  0.00    +0.290 A 
ATOM     22  O   UNL     1       2.072  -2.830  -0.024  0.00  0.00    -0.260 OA
ATOM     23  N   UNL     1       1.176  -0.699  -0.013  0.00  0.00    -0.318 N 
ATOM     24  H   UNL     1       2.025  -0.230  -0.020  0.00  0.00    +0.169 HD
ENDBRANCH  14  19
ENDBRANCH   1  14
TORSDOF 3
