REMARK  Name = ZINC20895481
REMARK  9 active torsions:
REMARK  status: ('A' for Active; 'I' for Inactive)
REMARK    1  A    between atoms: C_1  and  C_2
REMARK    2  A    between atoms: C_9  and  N_15
REMARK    3  A    between atoms: C_10  and  C_11
REMARK    4  A    between atoms: C_11  and  O_13
REMARK    5  A    between atoms: O_13  and  C_14
REMARK    6  A    between atoms: C_16  and  C_18
REMARK    7  A    between atoms: C_18  and  N_19
REMARK    8  A    between atoms: C_22  and  C_26
REMARK    9  A    between atoms: C_22  and  C_27
REMARK                            x       y       z     vdW  Elec       q    Type
REMARK                         _______ _______ _______ _____ _____    ______ ____
ROOT
ATOM      1  N   UNL     1      -0.011   0.966   0.007  0.00  0.00    -0.278 N 
ATOM      2  C   UNL     1       1.147   1.655   0.000  0.00  0.00    +0.236 C 
ATOM      3  O   UNL     1       1.130   2.868   0.007  0.00  0.00    -0.274 OA
ATOM      4  H   UNL     1       0.004  -0.134   0.006  0.00  0.00    +0.155 HD
ENDROOT
BRANCH   1  12
ATOM      5  C   UNL     1      -6.614   5.158   0.157  0.00  0.00    +0.008 C 
ATOM      6  C   UNL     1      -5.595   4.050   0.430  0.00  0.00    -0.009 C 
ATOM      7  C   UNL     1      -5.936   2.817  -0.412  0.00  0.00    +0.008 C 
ATOM      8  C   UNL     1      -5.080   1.629   0.035  0.00  0.00    +0.037 C 
ATOM      9  C   UNL     1      -3.616   2.051   0.031  0.00  0.00    -0.021 A 
ATOM     10  C   UNL     1      -3.268   3.356   0.036  0.00  0.00    -0.004 A 
ATOM     11  S   UNL     1      -1.498   3.353   0.027  0.00  0.00    -0.077 S 
ATOM     12  C   UNL     1      -1.221   1.643   0.017  0.00  0.00    +0.086 A 
ATOM     13  C   UNL     1      -2.505   1.114   0.014  0.00  0.00    +0.091 A 
ATOM     14  C   UNL     1      -4.189   4.537   0.047  0.00  0.00    +0.046 C 
BRANCH  13  15
ATOM     15  C   UNL     1      -2.732  -0.332   0.000  0.00  0.00    +0.342 C 
ATOM     16  O   UNL     1      -2.824  -0.944   1.048  0.00  0.00    -0.245 OA
BRANCH  15  17
ATOM     17  O   UNL     1      -2.838  -0.987  -1.175  0.00  0.00    -0.464 OA
ATOM     18  C   UNL     1      -3.062  -2.420  -1.113  0.00  0.00    +0.280 C 
ENDBRANCH  15  17
ENDBRANCH  13  15
ENDBRANCH   1  12
BRANCH   2  19
ATOM     19  C   UNL     1       2.462   0.920  -0.017  0.00  0.00    +0.214 C 
BRANCH  19  20
ATOM     20  N   UNL     1       3.562   1.887  -0.022  0.00  0.00    -0.215 N 
ATOM     21  C   UNL     1       4.142   2.381   1.090  0.00  0.00    +0.251 C 
ATOM     22  O   UNL     1       3.861   2.118   2.240  0.00  0.00    -0.272 OA
ATOM     23  C   UNL     1       5.218   3.332   0.604  0.00  0.00    +0.135 C 
ATOM     24  N   UNL     1       5.109   3.256  -0.863  0.00  0.00    -0.281 N 
ATOM     25  C   UNL     1       4.120   2.385  -1.131  0.00  0.00    +0.310 C 
ATOM     26  O   UNL     1       3.770   2.086  -2.256  0.00  0.00    -0.252 OA
ATOM     27  C   UNL     1       6.599   2.863   1.067  0.00  0.00    +0.047 C 
ATOM     28  H   UNL     1       5.779   3.857  -1.495  0.00  0.00    +0.152 HD
BRANCH  23  29
ATOM     29  C   UNL     1       4.945   4.732   1.088  0.00  0.00    -0.016 A 
ATOM     30  C   UNL     1       4.277   4.934   2.282  0.00  0.00    +0.006 A 
ATOM     31  C   UNL     1       4.032   6.219   2.728  0.00  0.00    +0.000 A 
ATOM     32  C   UNL     1       4.444   7.303   1.975  0.00  0.00    +0.000 A 
ATOM     33  C   UNL     1       5.107   7.101   0.778  0.00  0.00    +0.000 A 
ATOM     34  C   UNL     1       5.357   5.816   0.335  0.00  0.00    +0.006 A 
ENDBRANCH  23  29
ENDBRANCH  19  20
ENDBRANCH   2  19
TORSDOF 6
