REMARK  Name = ZINC67064357
REMARK  5 active torsions:
REMARK  status: ('A' for Active; 'I' for Inactive)
REMARK    1  A    between atoms: C_1  and  C_2
REMARK    2  A    between atoms: C_2  and  C_4
REMARK    3  A    between atoms: C_2  and  N_13
REMARK    4  A    between atoms: C_8  and  N_10
REMARK    5  A    between atoms: C_20  and  C_23
REMARK                            x       y       z     vdW  Elec       q    Type
REMARK                         _______ _______ _______ _____ _____    ______ ____
ROOT
ATOM      1  N   UNL     1      -1.466  -0.304  -2.311  0.00  0.00    -0.293 N 
ATOM      2  C   UNL     1      -2.051  -0.643  -1.145  0.00  0.00    +0.303 C 
ATOM      3  O   UNL     1      -1.409  -0.615  -0.112  0.00  0.00    -0.253 OA
ATOM      4  N   UNL     1      -3.346  -1.013  -1.123  0.00  0.00    -0.281 N 
ATOM      5  C   UNL     1      -4.040  -1.272   0.149  0.00  0.00    +0.137 C 
ATOM      6  C   UNL     1      -4.736  -2.634   0.052  0.00  0.00    +0.179 C 
ATOM      7  O   UNL     1      -5.542  -2.668  -1.128  0.00  0.00    -0.369 OA
ATOM      8  C   UNL     1      -4.803  -2.538  -2.345  0.00  0.00    +0.166 C 
ATOM      9  C   UNL     1      -4.112  -1.165  -2.371  0.00  0.00    +0.145 C 
ATOM     10  H   UNL     1      -1.956  -0.395  -3.143  0.00  0.00    +0.151 HD
ENDROOT
BRANCH   8  11
ATOM     11  C   UNL     1      -5.742  -2.650  -3.518  0.00  0.00    -0.015 A 
ATOM     12  C   UNL     1      -6.985  -2.047  -3.468  0.00  0.00    +0.009 A 
ATOM     13  C   UNL     1      -7.848  -2.148  -4.543  0.00  0.00    +0.041 A 
ATOM     14  C   UNL     1      -7.468  -2.853  -5.671  0.00  0.00    +0.158 A 
ATOM     15  C   UNL     1      -6.221  -3.457  -5.723  0.00  0.00    +0.159 A 
ATOM     16  C   UNL     1      -5.357  -3.349  -4.646  0.00  0.00    +0.047 A 
ATOM     17  F   UNL     1      -5.848  -4.146  -6.823  0.00  0.00    -0.202 F 
ATOM     18  F   UNL     1      -8.311  -2.953  -6.722  0.00  0.00    -0.202 F 
ENDBRANCH   8  11
BRANCH   1  20
ATOM     19  C   UNL     1       0.886  -0.974  -2.342  0.00  0.00    +0.033 C 
ATOM     20  C   UNL     1      -0.091   0.203  -2.321  0.00  0.00    +0.102 C 
BRANCH  20  21
ATOM     21  C   UNL     1       0.121   1.054  -3.546  0.00  0.00    -0.025 A 
ATOM     22  C   UNL     1      -0.427   0.673  -4.756  0.00  0.00    +0.005 A 
ATOM     23  C   UNL     1      -0.232   1.454  -5.880  0.00  0.00    +0.003 A 
ATOM     24  C   UNL     1       0.511   2.617  -5.793  0.00  0.00    +0.033 A 
ATOM     25  C   UNL     1       1.058   2.999  -4.582  0.00  0.00    +0.127 A 
ATOM     26  C   UNL     1       0.859   2.220  -3.458  0.00  0.00    +0.038 A 
BRANCH  25  27
ATOM     27  N   UNL     1       1.854   4.243  -4.489  0.00  0.00    +0.056 N 
ATOM     28  O   UNL     1       2.025   4.926  -5.472  0.00  0.00    -0.126 OA
ATOM     29  O   UNL     1       2.332   4.577  -3.431  0.00  0.00    -0.126 OA
ENDBRANCH  25  27
ENDBRANCH  20  21
ENDBRANCH   1  20
TORSDOF 4
