REMARK  Name = ZINC09882546
REMARK  8 active torsions:
REMARK  status: ('A' for Active; 'I' for Inactive)
REMARK    1  A    between atoms: C_1  and  C_2
REMARK    2  A    between atoms: C_2  and  C_3
REMARK    3  A    between atoms: C_3  and  C_33
REMARK    4  A    between atoms: N_6  and  C_10
REMARK    5  A    between atoms: C_10  and  C_11
REMARK    6  A    between atoms: C_18  and  C_19
REMARK    7  A    between atoms: C_18  and  C_26
REMARK    8  A    between atoms: C_18  and  N_62
REMARK                            x       y       z     vdW  Elec       q    Type
REMARK                         _______ _______ _______ _____ _____    ______ ____
ROOT
ATOM      1  C   UNL     1      -1.444   4.850  -1.299  0.00  0.00    +0.233 C 
ATOM      2  O   UNL     1      -0.998   4.244  -2.249  0.00  0.00    -0.274 OA
ATOM      3  N   UNL     1      -2.473   5.705  -1.466  0.00  0.00    -0.304 N 
ATOM      4  C   UNL     1      -3.033   6.446  -0.326  0.00  0.00    +0.089 C 
ATOM      5  C   UNL     1      -3.086   7.936  -0.698  0.00  0.00    -0.058 C 
ATOM      6  C   UNL     1      -3.125   7.423  -3.068  0.00  0.00    -0.058 C 
ATOM      7  C   UNL     1      -3.070   5.917  -2.794  0.00  0.00    +0.089 C 
ATOM      8  N   UNL     1      -3.847   8.082  -1.958  0.00  0.00    +0.389 N 
ATOM      9  H   UNL     1      -4.764   7.634  -1.846  0.00  0.00    -0.080 HD
ENDROOT
BRANCH   1  10
ATOM     10  C   UNL     1      -0.849   4.649   0.071  0.00  0.00    +0.213 C 
BRANCH  10  14
ATOM     11  C   UNL     1       2.296   2.698  -0.244  0.00  0.00    +0.110 C 
ATOM     12  C   UNL     1       1.533   4.007  -0.245  0.00  0.00    +0.247 C 
ATOM     13  O   UNL     1       1.985   5.119  -0.419  0.00  0.00    -0.273 OA
ATOM     14  N   UNL     1       0.247   3.679  -0.011  0.00  0.00    -0.215 N 
ATOM     15  C   UNL     1       0.093   2.357   0.130  0.00  0.00    +0.310 C 
ATOM     16  O   UNL     1      -0.977   1.821   0.344  0.00  0.00    -0.252 OA
ATOM     17  N   UNL     1       1.254   1.689   0.014  0.00  0.00    -0.285 N 
ATOM     18  C   UNL     1       3.344   2.687   0.871  0.00  0.00    +0.041 C 
ATOM     19  H   UNL     1       1.381   0.730   0.083  0.00  0.00    +0.151 HD
BRANCH  11  21
ATOM     20  C   UNL     1       3.520   1.033  -1.649  0.00  0.00    +0.006 C 
ATOM     21  C   UNL     1       2.956   2.455  -1.603  0.00  0.00    +0.031 C 
ENDBRANCH  11  21
ENDBRANCH  10  14
ENDBRANCH   1  10
BRANCH   8  22
ATOM     22  C   UNL     1      -4.045   9.513  -2.264  0.00  0.00    -0.007 C 
BRANCH  22  23
ATOM     23  C   UNL     1      -4.944   9.633  -3.468  0.00  0.00    -0.057 A 
ATOM     24  C   UNL     1      -6.059   8.824  -3.581  0.00  0.00    +0.005 A 
ATOM     25  C   UNL     1      -6.886   8.936  -4.683  0.00  0.00    +0.038 A 
ATOM     26  C   UNL     1      -6.592   9.852  -5.678  0.00  0.00    +0.123 A 
ATOM     27  C   UNL     1      -5.472  10.658  -5.567  0.00  0.00    +0.038 A 
ATOM     28  C   UNL     1      -4.649  10.548  -4.462  0.00  0.00    +0.005 A 
ATOM     29  F   UNL     1      -7.397   9.959  -6.758  0.00  0.00    -0.205 F 
ENDBRANCH  22  23
BRANCH  22  30
ATOM     30  C   UNL     1      -4.699  10.182  -1.082  0.00  0.00    -0.057 A 
ATOM     31  C   UNL     1      -5.760   9.570  -0.442  0.00  0.00    +0.005 A 
ATOM     32  C   UNL     1      -6.356  10.179   0.646  0.00  0.00    +0.038 A 
ATOM     33  C   UNL     1      -5.897  11.409   1.087  0.00  0.00    +0.123 A 
ATOM     34  C   UNL     1      -4.838  12.024   0.442  0.00  0.00    +0.038 A 
ATOM     35  C   UNL     1      -4.239  11.409  -0.642  0.00  0.00    +0.005 A 
ATOM     36  F   UNL     1      -6.483  12.008   2.147  0.00  0.00    -0.205 F 
ENDBRANCH  22  30
ENDBRANCH   8  22
TORSDOF 6
