REMARK  Name = ZINC40373014
REMARK  9 active torsions:
REMARK  status: ('A' for Active; 'I' for Inactive)
REMARK    1  A    between atoms: C_1  and  C_2
REMARK    2  A    between atoms: C_2  and  C_3
REMARK    3  A    between atoms: C_3  and  C_4
REMARK    4  A    between atoms: C_3  and  C_5
REMARK    5  A    between atoms: C_3  and  N_9
REMARK    6  A    between atoms: N_6  and  O_7
REMARK    7  A    between atoms: C_10  and  C_12
REMARK    8  A    between atoms: C_15  and  C_19
REMARK    9  A    between atoms: C_17  and  C_18
REMARK                            x       y       z     vdW  Elec       q    Type
REMARK                         _______ _______ _______ _____ _____    ______ ____
ROOT
ATOM      1  N   UNL     1       2.190  -0.986  -1.487  0.00  0.00    -0.299 N 
ATOM      2  C   UNL     1       2.974  -1.332  -0.448  0.00  0.00    +0.245 C 
ATOM      3  O   UNL     1       2.510  -1.969   0.478  0.00  0.00    -0.270 OA
ATOM      4  H   UNL     1       2.561  -0.478  -2.226  0.00  0.00    +0.150 HD
ENDROOT
BRANCH   2   5
ATOM      5  C   UNL     1       4.399  -0.938  -0.432  0.00  0.00    +0.040 A 
ATOM      6  C   UNL     1       4.965  -0.312  -1.545  0.00  0.00    +0.013 A 
ATOM      7  C   UNL     1       6.295   0.053  -1.524  0.00  0.00    +0.004 A 
ATOM      8  C   UNL     1       7.068  -0.198  -0.404  0.00  0.00    -0.050 A 
ATOM      9  C   UNL     1       6.513  -0.818   0.702  0.00  0.00    +0.007 A 
ATOM     10  C   UNL     1       5.183  -1.184   0.696  0.00  0.00    -0.038 A 
ATOM     11  C   UNL     1       4.578  -1.853   1.904  0.00  0.00    +0.044 C 
ATOM     12  C   UNL     1       8.520   0.203  -0.389  0.00  0.00    +0.044 C 
ENDBRANCH   2   5
BRANCH   1  13
ATOM     13  C   UNL     1       0.778  -1.377  -1.502  0.00  0.00    +0.090 C 
ATOM     14  C   UNL     1       0.671  -2.902  -1.450  0.00  0.00    +0.040 C 
BRANCH  13  15
ATOM     15  C   UNL     1       0.130  -0.870  -2.765  0.00  0.00    +0.155 C 
ATOM     16  N   UNL     1      -0.356  -1.706  -3.622  0.00  0.00    -0.075 NA
ATOM     17  N   UNL     1       0.056   0.484  -3.006  0.00  0.00    -0.342 N 
ATOM     18  H   UNL     1       0.355   1.113  -2.331  0.00  0.00    +0.144 HD
ATOM     19  H   UNL     1      -0.295   0.808  -3.850  0.00  0.00    +0.144 HD
BRANCH  16  20
ATOM     20  O   UNL     1      -0.965  -1.230  -4.808  0.00  0.00    -0.408 OA
ATOM     21  H   UNL     1      -1.299  -1.929  -5.387  0.00  0.00    +0.328 HD
ENDBRANCH  16  20
ENDBRANCH  13  15
BRANCH  13  23
ATOM     22  C   UNL     1      -1.425  -1.093  -0.359  0.00  0.00    +0.006 C 
ATOM     23  C   UNL     1       0.069  -0.774  -0.288  0.00  0.00    +0.030 C 
ENDBRANCH  13  23
ENDBRANCH   1  13
TORSDOF 5
