REMARK  Name = ZINC49206060
REMARK  5 active torsions:
REMARK  status: ('A' for Active; 'I' for Inactive)
REMARK    1  A    between atoms: C_1  and  C_2
REMARK    2  A    between atoms: C_4  and  C_19
REMARK    3  A    between atoms: C_6  and  N_8
REMARK    4  A    between atoms: C_9  and  N_11
REMARK    5  A    between atoms: C_16  and  C_18
REMARK                            x       y       z     vdW  Elec       q    Type
REMARK                         _______ _______ _______ _____ _____    ______ ____
ROOT
ATOM      1  N   UNL     1       0.051  -2.797   2.392  0.00  0.00    -0.268 N 
ATOM      2  C   UNL     1       0.562  -4.044   2.435  0.00  0.00    +0.330 C 
ATOM      3  O   UNL     1       1.092  -4.520   1.446  0.00  0.00    -0.250 OA
ATOM      4  H   UNL     1      -0.301  -2.389   3.199  0.00  0.00    +0.156 HD
ENDROOT
BRANCH   1  10
ATOM      5  C   UNL     1       0.331   1.480  -0.015  0.00  0.00    +0.044 C 
ATOM      6  C   UNL     1       0.163  -0.018  -0.012  0.00  0.00    -0.048 A 
ATOM      7  C   UNL     1      -0.012  -0.696  -1.204  0.00  0.00    +0.006 A 
ATOM      8  C   UNL     1      -0.167  -2.070  -1.205  0.00  0.00    -0.048 A 
ATOM      9  C   UNL     1      -0.146  -2.769  -0.015  0.00  0.00    +0.026 A 
ATOM     10  C   UNL     1       0.030  -2.091   1.185  0.00  0.00    +0.035 A 
ATOM     11  C   UNL     1       0.191  -0.712   1.182  0.00  0.00    +0.026 A 
ATOM     12  C   UNL     1      -0.358  -2.805  -2.507  0.00  0.00    +0.044 C 
ENDBRANCH   1  10
BRANCH   2  13
ATOM     13  N   UNL     1       0.486  -4.758   3.562  0.00  0.00    -0.139 NA
ATOM     14  C   UNL     1       0.991  -5.989   3.604  0.00  0.00    +0.165 A 
ATOM     15  N   UNL     1       1.619  -6.681   2.614  0.00  0.00    -0.342 N 
ATOM     16  H   UNL     1       1.748  -6.282   1.739  0.00  0.00    +0.167 HD
ATOM     17  C   UNL     1       2.062  -7.941   2.874  0.00  0.00    +0.095 A 
ATOM     18  C   UNL     1       1.849  -8.425   4.102  0.00  0.00    +0.006 A 
ATOM     19  S   UNL     1       1.013  -7.065   4.896  0.00  0.00    -0.058 S 
ATOM     20  C   UNL     1       2.223  -9.770   4.670  0.00  0.00    +0.053 C 
ENDBRANCH   2  13
TORSDOF 2
