REMARK  Name = ZINC22124836
REMARK  5 active torsions:
REMARK  status: ('A' for Active; 'I' for Inactive)
REMARK    1  A    between atoms: C_1  and  C_2
REMARK    2  A    between atoms: C_4  and  C_16
REMARK    3  A    between atoms: N_11  and  N_12
REMARK    4  A    between atoms: N_12  and  C_13
REMARK    5  A    between atoms: C_13  and  N_15
REMARK                            x       y       z     vdW  Elec       q    Type
REMARK                         _______ _______ _______ _____ _____    ______ ____
ROOT
ATOM      1  C   UNL     1      -6.739   4.837   0.057  0.00  0.00    +0.044 C 
ATOM      2  C   UNL     1      -5.616   3.832   0.047  0.00  0.00    -0.049 A 
ATOM      3  C   UNL     1      -5.893   2.473   0.041  0.00  0.00    +0.009 A 
ATOM      4  C   UNL     1      -4.890   1.539   0.032  0.00  0.00    -0.024 A 
ATOM      5  C   UNL     1      -3.533   1.935   0.028  0.00  0.00    +0.083 A 
ATOM      6  C   UNL     1      -3.289   3.327   0.034  0.00  0.00    +0.041 A 
ATOM      7  C   UNL     1      -4.300   4.256   0.044  0.00  0.00    +0.020 A 
ATOM      8  S   UNL     1      -1.514   3.402   0.027  0.00  0.00    -0.051 S 
ATOM      9  C   UNL     1      -1.215   1.639   0.017  0.00  0.00    +0.176 A 
ATOM     10  N   UNL     1      -2.434   1.149   0.014  0.00  0.00    -0.223 NA
ATOM     11  N   UNL     1      -0.011   0.966   0.007  0.00  0.00    -0.243 N 
ATOM     12  C   UNL     1      -5.238   0.072   0.026  0.00  0.00    +0.046 C 
ATOM     13  H   UNL     1       0.004  -0.134   0.006  0.00  0.00    +0.172 HD
ENDROOT
BRANCH  11  14
ATOM     14  N   UNL     1       1.193   1.683  -0.000  0.00  0.00    -0.247 N 
ATOM     15  H   UNL     1       1.178   2.783   0.006  0.00  0.00    +0.172 HD
BRANCH  14  16
ATOM     16  C   UNL     1       2.369   1.025  -0.015  0.00  0.00    +0.144 C 
ATOM     17  S   UNL     1       3.840   1.901  -0.024  0.00  0.00    -0.018 S 
BRANCH  16  18
ATOM     18  N   UNL     1       2.387  -0.323  -0.022  0.00  0.00    -0.340 N 
ATOM     19  H   UNL     1       3.347  -0.860  -0.035  0.00  0.00    +0.144 HD
ATOM     20  H   UNL     1       1.442  -0.886  -0.017  0.00  0.00    +0.144 HD
ENDBRANCH  16  18
ENDBRANCH  14  16
ENDBRANCH  11  14
TORSDOF 3
