REMARK  Name = ZINC33374338
REMARK  5 active torsions:
REMARK  status: ('A' for Active; 'I' for Inactive)
REMARK    1  A    between atoms: C_1  and  C_2
REMARK    2  A    between atoms: C_1  and  O_8
REMARK    3  A    between atoms: O_8  and  C_9
REMARK    4  A    between atoms: C_9  and  C_11
REMARK    5  A    between atoms: C_13  and  N_19
REMARK                            x       y       z     vdW  Elec       q    Type
REMARK                         _______ _______ _______ _____ _____    ______ ____
ROOT
ATOM      1  C   UNL     1      -4.920   0.946   0.030  0.00  0.00    +0.360 C 
ATOM      2  O   UNL     1      -4.936  -0.269   0.023  0.00  0.00    -0.243 OA
ENDROOT
BRANCH   1   3
ATOM      3  C   UNL     1      -3.629   1.668   0.029  0.00  0.00    +0.169 A 
ATOM      4  C   UNL     1      -2.436   0.949   0.019  0.00  0.00    +0.095 A 
ATOM      5  C   UNL     1      -1.227   1.646   0.017  0.00  0.00    +0.067 A 
ATOM      6  C   UNL     1      -1.266   3.039   0.030  0.00  0.00    +0.100 A 
ATOM      7  C   UNL     1      -2.494   3.683   0.035  0.00  0.00    +0.150 A 
ATOM      8  N   UNL     1      -3.618   2.998   0.036  0.00  0.00    -0.226 NA
ATOM      9 CL   UNL     1      -2.550   5.418   0.045  0.00  0.00    -0.060 Cl
ATOM     10 CL   UNL     1       0.206   3.958   0.035  0.00  0.00    -0.078 Cl
ATOM     11 CL   UNL     1      -2.453  -0.786   0.009  0.00  0.00    -0.079 Cl
BRANCH   5  12
ATOM     12  N   UNL     1      -0.011   0.966   0.007  0.00  0.00    -0.356 N 
ATOM     13  H   UNL     1       0.934   1.529   0.006  0.00  0.00    +0.142 HD
ATOM     14  H   UNL     1       0.004  -0.134   0.001  0.00  0.00    +0.142 HD
ENDBRANCH   5  12
ENDBRANCH   1   3
BRANCH   1  15
ATOM     15  O   UNL     1      -6.077   1.635   0.040  0.00  0.00    -0.451 OA
BRANCH  15  16
ATOM     16  C   UNL     1      -7.305   0.860   0.041  0.00  0.00    +0.328 C 
BRANCH  16  17
ATOM     17  C   UNL     1      -8.488   1.794   0.053  0.00  0.00    +0.258 C 
ATOM     18  O   UNL     1      -8.313   2.994   0.059  0.00  0.00    -0.272 OA
ATOM     19  N   UNL     1      -9.740   1.296   0.056  0.00  0.00    -0.238 N 
ATOM     20  C   UNL     1     -10.798   2.131   0.066  0.00  0.00    +0.303 C 
ATOM     21  O   UNL     1     -10.622   3.333   0.072  0.00  0.00    -0.253 OA
ATOM     22  N   UNL     1     -12.050   1.632   0.069  0.00  0.00    -0.313 N 
ATOM     23  H   UNL     1      -9.899   0.207   0.050  0.00  0.00    +0.159 HD
ATOM     24  H   UNL     1     -12.913   2.314   0.077  0.00  0.00    +0.146 HD
ATOM     25  H   UNL     1     -12.209   0.544   0.063  0.00  0.00    +0.146 HD
ENDBRANCH  16  17
ENDBRANCH  15  16
ENDBRANCH   1  15
TORSDOF 5
