REMARK  Name = ZINC63948104
REMARK  7 active torsions:
REMARK  status: ('A' for Active; 'I' for Inactive)
REMARK    1  A    between atoms: C_1  and  C_2
REMARK    2  A    between atoms: C_8  and  C_11
REMARK    3  A    between atoms: C_11  and  C_12
REMARK    4  A    between atoms: C_12  and  N_13
REMARK    5  A    between atoms: C_15  and  C_20
REMARK    6  A    between atoms: N_22  and  C_23
REMARK    7  A    between atoms: C_26  and  C_29
REMARK                            x       y       z     vdW  Elec       q    Type
REMARK                         _______ _______ _______ _____ _____    ______ ____
ROOT
ATOM      1  N   UNL     1      -1.366  -2.597   5.613  0.00  0.00    -0.300 N 
ATOM      2  C   UNL     1      -1.247  -3.642   6.637  0.00  0.00    +0.121 C 
ATOM      3  C   UNL     1      -1.723  -2.986   7.952  0.00  0.00    +0.101 C 
ATOM      4  C   UNL     1      -1.444  -1.490   7.678  0.00  0.00    +0.110 C 
ATOM      5  C   UNL     1      -1.467  -1.377   6.169  0.00  0.00    +0.216 C 
ATOM      6  O   UNL     1      -1.565  -0.338   5.552  0.00  0.00    -0.276 OA
ENDROOT
BRANCH   3   7
ATOM      7  C   UNL     1      -0.916  -3.481   9.124  0.00  0.00    +0.222 C 
ATOM      8  O   UNL     1      -0.028  -4.288   8.952  0.00  0.00    -0.275 OA
ATOM      9  N   UNL     1      -1.180  -3.025  10.365  0.00  0.00    -0.285 N 
ATOM     10  H   UNL     1      -1.844  -2.329  10.495  0.00  0.00    +0.155 HD
BRANCH   9  11
ATOM     11  C   UNL     1      -0.498  -3.552  11.461  0.00  0.00    +0.033 A 
ATOM     12  C   UNL     1       0.836  -3.926  11.335  0.00  0.00    +0.024 A 
ATOM     13  C   UNL     1       1.512  -4.446  12.416  0.00  0.00    +0.015 A 
ATOM     14  C   UNL     1       0.856  -4.599  13.640  0.00  0.00    +0.037 A 
ATOM     15  C   UNL     1      -0.484  -4.222  13.764  0.00  0.00    +0.015 A 
ATOM     16  C   UNL     1      -1.153  -3.697  12.681  0.00  0.00    +0.024 A 
BRANCH  14  17
ATOM     17  C   UNL     1       1.577  -5.157  14.801  0.00  0.00    +0.242 C 
ATOM     18  O   UNL     1       2.743  -5.485  14.692  0.00  0.00    -0.270 OA
ATOM     19  N   UNL     1       0.943  -5.303  15.981  0.00  0.00    -0.325 N 
ATOM     20  H   UNL     1       0.013  -5.042  16.068  0.00  0.00    +0.145 HD
ATOM     21  H   UNL     1       1.417  -5.670  16.744  0.00  0.00    +0.145 HD
ENDBRANCH  14  17
ENDBRANCH   9  11
ENDBRANCH   3   7
BRANCH   1  22
ATOM     22  C   UNL     1      -1.368  -2.850   4.170  0.00  0.00    +0.112 C 
BRANCH  22  23
ATOM     23  C   UNL     1       0.067  -2.807   3.643  0.00  0.00    +0.052 C 
BRANCH  23  31
ATOM     24  C   UNL     1       0.034   1.497   0.014  0.00  0.00    +0.044 C 
ATOM     25  C   UNL     1       0.043  -0.010   0.005  0.00  0.00    -0.050 A 
ATOM     26  C   UNL     1       0.042  -0.685  -1.223  0.00  0.00    +0.005 A 
ATOM     27  C   UNL     1       0.050  -2.032  -1.315  0.00  0.00    +0.026 A 
ATOM     28  C   UNL     1       0.057  -2.833  -0.139  0.00  0.00    +0.043 A 
ATOM     29  N   UNL     1       0.064  -4.132   0.032  0.00  0.00    -0.380 N 
ATOM     30  C   UNL     1       0.070  -4.415   1.471  0.00  0.00    +0.144 C 
ATOM     31  C   UNL     1       0.065  -3.067   2.158  0.00  0.00    -0.040 C 
ATOM     32  C   UNL     1       0.058  -2.143   1.171  0.00  0.00    -0.001 A 
ATOM     33  C   UNL     1       0.056  -0.675   1.182  0.00  0.00    +0.013 A 
ATOM     34  H   UNL     1       0.065  -4.796  -0.675  0.00  0.00    +0.160 HD
ENDBRANCH  23  31
ENDBRANCH  22  23
ENDBRANCH   1  22
TORSDOF 6
