REMARK  Name = ZINC54530180
REMARK  6 active torsions:
REMARK  status: ('A' for Active; 'I' for Inactive)
REMARK    1  A    between atoms: C_1  and  C_2
REMARK    2  A    between atoms: C_3  and  C_18
REMARK    3  A    between atoms: C_7  and  C_8
REMARK    4  A    between atoms: N_11  and  C_12
REMARK    5  A    between atoms: C_15  and  C_16
REMARK    6  A    between atoms: C_15  and  C_17
REMARK                            x       y       z     vdW  Elec       q    Type
REMARK                         _______ _______ _______ _____ _____    ______ ____
ROOT
ATOM      1  C   UNL     1      -0.239   1.491   0.017  0.00  0.00    +0.046 C 
ATOM      2  C   UNL     1      -0.103  -0.009   0.005  0.00  0.00    -0.013 A 
ATOM      3  C   UNL     1      -0.128  -0.720  -1.183  0.00  0.00    +0.035 A 
ATOM      4  N   UNL     1      -0.007  -2.033  -1.174  0.00  0.00    -0.280 N 
ATOM      5  N   UNL     1       0.136  -2.708  -0.093  0.00  0.00    -0.158 NA
ATOM      6  C   UNL     1       0.173  -2.131   1.101  0.00  0.00    +0.154 A 
ATOM      7  C   UNL     1       0.058  -0.731   1.197  0.00  0.00    +0.109 A 
ATOM      8  N   UNL     1       0.329  -2.897   2.240  0.00  0.00    -0.324 N 
ATOM      9  C   UNL     1      -0.293   0.011  -2.491  0.00  0.00    +0.065 C 
ATOM     10  H   UNL     1       0.330  -2.474   3.113  0.00  0.00    +0.148 HD
ATOM     11  H   UNL     1      -0.028  -2.507  -2.020  0.00  0.00    +0.189 HD
ENDROOT
BRANCH   8  12
ATOM     12  C   UNL     1       0.491  -4.349   2.131  0.00  0.00    +0.078 C 
ATOM     13  C   UNL     1      -0.297  -5.224   3.108  0.00  0.00    +0.031 C 
ATOM     14  C   UNL     1       1.217  -5.067   3.270  0.00  0.00    -0.015 C 
ATOM     15  C   UNL     1       2.095  -6.266   2.904  0.00  0.00    +0.013 C 
ATOM     16  C   UNL     1       1.718  -4.214   4.436  0.00  0.00    +0.013 C 
ENDBRANCH   8  12
BRANCH   7  17
ATOM     17  C   UNL     1       0.101  -0.048   2.503  0.00  0.00    +0.390 C 
ATOM     18  O   UNL     1      -0.925   0.089   3.155  0.00  0.00    -0.240 OA
ATOM     19  O   UNL     1       1.161   0.381   2.934  0.00  0.00    -0.240 OA
ENDBRANCH   7  17
TORSDOF 2
