REMARK  Name = ZINC49846014
REMARK  6 active torsions:
REMARK  status: ('A' for Active; 'I' for Inactive)
REMARK    1  A    between atoms: C_1  and  C_2
REMARK    2  A    between atoms: C_5  and  C_8
REMARK    3  A    between atoms: C_9  and  C_19
REMARK    4  A    between atoms: C_11  and  C_16
REMARK    5  A    between atoms: C_12  and  N_14
REMARK    6  A    between atoms: N_14  and  C_15
REMARK                            x       y       z     vdW  Elec       q    Type
REMARK                         _______ _______ _______ _____ _____    ______ ____
ROOT
ATOM      1  C   UNL     1       0.247  -4.287  -0.213  0.00  0.00    +0.051 A 
ATOM      2  C   UNL     1      -0.583  -4.735   0.816  0.00  0.00    -0.026 A 
ATOM      3  C   UNL     1      -0.759  -6.090   1.004  0.00  0.00    +0.024 A 
ATOM      4  C   UNL     1      -0.091  -6.976   0.145  0.00  0.00    +0.101 A 
ATOM      5  C   UNL     1       0.730  -6.452  -0.871  0.00  0.00    +0.111 A 
ATOM      6  N   UNL     1       0.865  -5.144  -1.016  0.00  0.00    -0.342 N 
ATOM      7  C   UNL     1      -1.280  -3.746   1.715  0.00  0.00    +0.046 C 
ATOM      8  H   UNL     1       1.432  -4.803  -1.725  0.00  0.00    +0.167 HD
ENDROOT
BRANCH   1  13
ATOM      9  C   UNL     1       0.984   1.369  -1.001  0.00  0.00    +0.044 C 
ATOM     10  C   UNL     1       0.791  -0.111  -0.795  0.00  0.00    -0.050 A 
ATOM     11  C   UNL     1      -0.485  -0.627  -0.654  0.00  0.00    +0.004 A 
ATOM     12  C   UNL     1      -0.668  -1.982  -0.466  0.00  0.00    +0.010 A 
ATOM     13  C   UNL     1       0.437  -2.831  -0.416  0.00  0.00    -0.001 A 
ATOM     14  C   UNL     1       1.721  -2.306  -0.559  0.00  0.00    +0.010 A 
ATOM     15  C   UNL     1       1.891  -0.950  -0.753  0.00  0.00    +0.004 A 
ENDBRANCH   1  13
BRANCH   5  16
ATOM     16  N   UNL     1       1.395  -7.309  -1.726  0.00  0.00    -0.333 N 
ATOM     17  C   UNL     1       2.150  -6.772  -2.861  0.00  0.00    +0.127 C 
ATOM     18  H   UNL     1       1.363  -8.267  -1.575  0.00  0.00    +0.147 HD
ENDBRANCH   5  16
BRANCH   4  19
ATOM     19  C   UNL     1      -0.246  -8.428   0.305  0.00  0.00    +0.390 C 
ATOM     20  O   UNL     1      -1.045  -8.873   1.118  0.00  0.00    -0.240 OA
ATOM     21  O   UNL     1       0.425  -9.193  -0.376  0.00  0.00    -0.240 OA
ENDBRANCH   4  19
TORSDOF 3
