REMARK  Name = ZINC25406568
REMARK  10 active torsions:
REMARK  status: ('A' for Active; 'I' for Inactive)
REMARK    1  A    between atoms: C_4  and  C_7
REMARK    2  A    between atoms: C_7  and  C_8
REMARK    3  A    between atoms: C_8  and  C_10
REMARK    4  A    between atoms: C_8  and  N_23
REMARK    5  A    between atoms: N_12  and  C_13
REMARK    6  A    between atoms: C_13  and  C_14
REMARK    7  A    between atoms: C_17  and  S_19
REMARK    8  A    between atoms: S_19  and  N_22
REMARK    9  A    between atoms: N_23  and  S_24
REMARK   10  A    between atoms: S_24  and  C_27
REMARK                            x       y       z     vdW  Elec       q    Type
REMARK                         _______ _______ _______ _____ _____    ______ ____
ROOT
ATOM      1  C   UNL     1       6.287  -0.785  -3.342  0.00  0.00    +0.166 C 
ENDROOT
BRANCH   1   2
ATOM      2  C   UNL     1       5.912  -0.794  -1.883  0.00  0.00    +0.232 C 
ATOM      3  O   UNL     1       6.724  -1.135  -1.050  0.00  0.00    -0.274 OA
ATOM      4  N   UNL     1       4.673  -0.423  -1.504  0.00  0.00    -0.309 N 
ATOM      5  H   UNL     1       3.936  -0.113  -2.260  0.00  0.00    +0.149 HD
BRANCH   4   6
ATOM      6  C   UNL     1       4.307  -0.431  -0.085  0.00  0.00    +0.146 C 
BRANCH   6   7
ATOM      7  C   UNL     1       2.878   0.022   0.069  0.00  0.00    +0.009 A 
ATOM      8  C   UNL     1       1.743  -0.718   0.065  0.00  0.00    +0.015 A 
ATOM      9  C   UNL     1       0.527  -0.080   0.225  0.00  0.00    +0.036 A 
ATOM     10  C   UNL     1       0.506   1.266   0.380  0.00  0.00    +0.142 A 
ATOM     11  S   UNL     1       2.242   1.674   0.302  0.00  0.00    -0.072 S 
BRANCH  10  12
ATOM     12  S   UNL     1      -0.877   2.337   0.595  0.00  0.00    +0.062 S 
ATOM     13  O   UNL     1      -0.465   3.625   0.159  0.00  0.00    -0.153 OA
ATOM     14  O   UNL     1      -2.000   1.667   0.038  0.00  0.00    -0.153 OA
BRANCH  12  15
ATOM     15  N   UNL     1      -1.156   2.455   2.223  0.00  0.00    -0.203 NA
ATOM     16  H   UNL     1      -2.016   3.118   2.400  0.00  0.00    +0.144 HD
ATOM     17  H   UNL     1      -0.266   2.869   2.718  0.00  0.00    +0.144 HD
ENDBRANCH  12  15
ENDBRANCH  10  12
ENDBRANCH   6   7
ENDBRANCH   4   6
ENDBRANCH   1   2
BRANCH   1  18
ATOM     18  N   UNL     1       7.677  -1.226  -3.491  0.00  0.00    -0.178 NA
ATOM     19  H   UNL     1       8.484  -0.483  -3.568  0.00  0.00    +0.149 HD
BRANCH  18  20
ATOM     20  S   UNL     1       8.011  -2.819  -3.793  0.00  0.00    +0.062 S 
ATOM     21  O   UNL     1       9.426  -2.929  -3.870  0.00  0.00    -0.153 OA
ATOM     22  O   UNL     1       7.237  -3.578  -2.874  0.00  0.00    -0.153 OA
BRANCH  20  23
ATOM     23  C   UNL     1       7.389  -3.187  -5.400  0.00  0.00    +0.140 A 
ATOM     24  C   UNL     1       8.264  -3.382  -6.452  0.00  0.00    +0.031 A 
ATOM     25  C   UNL     1       7.777  -3.677  -7.712  0.00  0.00    +0.002 A 
ATOM     26  C   UNL     1       6.413  -3.765  -7.923  0.00  0.00    +0.003 A 
ATOM     27  C   UNL     1       5.537  -3.564  -6.874  0.00  0.00    +0.040 A 
ATOM     28  C   UNL     1       6.024  -3.275  -5.611  0.00  0.00    +0.150 A 
ATOM     29  F   UNL     1       5.168  -3.078  -4.584  0.00  0.00    -0.203 F 
ENDBRANCH  20  23
ENDBRANCH  18  20
ENDBRANCH   1  18
BRANCH   1  30
ATOM     30  C   UNL     1       6.140   0.633  -3.898  0.00  0.00    +0.065 C 
BRANCH  30  34
ATOM     31  C   UNL     1       6.835   0.590  -8.113  0.00  0.00    +0.000 A 
ATOM     32  C   UNL     1       5.546   0.488  -7.624  0.00  0.00    +0.000 A 
ATOM     33  C   UNL     1       5.321   0.502  -6.260  0.00  0.00    +0.004 A 
ATOM     34  C   UNL     1       6.385   0.618  -5.385  0.00  0.00    -0.045 A 
ATOM     35  C   UNL     1       7.673   0.725  -5.874  0.00  0.00    +0.004 A 
ATOM     36  C   UNL     1       7.899   0.706  -7.238  0.00  0.00    +0.000 A 
ENDBRANCH  30  34
ENDBRANCH   1  30
TORSDOF 10
