REMARK  Name = ZINC19314173
REMARK  14 active torsions:
REMARK  status: ('A' for Active; 'I' for Inactive)
REMARK    1  A    between atoms: C_1  and  C_2
REMARK    2  A    between atoms: C_5  and  N_13
REMARK    3  A    between atoms: C_7  and  S_8
REMARK    4  A    between atoms: S_8  and  N_11
REMARK    5  A    between atoms: N_11  and  C_12
REMARK    6  A    between atoms: C_14  and  C_16
REMARK    7  A    between atoms: C_16  and  S_17
REMARK    8  A    between atoms: S_17  and  C_18
REMARK    9  A    between atoms: C_21  and  C_24
REMARK   10  A    between atoms: N_22  and  N_23
REMARK   11  A    between atoms: C_27  and  C_30
REMARK   12  A    between atoms: C_30  and  C_31
REMARK   13  A    between atoms: C_30  and  C_32
REMARK   14  A    between atoms: C_30  and  C_33
REMARK                            x       y       z     vdW  Elec       q    Type
REMARK                         _______ _______ _______ _____ _____    ______ ____
ROOT
ATOM      1  S   UNL     1      -6.177   2.455   1.415  0.00  0.00    -0.075 S 
ENDROOT
BRANCH   1   2
ATOM      2  C   UNL     1      -7.632   3.438   1.569  0.00  0.00    +0.209 A 
ATOM      3  N   UNL     1      -7.696   4.750   1.512  0.00  0.00    -0.121 NA
ATOM      4  N   UNL     1      -8.912   5.138   1.659  0.00  0.00    -0.127 NA
ATOM      5  C   UNL     1      -9.697   4.100   1.828  0.00  0.00    +0.182 A 
ATOM      6  N   UNL     1      -8.901   2.979   1.776  0.00  0.00    -0.224 N 
BRANCH   5   7
ATOM      7  C   UNL     1     -11.161   4.129   2.036  0.00  0.00    +0.021 A 
ATOM      8  C   UNL     1     -11.893   5.270   1.705  0.00  0.00    +0.012 A 
ATOM      9  C   UNL     1     -13.259   5.289   1.896  0.00  0.00    +0.005 A 
ATOM     10  C   UNL     1     -13.902   4.185   2.427  0.00  0.00    -0.042 A 
ATOM     11  C   UNL     1     -13.181   3.053   2.763  0.00  0.00    +0.005 A 
ATOM     12  C   UNL     1     -11.815   3.018   2.571  0.00  0.00    +0.012 A 
BRANCH  10  13
ATOM     13  C   UNL     1     -15.393   4.215   2.639  0.00  0.00    -0.013 C 
ATOM     14  C   UNL     1     -15.701   4.005   4.123  0.00  0.00    +0.015 C 
ATOM     15  C   UNL     1     -15.945   5.569   2.190  0.00  0.00    +0.015 C 
ATOM     16  C   UNL     1     -16.048   3.100   1.820  0.00  0.00    +0.015 C 
ENDBRANCH  10  13
ENDBRANCH   5   7
BRANCH   6  17
ATOM     17  N   UNL     1      -9.298   1.678   1.904  0.00  0.00    -0.295 N 
ATOM     18  H   UNL     1     -10.359   1.440   2.069  0.00  0.00    +0.163 HD
ATOM     19  H   UNL     1      -8.556   0.868   1.841  0.00  0.00    +0.163 HD
ENDBRANCH   6  17
ENDBRANCH   1   2
BRANCH   1  20
ATOM     20  C   UNL     1      -4.944   3.756   1.167  0.00  0.00    +0.173 C 
BRANCH  20  22
ATOM     21  N   UNL     1      -2.502   3.915   0.809  0.00  0.00    -0.285 N 
ATOM     22  C   UNL     1      -3.581   3.133   1.007  0.00  0.00    +0.227 C 
ATOM     23  O   UNL     1      -3.457   1.927   1.055  0.00  0.00    -0.275 OA
ATOM     24  H   UNL     1      -2.601   5.010   0.848  0.00  0.00    +0.155 HD
BRANCH  21  29
ATOM     25  C   UNL     1       2.556   1.560  -0.220  0.00  0.00    +0.046 C 
ATOM     26  C   UNL     1       1.212   2.185   0.054  0.00  0.00    -0.024 A 
ATOM     27  C   UNL     1       0.061   1.584  -0.422  0.00  0.00    +0.007 A 
ATOM     28  C   UNL     1      -1.171   2.157  -0.177  0.00  0.00    +0.023 A 
ATOM     29  C   UNL     1      -1.254   3.334   0.555  0.00  0.00    +0.035 A 
ATOM     30  C   UNL     1      -0.097   3.936   1.031  0.00  0.00    +0.052 A 
ATOM     31  C   UNL     1       1.133   3.359   0.779  0.00  0.00    +0.110 A 
BRANCH  31  32
ATOM     32  S   UNL     1       2.603   4.122   1.383  0.00  0.00    +0.058 S 
ATOM     33  O   UNL     1       2.204   5.336   2.004  0.00  0.00    -0.153 OA
ATOM     34  O   UNL     1       3.329   3.115   2.074  0.00  0.00    -0.153 OA
BRANCH  32  35
ATOM     35  N   UNL     1       3.513   4.541   0.065  0.00  0.00    -0.193 NA
ATOM     36  C   UNL     1       3.029   5.565  -0.865  0.00  0.00    +0.127 C 
ATOM     37  H   UNL     1       4.394   3.936  -0.194  0.00  0.00    +0.148 HD
ENDBRANCH  32  35
ENDBRANCH  31  32
ENDBRANCH  21  29
ENDBRANCH  20  22
ENDBRANCH   1  20
TORSDOF 9
