REMARK  Name = ZINC35352858
REMARK  9 active torsions:
REMARK  status: ('A' for Active; 'I' for Inactive)
REMARK    1  A    between atoms: C_4  and  C_7
REMARK    2  A    between atoms: C_7  and  N_8
REMARK    3  A    between atoms: C_13  and  C_31
REMARK    4  A    between atoms: C_16  and  C_21
REMARK    5  A    between atoms: C_16  and  C_28
REMARK    6  A    between atoms: C_21  and  C_22
REMARK    7  A    between atoms: C_22  and  C_23
REMARK    8  A    between atoms: C_23  and  N_24
REMARK    9  A    between atoms: C_36  and  O_37
REMARK                            x       y       z     vdW  Elec       q    Type
REMARK                         _______ _______ _______ _____ _____    ______ ____
ROOT
ATOM      1  N   UNL     1       4.181  -0.969   1.433  0.00  0.00    -0.237 N 
ATOM      2  C   UNL     1       4.983  -0.077   2.101  0.00  0.00    +0.225 C 
ATOM      3  O   UNL     1       5.229   1.070   1.797  0.00  0.00    -0.275 OA
ATOM      4  C   UNL     1       5.469  -0.811   3.247  0.00  0.00    +0.077 C 
ATOM      5  C   UNL     1       6.075  -0.573   4.564  0.00  0.00    -0.023 C 
ATOM      6  N   UNL     1       5.845  -1.851   5.315  0.00  0.00    +0.396 N 
ATOM      7  C   UNL     1       5.005  -2.739   4.447  0.00  0.00    +0.048 C 
ATOM      8  C   UNL     1       4.220  -1.713   3.601  0.00  0.00    +0.086 C 
ATOM      9  C   UNL     1       3.882  -2.073   2.180  0.00  0.00    +0.225 C 
ATOM     10  O   UNL     1       3.437  -3.128   1.781  0.00  0.00    -0.275 OA
ATOM     11  H   UNL     1       6.729  -2.298   5.508  0.00  0.00    -0.083 HD
ATOM     12  H   UNL     1       5.361  -1.659   6.178  0.00  0.00    -0.083 HD
ENDROOT
BRANCH   5  13
ATOM     13  C   UNL     1       5.393   0.579   5.258  0.00  0.00    -0.019 A 
ATOM     14  C   UNL     1       4.321   0.343   6.097  0.00  0.00    +0.005 A 
ATOM     15  C   UNL     1       3.694   1.398   6.734  0.00  0.00    +0.000 A 
ATOM     16  C   UNL     1       4.138   2.692   6.532  0.00  0.00    +0.004 A 
ATOM     17  C   UNL     1       5.210   2.933   5.694  0.00  0.00    +0.045 A 
ATOM     18  C   UNL     1       5.843   1.875   5.058  0.00  0.00    +0.118 A 
BRANCH  18  19
ATOM     19  O   UNL     1       6.901   2.109   4.237  0.00  0.00    -0.507 OA
ATOM     20  H   UNL     1       6.657   2.263   3.315  0.00  0.00    +0.292 HD
ENDBRANCH  18  19
ENDBRANCH   5  13
BRANCH   7  21
ATOM     21  C   UNL     1       4.061  -3.564   5.282  0.00  0.00    +0.346 C 
ATOM     22  O   UNL     1       4.079  -3.468   6.497  0.00  0.00    -0.248 OA
ATOM     23  O   UNL     1       3.278  -4.328   4.743  0.00  0.00    -0.248 OA
ENDBRANCH   7  21
BRANCH   1  24
ATOM     24  C   UNL     1       3.693  -0.757   0.069  0.00  0.00    +0.151 C 
BRANCH  24  28
ATOM     25  C   UNL     1      -0.040   1.317   0.195  0.00  0.00    +0.000 A 
ATOM     26  C   UNL     1       1.144   2.028   0.131  0.00  0.00    +0.000 A 
ATOM     27  C   UNL     1       2.352   1.357   0.090  0.00  0.00    +0.005 A 
ATOM     28  C   UNL     1       2.376  -0.025   0.114  0.00  0.00    -0.030 A 
ATOM     29  C   UNL     1       1.192  -0.736   0.179  0.00  0.00    +0.005 A 
ATOM     30  C   UNL     1      -0.016  -0.065   0.218  0.00  0.00    +0.000 A 
ENDBRANCH  24  28
ENDBRANCH   1  24
BRANCH   7  31
ATOM     31  C   UNL     1       5.886  -3.636   3.575  0.00  0.00    +0.001 C 
BRANCH  31  32
ATOM     32  C   UNL     1       6.698  -4.575   4.468  0.00  0.00    +0.018 C 
BRANCH  32  33
ATOM     33  C   UNL     1       7.579  -5.473   3.597  0.00  0.00    +0.105 C 
BRANCH  33  34
ATOM     34  N   UNL     1       8.357  -6.372   4.452  0.00  0.00    -0.300 N 
ATOM     35  C   UNL     1       9.209  -7.259   3.900  0.00  0.00    +0.297 C 
ATOM     36  O   UNL     1       9.332  -7.312   2.691  0.00  0.00    -0.253 OA
ATOM     37  N   UNL     1       9.925  -8.086   4.687  0.00  0.00    -0.313 N 
ATOM     38  H   UNL     1       8.260  -6.330   5.417  0.00  0.00    +0.150 HD
ATOM     39  H   UNL     1       9.827  -8.044   5.651  0.00  0.00    +0.146 HD
ATOM     40  H   UNL     1      10.538  -8.724   4.289  0.00  0.00    +0.146 HD
ENDBRANCH  33  34
ENDBRANCH  32  33
ENDBRANCH  31  32
ENDBRANCH   7  31
TORSDOF 9
