REMARK  Name = ZINC62496473
REMARK  7 active torsions:
REMARK  status: ('A' for Active; 'I' for Inactive)
REMARK    1  A    between atoms: C_1  and  C_2
REMARK    2  A    between atoms: C_4  and  C_25
REMARK    3  A    between atoms: C_6  and  C_8
REMARK    4  A    between atoms: C_8  and  C_9
REMARK    5  A    between atoms: N_13  and  C_22
REMARK    6  A    between atoms: C_17  and  N_21
REMARK    7  A    between atoms: C_22  and  C_23
REMARK                            x       y       z     vdW  Elec       q    Type
REMARK                         _______ _______ _______ _____ _____    ______ ____
ROOT
ATOM      1  C   UNL     1       1.502  -3.083   2.922  0.00  0.00    +0.263 C 
ATOM      2  C   UNL     1       1.518  -3.733   4.282  0.00  0.00    +0.262 C 
ATOM      3  O   UNL     1       1.598  -3.050   5.282  0.00  0.00    -0.271 OA
ATOM      4  N   UNL     1       1.442  -5.076   4.383  0.00  0.00    -0.251 N 
ATOM      5  C   UNL     1       1.477  -5.854   3.215  0.00  0.00    +0.079 A 
ATOM      6  C   UNL     1       1.174  -7.205   3.260  0.00  0.00    +0.029 A 
ATOM      7  C   UNL     1       1.199  -7.957   2.101  0.00  0.00    +0.025 A 
ATOM      8  C   UNL     1       1.526  -7.361   0.890  0.00  0.00    +0.028 A 
ATOM      9  C   UNL     1       1.835  -6.008   0.842  0.00  0.00    +0.070 A 
ATOM     10  C   UNL     1       1.816  -5.255   2.003  0.00  0.00    +0.145 A 
ATOM     11  O   UNL     1       2.147  -3.937   1.974  0.00  0.00    -0.477 OA
ENDROOT
BRANCH   8  12
ATOM     12  N   UNL     1       1.545  -8.124  -0.282  0.00  0.00    -0.358 N 
ATOM     13  H   UNL     1       1.330  -9.069  -0.249  0.00  0.00    +0.142 HD
ATOM     14  H   UNL     1       1.774  -7.708  -1.128  0.00  0.00    +0.142 HD
ENDBRANCH   8  12
BRANCH   1  15
ATOM     15  C   UNL     1       0.054  -2.844   2.489  0.00  0.00    +0.089 C 
BRANCH  15  21
ATOM     16  C   UNL     1      -0.018   1.503   0.010  0.00  0.00    +0.044 C 
ATOM     17  C   UNL     1       0.002  -0.004   0.002  0.00  0.00    -0.050 A 
ATOM     18  C   UNL     1       0.006  -0.689  -1.199  0.00  0.00    +0.006 A 
ATOM     19  C   UNL     1       0.025  -2.071  -1.206  0.00  0.00    -0.050 A 
ATOM     20  C   UNL     1       0.040  -2.768  -0.013  0.00  0.00    +0.007 A 
ATOM     21  C   UNL     1       0.037  -2.084   1.188  0.00  0.00    -0.043 A 
ATOM     22  C   UNL     1       0.023  -0.702   1.195  0.00  0.00    +0.007 A 
ATOM     23  C   UNL     1       0.027  -2.817  -2.516  0.00  0.00    +0.044 C 
ENDBRANCH  15  21
ENDBRANCH   1  15
BRANCH   4  24
ATOM     24  C   UNL     1       1.325  -5.716   5.696  0.00  0.00    +0.232 C 
BRANCH  24  25
ATOM     25  C   UNL     1      -0.097  -5.858   6.048  0.00  0.00    +0.082 C 
ATOM     26  N   UNL     1      -1.195  -5.968   6.319  0.00  0.00    -0.195 NA
ENDBRANCH  24  25
ENDBRANCH   4  24
TORSDOF 5
