REMARK  Name = ZINC40816219
REMARK  4 active torsions:
REMARK  status: ('A' for Active; 'I' for Inactive)
REMARK    1  A    between atoms: C_1  and  C_2
REMARK    2  A    between atoms: C_6  and  O_25
REMARK    3  A    between atoms: C_7  and  O_24
REMARK    4  A    between atoms: C_13  and  C_15
REMARK                            x       y       z     vdW  Elec       q    Type
REMARK                         _______ _______ _______ _____ _____    ______ ____
ROOT
ATOM      1  C   UNL     1      -0.063   0.935  -0.517  0.00  0.00    +0.033 C 
ATOM      2  C   UNL     1      -0.002  -0.554  -0.170  0.00  0.00    +0.104 C 
ATOM      3  C   UNL     1       0.727  -1.295  -1.262  0.00  0.00    -0.020 A 
ATOM      4  C   UNL     1       0.080  -1.447  -2.482  0.00  0.00    +0.055 A 
ATOM      5  C   UNL     1       0.698  -2.108  -3.528  0.00  0.00    +0.159 A 
ATOM      6  C   UNL     1       1.980  -2.622  -3.353  0.00  0.00    +0.158 A 
ATOM      7  C   UNL     1       2.618  -2.472  -2.136  0.00  0.00    +0.053 A 
ATOM      8  C   UNL     1       1.991  -1.812  -1.085  0.00  0.00    -0.037 A 
ATOM      9  C   UNL     1       2.739  -1.712   0.218  0.00  0.00    +0.054 C 
ATOM     10  C   UNL     1       2.171  -0.591   1.087  0.00  0.00    +0.113 C 
ATOM     11  N   UNL     1       0.706  -0.729   1.103  0.00  0.00    -0.289 N 
ATOM     12  C   UNL     1       0.042  -1.006   2.242  0.00  0.00    +0.266 C 
ATOM     13  O   UNL     1       0.658  -1.266   3.256  0.00  0.00    -0.268 OA
ENDROOT
BRANCH  12  14
ATOM     14  C   UNL     1      -1.444  -0.991   2.259  0.00  0.00    +0.136 A 
ATOM     15  C   UNL     1      -2.129  -1.419   3.378  0.00  0.00    +0.103 A 
ATOM     16  C   UNL     1      -3.541  -1.391   3.358  0.00  0.00    +0.255 A 
ATOM     17  O   UNL     1      -4.184  -1.760   4.326  0.00  0.00    -0.268 OA
ATOM     18  N   UNL     1      -4.165  -0.947   2.246  0.00  0.00    -0.274 N 
ATOM     19  H   UNL     1      -5.134  -0.920   2.212  0.00  0.00    +0.173 HD
ATOM     20  C   UNL     1      -3.437  -0.539   1.174  0.00  0.00    +0.349 A 
ATOM     21  O   UNL     1      -4.078  -0.099   0.072  0.00  0.00    -0.245 OA
ATOM     22  N   UNL     1      -2.124  -0.557   1.188  0.00  0.00    -0.188 NA
ENDBRANCH  12  14
BRANCH   6  23
ATOM     23  O   UNL     1       2.601  -3.270  -4.375  0.00  0.00    -0.503 OA
ATOM     24  H   UNL     1       3.125  -2.692  -4.946  0.00  0.00    +0.292 HD
ENDBRANCH   6  23
BRANCH   5  25
ATOM     25  O   UNL     1       0.058  -2.255  -4.718  0.00  0.00    -0.503 OA
ATOM     26  H   UNL     1       0.217  -1.533  -5.342  0.00  0.00    +0.292 HD
ENDBRANCH   5  25
TORSDOF 3
