REMARK  Name = ZINC45019463
REMARK  8 active torsions:
REMARK  status: ('A' for Active; 'I' for Inactive)
REMARK    1  A    between atoms: C_1  and  C_2
REMARK    2  A    between atoms: C_2  and  C_4
REMARK    3  A    between atoms: C_2  and  S_17
REMARK    4  A    between atoms: N_6  and  C_7
REMARK    5  A    between atoms: C_7  and  C_8
REMARK    6  A    between atoms: C_11  and  S_13
REMARK    7  A    between atoms: S_13  and  N_16
REMARK    8  A    between atoms: S_17  and  C_20
REMARK                            x       y       z     vdW  Elec       q    Type
REMARK                         _______ _______ _______ _____ _____    ______ ____
ROOT
ATOM      1  C   UNL     1      -3.465  -1.164  -1.134  0.00  0.00    +0.146 C 
ENDROOT
BRANCH   1   2
ATOM      2  C   UNL     1      -3.992  -1.214  -2.545  0.00  0.00    +0.009 A 
ATOM      3  C   UNL     1      -3.934  -2.228  -3.442  0.00  0.00    +0.015 A 
ATOM      4  C   UNL     1      -4.493  -2.049  -4.694  0.00  0.00    +0.036 A 
ATOM      5  C   UNL     1      -5.083  -0.864  -4.986  0.00  0.00    +0.142 A 
ATOM      6  S   UNL     1      -4.863   0.043  -3.465  0.00  0.00    -0.072 S 
BRANCH   5   7
ATOM      7  S   UNL     1      -5.868  -0.354  -6.479  0.00  0.00    +0.062 S 
ATOM      8  O   UNL     1      -5.816   1.066  -6.501  0.00  0.00    -0.153 OA
ATOM      9  O   UNL     1      -5.321  -1.152  -7.519  0.00  0.00    -0.153 OA
BRANCH   7  10
ATOM     10  N   UNL     1      -7.467  -0.767  -6.357  0.00  0.00    -0.203 NA
ATOM     11  H   UNL     1      -7.794  -1.208  -5.557  0.00  0.00    +0.144 HD
ATOM     12  H   UNL     1      -8.076  -0.569  -7.085  0.00  0.00    +0.144 HD
ENDBRANCH   7  10
ENDBRANCH   5   7
ENDBRANCH   1   2
BRANCH   1  15
ATOM     13  C   UNL     1      -1.412  -0.526   0.013  0.00  0.00    +0.237 C 
ATOM     14  O   UNL     1      -1.939  -0.827   1.062  0.00  0.00    -0.274 OA
ATOM     15  N   UNL     1      -2.090  -0.657  -1.144  0.00  0.00    -0.309 N 
ATOM     16  H   UNL     1      -1.669  -0.416  -1.984  0.00  0.00    +0.149 HD
BRANCH  13  18
ATOM     17  C   UNL     1      -0.019   1.526   0.010  0.00  0.00    +0.042 C 
ATOM     18  C   UNL     1       0.002  -0.004   0.002  0.00  0.00    +0.212 C 
BRANCH  18  19
ATOM     19  S   UNL     1       0.879  -0.605   1.472  0.00  0.00    -0.023 S 
ATOM     20  O   UNL     1       0.202  -0.129   2.626  0.00  0.00    -0.174 OA
ATOM     21  O   UNL     1       1.097  -2.002   1.325  0.00  0.00    -0.174 OA
ATOM     22  C   UNL     1       2.480   0.241   1.356  0.00  0.00    +0.194 C 
ENDBRANCH  18  19
ENDBRANCH  13  18
ENDBRANCH   1  15
TORSDOF 6
