REMARK  Name = ZINC06353524
REMARK  9 active torsions:
REMARK  status: ('A' for Active; 'I' for Inactive)
REMARK    1  A    between atoms: C_1  and  C_2
REMARK    2  A    between atoms: C_2  and  C_4
REMARK    3  A    between atoms: C_2  and  O_10
REMARK    4  A    between atoms: O_10  and  C_11
REMARK    5  A    between atoms: C_11  and  C_13
REMARK    6  A    between atoms: C_13  and  C_14
REMARK    7  A    between atoms: C_13  and  C_15
REMARK    8  A    between atoms: C_13  and  O_16
REMARK    9  A    between atoms: O_16  and  C_17
REMARK                            x       y       z     vdW  Elec       q    Type
REMARK                         _______ _______ _______ _____ _____    ______ ____
ROOT
ATOM      1  C   UNL     1       2.189   5.687  -0.096  0.00  0.00    +0.352 C 
ATOM      2  O   UNL     1       1.080   6.159  -0.011  0.00  0.00    -0.246 OA
ENDROOT
BRANCH   1   3
ATOM      3  C   UNL     1       2.376   4.192  -0.056  0.00  0.00    +0.200 C 
ATOM      4  C   UNL     1       3.268   3.821   1.131  0.00  0.00    +0.067 C 
ATOM      5  C   UNL     1       3.035   3.725  -1.355  0.00  0.00    +0.067 C 
BRANCH   3   6
ATOM      6  O   UNL     1       1.104   3.556   0.088  0.00  0.00    -0.475 OA
BRANCH   6   7
ATOM      7  C   UNL     1       0.390   3.851   1.206  0.00  0.00    +0.122 A 
ATOM      8  C   UNL     1      -0.794   3.179   1.471  0.00  0.00    +0.047 A 
ATOM      9  C   UNL     1      -1.519   3.480   2.608  0.00  0.00    +0.023 A 
ATOM     10  C   UNL     1      -1.064   4.451   3.482  0.00  0.00    +0.041 A 
ATOM     11  C   UNL     1       0.117   5.123   3.220  0.00  0.00    +0.023 A 
ATOM     12  C   UNL     1       0.844   4.825   2.083  0.00  0.00    +0.047 A 
ATOM     13 CL   UNL     1      -1.976   4.827   4.911  0.00  0.00    -0.084 Cl
ENDBRANCH   6   7
ENDBRANCH   3   6
ENDBRANCH   1   3
BRANCH   1  14
ATOM     14  O   UNL     1       3.254   6.493  -0.227  0.00  0.00    -0.449 OA
BRANCH  14  16
ATOM     15  C   UNL     1       2.775   8.368  -1.705  0.00  0.00    +0.062 C 
ATOM     16  C   UNL     1       2.999   7.922  -0.259  0.00  0.00    +0.259 C 
BRANCH  16  17
ATOM     17  C   UNL     1       4.183   8.656   0.316  0.00  0.00    +0.261 C 
ATOM     18  O   UNL     1       5.182   8.045   0.629  0.00  0.00    -0.271 OA
ATOM     19  N   UNL     1       4.131   9.993   0.482  0.00  0.00    -0.237 N 
ATOM     20  C   UNL     1       5.190  10.649   0.997  0.00  0.00    +0.303 C 
ATOM     21  O   UNL     1       6.191  10.037   1.310  0.00  0.00    -0.253 OA
ATOM     22  N   UNL     1       5.138  11.986   1.163  0.00  0.00    -0.313 N 
ATOM     23  H   UNL     1       3.332  10.482   0.232  0.00  0.00    +0.159 HD
ATOM     24  H   UNL     1       4.339  12.475   0.912  0.00  0.00    +0.146 HD
ATOM     25  H   UNL     1       5.900  12.459   1.533  0.00  0.00    +0.146 HD
ENDBRANCH  16  17
ENDBRANCH  14  16
ENDBRANCH   1  14
TORSDOF 6
