REMARK  Name = ZINC49776625
REMARK  5 active torsions:
REMARK  status: ('A' for Active; 'I' for Inactive)
REMARK    1  A    between atoms: C_1  and  C_2
REMARK    2  A    between atoms: C_5  and  N_9
REMARK    3  A    between atoms: C_14  and  C_16
REMARK    4  A    between atoms: C_16  and  C_17
REMARK    5  A    between atoms: C_17  and  O_18
REMARK                            x       y       z     vdW  Elec       q    Type
REMARK                         _______ _______ _______ _____ _____    ______ ____
ROOT
ATOM      1  C   UNL     1      -0.799   2.035   0.261  0.00  0.00    +0.085 C 
ATOM      2  C   UNL     1      -1.349   2.219  -1.130  0.00  0.00    +0.102 C 
ATOM      3  N   UNL     1      -1.636   1.232  -1.919  0.00  0.00    -0.245 NA
ATOM      4  C   UNL     1      -2.140   1.831  -3.168  0.00  0.00    +0.239 C 
ATOM      5  C   UNL     1      -2.065   3.320  -2.890  0.00  0.00    +0.111 C 
ATOM      6  N   UNL     1      -1.594   3.417  -1.671  0.00  0.00    -0.333 N 
ATOM      7  N   UNL     1      -2.415   4.335  -3.723  0.00  0.00    -0.345 N 
ATOM      8  H   UNL     1      -2.759   4.138  -4.609  0.00  0.00    +0.143 HD
ATOM      9  H   UNL     1      -2.322   5.255  -3.432  0.00  0.00    +0.143 HD
ATOM     10  H   UNL     1      -1.439   4.259  -1.216  0.00  0.00    +0.168 HD
ENDROOT
BRANCH   4  11
ATOM     11  N   UNL     1      -1.280   1.467  -4.302  0.00  0.00    -0.272 NA
ATOM     12  C   UNL     1       0.123   1.804  -4.028  0.00  0.00    +0.087 C 
ATOM     13  C   UNL     1       0.965   1.547  -5.280  0.00  0.00    +0.015 C 
ATOM     14  C   UNL     1       0.842   0.073  -5.678  0.00  0.00    +0.003 C 
ATOM     15  C   UNL     1      -0.633  -0.264  -5.911  0.00  0.00    +0.019 C 
ATOM     16  C   UNL     1      -1.428   0.045  -4.641  0.00  0.00    +0.061 C 
BRANCH  16  17
ATOM     17  C   UNL     1      -2.907  -0.271  -4.875  0.00  0.00    +0.047 C 
BRANCH  17  18
ATOM     18  C   UNL     1      -3.075  -1.774  -5.111  0.00  0.00    +0.157 C 
BRANCH  18  19
ATOM     19  O   UNL     1      -4.466  -2.087  -5.210  0.00  0.00    -0.395 OA
ATOM     20  H   UNL     1      -4.648  -3.025  -5.359  0.00  0.00    +0.209 HD
ENDBRANCH  18  19
ENDBRANCH  17  18
ENDBRANCH  16  17
ENDBRANCH   4  11
TORSDOF 4
