REMARK  Name = ZINC21233503
REMARK  5 active torsions:
REMARK  status: ('A' for Active; 'I' for Inactive)
REMARK    1  A    between atoms: C_3  and  C_27
REMARK    2  A    between atoms: C_6  and  N_7
REMARK    3  A    between atoms: C_8  and  C_10
REMARK    4  A    between atoms: C_10  and  S_11
REMARK    5  A    between atoms: S_11  and  C_12
REMARK                            x       y       z     vdW  Elec       q    Type
REMARK                         _______ _______ _______ _____ _____    ______ ____
ROOT
ATOM      1  C   UNL     1       0.162   0.071  -0.656  0.00  0.00    +0.191 A 
ATOM      2  N   UNL     1       1.252  -0.653  -0.427  0.00  0.00    -0.207 NA
ATOM      3  C   UNL     1       2.427  -0.098  -0.186  0.00  0.00    +0.129 A 
ATOM      4  C   UNL     1       2.536   1.321  -0.170  0.00  0.00    +0.051 A 
ATOM      5  C   UNL     1       3.722   2.146   0.073  0.00  0.00    -0.025 A 
ATOM      6  C   UNL     1       3.556   3.483   0.031  0.00  0.00    -0.004 A 
ATOM      7  S   UNL     1       1.837   3.725  -0.328  0.00  0.00    -0.073 S 
ATOM      8  C   UNL     1       1.341   2.025  -0.421  0.00  0.00    +0.115 A 
ATOM      9  N   UNL     1       0.204   1.397  -0.653  0.00  0.00    -0.214 NA
ATOM     10  C   UNL     1       4.602   4.535   0.244  0.00  0.00    +0.043 C 
ATOM     11  C   UNL     1       5.830   3.874   0.888  0.00  0.00    +0.005 C 
ATOM     12  C   UNL     1       6.165   2.599   0.109  0.00  0.00    +0.005 C 
ATOM     13  C   UNL     1       5.092   1.539   0.361  0.00  0.00    +0.037 C 
ATOM     14  N   UNL     1       3.539  -0.887   0.046  0.00  0.00    -0.343 N 
ATOM     15  H   UNL     1       4.514  -0.418   0.246  0.00  0.00    +0.144 HD
ATOM     16  H   UNL     1       3.448  -1.983   0.032  0.00  0.00    +0.144 HD
ENDROOT
BRANCH   1  17
ATOM     17  S   UNL     1      -1.368  -0.745  -0.968  0.00  0.00    -0.077 S 
BRANCH  17  18
ATOM     18  C   UNL     1      -0.835  -2.470  -0.851  0.00  0.00    +0.173 C 
BRANCH  18  20
ATOM     19  N   UNL     1      -1.853  -4.715  -1.051  0.00  0.00    -0.285 N 
ATOM     20  C   UNL     1      -2.013  -3.378  -1.090  0.00  0.00    +0.227 C 
ATOM     21  O   UNL     1      -3.107  -2.905  -1.318  0.00  0.00    -0.275 OA
ATOM     22  H   UNL     1      -0.880  -5.144  -0.769  0.00  0.00    +0.155 HD
BRANCH  19  28
ATOM     23  C   UNL     1      -4.215  -5.199  -1.006  0.00  0.00    +0.024 A 
ATOM     24  C   UNL     1      -5.273  -6.022  -1.321  0.00  0.00    +0.022 A 
ATOM     25  C   UNL     1      -5.043  -7.225  -1.996  0.00  0.00    +0.070 A 
ATOM     26  C   UNL     1      -3.739  -7.584  -2.354  0.00  0.00    +0.060 A 
ATOM     27  C   UNL     1      -2.687  -6.751  -2.039  0.00  0.00    +0.044 A 
ATOM     28  C   UNL     1      -2.921  -5.556  -1.368  0.00  0.00    +0.035 A 
ATOM     29 CL   UNL     1      -3.447  -9.076  -3.191  0.00  0.00    -0.082 Cl
BRANCH  25  30
ATOM     30  C   UNL     1      -6.140  -8.087  -2.320  0.00  0.00    +0.101 C 
ATOM     31  N   UNL     1      -7.010  -8.771  -2.577  0.00  0.00    -0.191 NA
ENDBRANCH  25  30
ENDBRANCH  19  28
ENDBRANCH  18  20
ENDBRANCH  17  18
ENDBRANCH   1  17
TORSDOF 5
