REMARK  Name = ZINC04479455
REMARK  5 active torsions:
REMARK  status: ('A' for Active; 'I' for Inactive)
REMARK    1  A    between atoms: C_1  and  C_2
REMARK    2  A    between atoms: C_5  and  C_9
REMARK    3  A    between atoms: C_6  and  C_8
REMARK    4  A    between atoms: C_15  and  C_17
REMARK    5  A    between atoms: C_18  and  C_19
REMARK                            x       y       z     vdW  Elec       q    Type
REMARK                         _______ _______ _______ _____ _____    ______ ____
ROOT
ATOM      1  C   UNL     1      -2.521   3.870   0.047  0.00  0.00    +0.250 A 
ATOM      2  N   UNL     1      -3.717   3.331   0.050  0.00  0.00    -0.106 NA
ATOM      3  N   UNL     1      -4.604   4.263   0.069  0.00  0.00    -0.092 NA
ATOM      4  C   UNL     1      -4.011   5.432   0.070  0.00  0.00    +0.315 A 
ATOM      5  O   UNL     1      -2.683   5.211   0.056  0.00  0.00    -0.405 OA
ATOM      6  N   UNL     1      -4.635   6.667   0.081  0.00  0.00    -0.235 N 
ATOM      7  C   UNL     1      -5.980   6.742   0.094  0.00  0.00    +0.244 C 
ATOM      8  O   UNL     1      -6.647   5.723   0.095  0.00  0.00    -0.270 OA
ATOM      9  H   UNL     1      -4.104   7.479   0.080  0.00  0.00    +0.160 HD
ENDROOT
BRANCH   1  14
ATOM     10  C   UNL     1       2.489   1.041  -0.016  0.00  0.00    +0.044 C 
ATOM     11  C   UNL     1       1.177   1.782   0.000  0.00  0.00    -0.050 A 
ATOM     12  C   UNL     1       1.167   3.166   0.008  0.00  0.00    +0.004 A 
ATOM     13  C   UNL     1      -0.030   3.850   0.024  0.00  0.00    +0.014 A 
ATOM     14  C   UNL     1      -1.235   3.143   0.031  0.00  0.00    +0.041 A 
ATOM     15  C   UNL     1      -1.218   1.748   0.017  0.00  0.00    -0.038 A 
ATOM     16  C   UNL     1      -0.013   1.076   0.008  0.00  0.00    +0.007 A 
ATOM     17  C   UNL     1      -2.512   0.977   0.019  0.00  0.00    +0.044 C 
ENDBRANCH   1  14
BRANCH   7  18
ATOM     18  C   UNL     1      -6.618   8.004   0.106  0.00  0.00    +0.069 C 
ATOM     19  C   UNL     1      -7.973   8.080   0.119  0.00  0.00    +0.020 C 
BRANCH  19  20
ATOM     20  C   UNL     1      -8.611   9.343   0.131  0.00  0.00    +0.012 A 
ATOM     21  C   UNL     1      -9.969   9.639   0.140  0.00  0.00    +0.015 A 
ATOM     22  C   UNL     1     -10.318  10.966   0.155  0.00  0.00    +0.008 A 
ATOM     23  C   UNL     1      -9.340  11.910   0.150  0.00  0.00    +0.046 A 
ATOM     24  S   UNL     1      -7.882  10.972   0.132  0.00  0.00    -0.097 S 
ENDBRANCH  19  20
ENDBRANCH   7  18
TORSDOF 3
