REMARK  Name = ZINC64045156
REMARK  9 active torsions:
REMARK  status: ('A' for Active; 'I' for Inactive)
REMARK    1  A    between atoms: C_1  and  C_2
REMARK    2  A    between atoms: C_3  and  C_33
REMARK    3  A    between atoms: C_4  and  O_31
REMARK    4  A    between atoms: C_7  and  C_8
REMARK    5  A    between atoms: N_22  and  C_23
REMARK    6  A    between atoms: C_23  and  C_24
REMARK    7  A    between atoms: C_27  and  C_29
REMARK    8  A    between atoms: C_29  and  O_30
REMARK    9  A    between atoms: O_31  and  C_32
REMARK                            x       y       z     vdW  Elec       q    Type
REMARK                         _______ _______ _______ _____ _____    ______ ____
ROOT
ATOM      1  C   UNL     1       0.185   0.172   2.423  0.00  0.00    +0.114 C 
ATOM      2  C   UNL     1       1.582   0.783   2.550  0.00  0.00    +0.128 C 
ATOM      3  C   UNL     1       2.542  -0.385   2.745  0.00  0.00    -0.035 C 
ATOM      4  C   UNL     1       3.474  -0.265   1.810  0.00  0.00    -0.001 A 
ATOM      5  C   UNL     1       4.702  -1.031   1.543  0.00  0.00    +0.010 A 
ATOM      6  C   UNL     1       5.436  -0.635   0.470  0.00  0.00    +0.001 A 
ATOM      7  C   UNL     1       5.075   0.435  -0.355  0.00  0.00    +0.002 A 
ATOM      8  C   UNL     1       3.967   1.198  -0.181  0.00  0.00    +0.026 A 
ATOM      9  C   UNL     1       3.118   0.882   0.919  0.00  0.00    +0.043 A 
ATOM     10  N   UNL     1       2.010   1.468   1.331  0.00  0.00    -0.376 N 
ATOM     11  C   UNL     1       2.289  -1.453   3.781  0.00  0.00    +0.049 C 
ATOM     12  C   UNL     1       0.819  -1.878   3.610  0.00  0.00    +0.090 C 
ATOM     13  N   UNL     1      -0.049  -0.697   3.587  0.00  0.00    -0.286 NA
ATOM     14  H   UNL     1       1.554   2.211   0.907  0.00  0.00    +0.160 HD
ENDROOT
BRANCH   1  21
ATOM     15  C   UNL     1      -1.940   0.668   0.531  0.00  0.00    +0.044 C 
ATOM     16  C   UNL     1      -0.918  -0.404   0.251  0.00  0.00    -0.039 A 
ATOM     17  C   UNL     1      -0.995  -1.144  -0.913  0.00  0.00    -0.006 A 
ATOM     18  C   UNL     1      -0.054  -2.130  -1.170  0.00  0.00    +0.123 A 
ATOM     19  C   UNL     1       0.963  -2.370  -0.257  0.00  0.00    +0.046 A 
ATOM     20  C   UNL     1       1.036  -1.627   0.905  0.00  0.00    +0.009 A 
ATOM     21  C   UNL     1       0.099  -0.641   1.157  0.00  0.00    -0.025 A 
ATOM     22  C   UNL     1      -2.101  -0.881  -1.902  0.00  0.00    +0.048 C 
BRANCH  18  23
ATOM     23  O   UNL     1      -0.128  -2.860  -2.313  0.00  0.00    -0.495 OA
ATOM     24  C   UNL     1       0.875  -3.859  -2.512  0.00  0.00    +0.277 C 
ENDBRANCH  18  23
ENDBRANCH   1  21
BRANCH  13  25
ATOM     25  C   UNL     1      -1.464  -1.079   3.683  0.00  0.00    +0.159 C 
BRANCH  25  26
ATOM     26  C   UNL     1      -1.713  -1.756   5.006  0.00  0.00    +0.119 A 
ATOM     27  C   UNL     1      -2.079  -1.144   6.146  0.00  0.00    +0.046 A 
ATOM     28  C   UNL     1      -2.201  -2.151   7.131  0.00  0.00    +0.047 A 
ATOM     29  C   UNL     1      -1.902  -3.319   6.534  0.00  0.00    +0.131 A 
ATOM     30  O   UNL     1      -1.613  -3.074   5.245  0.00  0.00    -0.461 OA
BRANCH  29  31
ATOM     31  C   UNL     1      -1.897  -4.672   7.196  0.00  0.00    +0.230 C 
BRANCH  31  32
ATOM     32  O   UNL     1      -3.192  -5.265   7.078  0.00  0.00    -0.387 OA
ATOM     33  H   UNL     1      -3.263  -6.140   7.484  0.00  0.00    +0.210 HD
ENDBRANCH  31  32
ENDBRANCH  29  31
ENDBRANCH  25  26
ENDBRANCH  13  25
TORSDOF 6
