REMARK  Name = ZINC39778106
REMARK  9 active torsions:
REMARK  status: ('A' for Active; 'I' for Inactive)
REMARK    1  A    between atoms: C_1  and  C_2
REMARK    2  A    between atoms: C_4  and  C_10
REMARK    3  A    between atoms: C_5  and  N_8
REMARK    4  A    between atoms: N_8  and  C_9
REMARK    5  A    between atoms: C_10  and  O_12
REMARK    6  A    between atoms: O_12  and  C_13
REMARK    7  A    between atoms: C_13  and  C_15
REMARK    8  A    between atoms: C_13  and  C_16
REMARK    9  A    between atoms: C_21  and  C_26
REMARK                            x       y       z     vdW  Elec       q    Type
REMARK                         _______ _______ _______ _____ _____    ______ ____
ROOT
ATOM      1  C   UNL     1      -2.398  -0.145  -3.551  0.00  0.00    +0.238 C 
ATOM      2  C   UNL     1      -2.204  -1.494  -4.245  0.00  0.00    +0.060 C 
ENDROOT
BRANCH   1   3
ATOM      3  C   UNL     1      -1.997   0.965  -4.489  0.00  0.00    +0.164 C 
ATOM      4  N   UNL     1      -1.299   0.665  -5.562  0.00  0.00    -0.158 NA
ATOM      5  C   UNL     1      -0.911   1.598  -6.436  0.00  0.00    +0.272 C 
ATOM      6  O   UNL     1      -0.263   1.296  -7.426  0.00  0.00    -0.268 OA
ATOM      7  C   UNL     1      -1.287   3.015  -6.173  0.00  0.00    +0.078 C 
ATOM      8  C   UNL     1      -0.984   4.123  -6.951  0.00  0.00    +0.020 C 
ATOM      9  C   UNL     1      -1.492   5.458  -6.453  0.00  0.00    +0.115 C 
ATOM     10  S   UNL     1      -2.354   4.960  -4.908  0.00  0.00    -0.100 S 
ATOM     11  C   UNL     1      -2.039   3.213  -4.984  0.00  0.00    +0.112 C 
ATOM     12  N   UNL     1      -2.364   2.202  -4.206  0.00  0.00    -0.224 NA
BRANCH   8  13
ATOM     13  C   UNL     1      -0.246   4.012  -8.136  0.00  0.00    +0.132 A 
ATOM     14  C   UNL     1      -0.707   4.288  -9.418  0.00  0.00    +0.049 A 
ATOM     15  C   UNL     1       0.361   4.041 -10.284  0.00  0.00    +0.042 A 
ATOM     16  C   UNL     1       1.409   3.633  -9.526  0.00  0.00    +0.195 A 
ATOM     17  O   UNL     1       1.043   3.622  -8.239  0.00  0.00    -0.463 OA
ENDBRANCH   8  13
ENDBRANCH   1   3
BRANCH   1  18
ATOM     18  O   UNL     1      -1.587  -0.092  -2.376  0.00  0.00    -0.451 OA
BRANCH  18  19
ATOM     19  C   UNL     1      -2.143  -0.531  -1.226  0.00  0.00    +0.340 C 
ATOM     20  O   UNL     1      -3.288  -0.948  -1.224  0.00  0.00    -0.245 OA
BRANCH  19  23
ATOM     21  C   UNL     1      -0.019   1.526   0.010  0.00  0.00    +0.030 C 
ATOM     22  C   UNL     1       0.002  -0.004   0.002  0.00  0.00    +0.101 C 
ATOM     23  C   UNL     1      -1.405  -0.507  -0.038  0.00  0.00    +0.082 C 
ATOM     24  C   UNL     1      -1.940  -0.948   1.157  0.00  0.00    +0.088 C 
ATOM     25  S   UNL     1      -0.619  -0.741   2.337  0.00  0.00    -0.027 S 
ATOM     26  N   UNL     1       0.736  -0.482   1.200  0.00  0.00    -0.251 NA
ATOM     27  H   UNL     1       1.365   0.228   1.546  0.00  0.00    +0.136 HD
BRANCH  24  28
ATOM     28  N   UNL     1      -3.202  -1.433   1.385  0.00  0.00    -0.340 N 
ATOM     29  C   UNL     1      -3.592  -1.856   2.733  0.00  0.00    +0.126 C 
ATOM     30  H   UNL     1      -3.836  -1.497   0.654  0.00  0.00    +0.146 HD
ENDBRANCH  24  28
ENDBRANCH  19  23
ENDBRANCH  18  19
ENDBRANCH   1  18
TORSDOF 6
