REMARK  Name = ZINC06940481
REMARK  16 active torsions:
REMARK  status: ('A' for Active; 'I' for Inactive)
REMARK    1  A    between atoms: C_1  and  C_2
REMARK    2  A    between atoms: C_5  and  N_9
REMARK    3  A    between atoms: C_7  and  C_8
REMARK    4  A    between atoms: C_10  and  C_12
REMARK    5  A    between atoms: C_12  and  O_13
REMARK    6  A    between atoms: O_13  and  C_14
REMARK    7  A    between atoms: C_14  and  C_16
REMARK    8  A    between atoms: C_18  and  C_22
REMARK    9  A    between atoms: C_20  and  C_21
REMARK   10  A    between atoms: C_22  and  C_24
REMARK   11  A    between atoms: C_22  and  O_32
REMARK   12  A    between atoms: C_24  and  C_26
REMARK   13  A    between atoms: C_24  and  O_31
REMARK   14  A    between atoms: C_26  and  C_28
REMARK   15  A    between atoms: C_26  and  O_30
REMARK   16  A    between atoms: C_28  and  O_29
REMARK                            x       y       z     vdW  Elec       q    Type
REMARK                         _______ _______ _______ _____ _____    ______ ____
ROOT
ATOM      1  C   UNL     1      -2.142   3.365  -2.481  0.00  0.00    +0.100 A 
ATOM      2  C   UNL     1      -1.841   3.160  -1.056  0.00  0.00    +0.062 A 
ATOM      3  C   UNL     1      -0.533   2.867  -0.994  0.00  0.00    +0.137 A 
ATOM      4  O   UNL     1      -0.019   2.880  -2.233  0.00  0.00    -0.461 OA
ATOM      5  C   UNL     1      -0.961   3.169  -3.137  0.00  0.00    +0.116 A 
ATOM      6  C   UNL     1      -0.753   3.268  -4.626  0.00  0.00    +0.087 C 
ENDROOT
BRANCH   1   7
ATOM      7  C   UNL     1      -3.444   3.708  -3.075  0.00  0.00    +0.343 C 
ATOM      8  O   UNL     1      -3.545   3.847  -4.278  0.00  0.00    -0.245 OA
BRANCH   7   9
ATOM      9  O   UNL     1      -4.524   3.868  -2.285  0.00  0.00    -0.452 OA
BRANCH   9  10
ATOM     10  C   UNL     1      -5.775   4.206  -2.940  0.00  0.00    +0.328 C 
BRANCH  10  12
ATOM     11  N   UNL     1      -8.118   4.656  -2.284  0.00  0.00    -0.283 N 
ATOM     12  C   UNL     1      -6.862   4.344  -1.905  0.00  0.00    +0.255 C 
ATOM     13  O   UNL     1      -6.607   4.174  -0.731  0.00  0.00    -0.272 OA
ATOM     14  H   UNL     1      -8.306   4.867  -3.212  0.00  0.00    +0.155 HD
BRANCH  11  19
ATOM     15  C   UNL     1     -12.299   4.737   1.550  0.00  0.00    +0.044 C 
ATOM     16  C   UNL     1     -11.188   4.715   0.531  0.00  0.00    -0.047 A 
ATOM     17  C   UNL     1     -10.149   3.812   0.663  0.00  0.00    +0.005 A 
ATOM     18  C   UNL     1      -9.133   3.786  -0.272  0.00  0.00    +0.023 A 
ATOM     19  C   UNL     1      -9.149   4.676  -1.338  0.00  0.00    +0.034 A 
ATOM     20  C   UNL     1     -10.194   5.581  -1.468  0.00  0.00    +0.027 A 
ATOM     21  C   UNL     1     -11.211   5.598  -0.533  0.00  0.00    -0.046 A 
ATOM     22  C   UNL     1     -12.345   6.580  -0.672  0.00  0.00    +0.044 C 
ENDBRANCH  11  19
ENDBRANCH  10  12
ENDBRANCH   9  10
ENDBRANCH   7   9
ENDBRANCH   1   7
BRANCH   3  23
ATOM     23  C   UNL     1       0.238   2.575   0.268  0.00  0.00    +0.211 C 
BRANCH  23  24
ATOM     24  O   UNL     1       1.525   3.190   0.193  0.00  0.00    -0.381 OA
ATOM     25  H   UNL     1       2.065   2.883  -0.549  0.00  0.00    +0.210 HD
ENDBRANCH  23  24
BRANCH  23  26
ATOM     26  C   UNL     1       0.404   1.062   0.426  0.00  0.00    +0.181 C 
BRANCH  26  27
ATOM     27  O   UNL     1      -0.884   0.447   0.502  0.00  0.00    -0.386 OA
ATOM     28  H   UNL     1      -1.424   0.754   1.243  0.00  0.00    +0.210 HD
ENDBRANCH  26  27
BRANCH  26  29
ATOM     29  C   UNL     1       1.186   0.766   1.707  0.00  0.00    +0.171 C 
BRANCH  29  30
ATOM     30  O   UNL     1       2.474   1.381   1.632  0.00  0.00    -0.387 OA
ATOM     31  H   UNL     1       3.013   1.074   0.890  0.00  0.00    +0.210 HD
ENDBRANCH  29  30
BRANCH  29  32
ATOM     32  C   UNL     1       1.352  -0.747   1.865  0.00  0.00    +0.189 C 
BRANCH  32  33
ATOM     33  O   UNL     1       1.980  -1.029   3.118  0.00  0.00    -0.392 OA
ATOM     34  H   UNL     1       2.117  -1.971   3.286  0.00  0.00    +0.210 HD
ENDBRANCH  32  33
ENDBRANCH  29  32
ENDBRANCH  26  29
ENDBRANCH  23  26
ENDBRANCH   3  23
TORSDOF 13
