REMARK  Name = ZINC01903143
REMARK  11 active torsions:
REMARK  status: ('A' for Active; 'I' for Inactive)
REMARK    1  A    between atoms: C_1  and  O_2
REMARK    2  A    between atoms: O_2  and  C_3
REMARK    3  A    between atoms: C_3  and  C_5
REMARK    4  A    between atoms: C_11  and  C_12
REMARK    5  A    between atoms: C_15  and  O_18
REMARK    6  A    between atoms: C_20  and  N_35
REMARK    7  A    between atoms: C_21  and  C_31
REMARK    8  A    between atoms: C_22  and  C_24
REMARK    9  A    between atoms: C_27  and  O_30
REMARK   10  A    between atoms: C_31  and  O_33
REMARK   11  A    between atoms: O_33  and  C_34
REMARK                            x       y       z     vdW  Elec       q    Type
REMARK                         _______ _______ _______ _____ _____    ______ ____
ROOT
ATOM      1  C   UNL     1      -0.167   1.517  -1.716  0.00  0.00    +0.079 C 
ATOM      2  C   UNL     1       1.042   2.107  -1.454  0.00  0.00    +0.100 A 
ATOM      3  N   UNL     1       2.257   1.460  -1.547  0.00  0.00    -0.257 N 
ATOM      4  C   UNL     1       3.367   2.169  -1.257  0.00  0.00    +0.271 A 
ATOM      5  O   UNL     1       4.468   1.655  -1.321  0.00  0.00    -0.266 OA
ATOM      6  C   UNL     1       3.216   3.574  -0.865  0.00  0.00    +0.079 A 
ATOM      7  C   UNL     1       4.167   4.483  -0.530  0.00  0.00    +0.028 C 
ATOM      8  S   UNL     1       1.442   3.766  -0.945  0.00  0.00    -0.065 S 
ATOM      9  C   UNL     1       2.286   0.117  -1.932  0.00  0.00    +0.115 C 
ATOM     10  C   UNL     1       1.180  -0.607  -2.226  0.00  0.00    +0.087 C 
ATOM     11  C   UNL     1      -0.177   0.061  -2.137  0.00  0.00    +0.099 C 
ENDROOT
BRANCH   7  12
ATOM     12  C   UNL     1       3.818   5.905  -0.419  0.00  0.00    -0.024 A 
ATOM     13  C   UNL     1       2.568   6.357  -0.859  0.00  0.00    +0.011 A 
ATOM     14  C   UNL     1       2.244   7.691  -0.748  0.00  0.00    +0.046 A 
ATOM     15  C   UNL     1       3.159   8.589  -0.212  0.00  0.00    +0.117 A 
ATOM     16  C   UNL     1       4.404   8.146   0.221  0.00  0.00    +0.046 A 
ATOM     17  C   UNL     1       4.736   6.814   0.121  0.00  0.00    +0.011 A 
BRANCH  15  18
ATOM     18  O   UNL     1       2.836   9.904  -0.110  0.00  0.00    -0.507 OA
ATOM     19  H   UNL     1       3.074  10.429  -0.886  0.00  0.00    +0.292 HD
ENDBRANCH  15  18
ENDBRANCH   7  12
BRANCH  11  20
ATOM     20  C   UNL     1      -0.839  -0.035  -3.487  0.00  0.00    -0.035 A 
ATOM     21  C   UNL     1      -0.307   0.645  -4.567  0.00  0.00    +0.008 A 
ATOM     22  C   UNL     1      -0.909   0.554  -5.807  0.00  0.00    +0.046 A 
ATOM     23  C   UNL     1      -2.055  -0.211  -5.966  0.00  0.00    +0.117 A 
ATOM     24  C   UNL     1      -2.590  -0.888  -4.880  0.00  0.00    +0.046 A 
ATOM     25  C   UNL     1      -1.981  -0.799  -3.643  0.00  0.00    +0.008 A 
BRANCH  23  26
ATOM     26  O   UNL     1      -2.652  -0.297  -7.184  0.00  0.00    -0.507 OA
ATOM     27  H   UNL     1      -3.322   0.383  -7.342  0.00  0.00    +0.292 HD
ENDBRANCH  23  26
ENDBRANCH  11  20
BRANCH   9  28
ATOM     28  N   UNL     1       3.504  -0.504  -2.018  0.00  0.00    -0.344 N 
ATOM     29  H   UNL     1       3.674  -1.145  -2.726  0.00  0.00    +0.144 HD
ATOM     30  H   UNL     1       4.198  -0.303  -1.370  0.00  0.00    +0.144 HD
ENDBRANCH   9  28
BRANCH   1  31
ATOM     31  C   UNL     1      -1.360   2.243  -1.604  0.00  0.00    +0.338 C 
ATOM     32  O   UNL     1      -1.333   3.413  -1.265  0.00  0.00    -0.245 OA
BRANCH  31  34
ATOM     33  C   UNL     1      -3.719   2.445  -1.738  0.00  0.00    +0.280 C 
ATOM     34  O   UNL     1      -2.542   1.645  -1.873  0.00  0.00    -0.465 OA
ENDBRANCH  31  34
ENDBRANCH   1  31
BRANCH  10  35
ATOM     35  C   UNL     1       1.289  -1.953  -2.606  0.00  0.00    +0.339 C 
ATOM     36  O   UNL     1       2.384  -2.483  -2.663  0.00  0.00    -0.245 OA
BRANCH  35  37
ATOM     37  O   UNL     1       0.179  -2.661  -2.909  0.00  0.00    -0.465 OA
ATOM     38  C   UNL     1       0.365  -4.027  -3.288  0.00  0.00    +0.280 C 
ENDBRANCH  35  37
ENDBRANCH  10  35
TORSDOF 9
