REMARK  Name = ZINC38745969
REMARK  8 active torsions:
REMARK  status: ('A' for Active; 'I' for Inactive)
REMARK    1  A    between atoms: C_1  and  O_2
REMARK    2  A    between atoms: O_2  and  C_3
REMARK    3  A    between atoms: C_6  and  C_9
REMARK    4  A    between atoms: C_11  and  C_15
REMARK    5  A    between atoms: C_19  and  C_24
REMARK    6  A    between atoms: C_24  and  C_25
REMARK    7  A    between atoms: C_24  and  C_31
REMARK    8  A    between atoms: C_24  and  O_37
REMARK                            x       y       z     vdW  Elec       q    Type
REMARK                         _______ _______ _______ _____ _____    ______ ____
ROOT
ATOM      1  C   UNL     1       2.486  -4.704  -6.883  0.00  0.00    +0.182 C 
ATOM      2  N   UNL     1       3.240  -4.956  -8.141  0.00  0.00    -0.265 N 
ATOM      3  N   UNL     1       3.897  -6.149  -8.189  0.00  0.00    -0.221 N 
ATOM      4  C   UNL     1       4.949  -6.702  -8.897  0.00  0.00    +0.192 A 
ATOM      5  N   UNL     1       5.085  -7.937  -8.517  0.00  0.00    -0.128 NA
ATOM      6  N   UNL     1       4.215  -8.218  -7.611  0.00  0.00    -0.121 NA
ATOM      7  C   UNL     1       3.493  -7.170  -7.367  0.00  0.00    +0.211 A 
ATOM      8  S   UNL     1       2.182  -6.457  -6.392  0.00  0.00    -0.058 S 
ATOM      9  H   UNL     1       2.646  -4.837  -8.948  0.00  0.00    +0.168 HD
ENDROOT
BRANCH   1  12
ATOM     10  C   UNL     1       2.496  -2.494  -4.366  0.00  0.00    +0.091 C 
ATOM     11  C   UNL     1       2.595  -3.827  -4.537  0.00  0.00    +0.034 C 
ATOM     12  C   UNL     1       3.343  -3.970  -5.850  0.00  0.00    +0.185 C 
ATOM     13  N   UNL     1       3.575  -2.575  -6.259  0.00  0.00    -0.177 NA
ATOM     14  N   UNL     1       3.080  -1.838  -5.403  0.00  0.00    -0.154 NA
BRANCH  10  18
ATOM     15  C   UNL     1       0.606  -0.607  -1.056  0.00  0.00    +0.120 A 
ATOM     16  C   UNL     1       1.173   0.164  -2.062  0.00  0.00    +0.046 A 
ATOM     17  C   UNL     1       1.786  -0.445  -3.136  0.00  0.00    +0.013 A 
ATOM     18  C   UNL     1       1.837  -1.836  -3.211  0.00  0.00    +0.002 A 
ATOM     19  C   UNL     1       1.267  -2.607  -2.199  0.00  0.00    +0.013 A 
ATOM     20  C   UNL     1       0.659  -1.993  -1.125  0.00  0.00    +0.046 A 
BRANCH  15  22
ATOM     21  C   UNL     1      -0.017   1.425   0.010  0.00  0.00    +0.277 C 
ATOM     22  O   UNL     1       0.002  -0.004   0.002  0.00  0.00    -0.495 OA
ENDBRANCH  15  22
ENDBRANCH  10  18
ENDBRANCH   1  12
BRANCH   4  23
ATOM     23  C   UNL     1       5.790  -5.995  -9.929  0.00  0.00    +0.177 C 
BRANCH  23  24
ATOM     24  C   UNL     1       6.830  -6.945 -10.465  0.00  0.00    -0.004 A 
ATOM     25  C   UNL     1       6.565  -8.300 -10.523  0.00  0.00    +0.007 A 
ATOM     26  C   UNL     1       7.518  -9.172 -11.015  0.00  0.00    +0.000 A 
ATOM     27  C   UNL     1       8.738  -8.688 -11.450  0.00  0.00    +0.000 A 
ATOM     28  C   UNL     1       9.004  -7.332 -11.393  0.00  0.00    +0.000 A 
ATOM     29  C   UNL     1       8.048  -6.460 -10.905  0.00  0.00    +0.007 A 
ENDBRANCH  23  24
BRANCH  23  30
ATOM     30  C   UNL     1       4.910  -5.525 -11.058  0.00  0.00    -0.004 A 
ATOM     31  C   UNL     1       3.763  -6.226 -11.378  0.00  0.00    +0.007 A 
ATOM     32  C   UNL     1       2.955  -5.794 -12.414  0.00  0.00    +0.000 A 
ATOM     33  C   UNL     1       3.295  -4.661 -13.129  0.00  0.00    +0.000 A 
ATOM     34  C   UNL     1       4.442  -3.959 -12.808  0.00  0.00    +0.000 A 
ATOM     35  C   UNL     1       5.247  -4.388 -11.770  0.00  0.00    +0.007 A 
ENDBRANCH  23  30
BRANCH  23  36
ATOM     36  O   UNL     1       6.437  -4.871  -9.329  0.00  0.00    -0.372 OA
ATOM     37  H   UNL     1       5.827  -4.217  -8.961  0.00  0.00    +0.212 HD
ENDBRANCH  23  36
ENDBRANCH   4  23
TORSDOF 7
