REMARK  Name = ZINC18286543
REMARK  5 active torsions:
REMARK  status: ('A' for Active; 'I' for Inactive)
REMARK    1  A    between atoms: C_3  and  N_11
REMARK    2  A    between atoms: C_6  and  C_7
REMARK    3  A    between atoms: C_15  and  N_19
REMARK    4  A    between atoms: C_22  and  C_25
REMARK    5  A    between atoms: C_22  and  N_28
REMARK                            x       y       z     vdW  Elec       q    Type
REMARK                         _______ _______ _______ _____ _____    ______ ____
ROOT
ATOM      1  N   UNL     1       6.928   3.295   1.100  0.00  0.00    -0.291 NA
ATOM      2  C   UNL     1       7.964   4.255   1.504  0.00  0.00    +0.084 C 
ATOM      3  C   UNL     1       8.474   3.897   2.902  0.00  0.00    +0.013 C 
ATOM      4  C   UNL     1       9.046   2.477   2.884  0.00  0.00    +0.015 C 
ATOM      5  C   UNL     1       7.961   1.504   2.413  0.00  0.00    +0.013 C 
ATOM      6  C   UNL     1       7.466   1.931   1.030  0.00  0.00    +0.084 C 
ENDROOT
BRANCH   1  11
ATOM      7  N   UNL     1       4.020   3.637  -0.541  0.00  0.00    -0.209 N 
ATOM      8  C   UNL     1       4.275   4.937  -0.346  0.00  0.00    +0.228 C 
ATOM      9  O   UNL     1       3.450   5.825  -0.367  0.00  0.00    -0.275 OA
ATOM     10  C   UNL     1       5.755   5.121  -0.094  0.00  0.00    +0.125 C 
ATOM     11  C   UNL     1       6.318   3.687  -0.178  0.00  0.00    +0.153 C 
ATOM     12  C   UNL     1       5.095   2.843  -0.463  0.00  0.00    +0.244 C 
ATOM     13  O   UNL     1       5.090   1.639  -0.602  0.00  0.00    -0.273 OA
BRANCH   7  16
ATOM     14  C   UNL     1       0.866   1.779  -0.173  0.00  0.00    +0.014 A 
ATOM     15  C   UNL     1       2.135   2.259   0.084  0.00  0.00    +0.024 A 
ATOM     16  C   UNL     1       2.732   3.147  -0.800  0.00  0.00    +0.044 A 
ATOM     17  C   UNL     1       2.051   3.550  -1.941  0.00  0.00    +0.024 A 
ATOM     18  C   UNL     1       0.782   3.066  -2.193  0.00  0.00    +0.014 A 
ATOM     19  C   UNL     1       0.190   2.182  -1.310  0.00  0.00    +0.055 A 
BRANCH  19  20
ATOM     20  C   UNL     1      -1.194   1.655  -1.589  0.00  0.00    +0.417 C 
ATOM     21  F   UNL     1      -2.142   2.505  -1.008  0.00  0.00    -0.166 F 
ATOM     22  F   UNL     1      -1.403   1.600  -2.971  0.00  0.00    -0.166 F 
ATOM     23  F   UNL     1      -1.323   0.372  -1.046  0.00  0.00    -0.166 F 
ENDBRANCH  19  20
ENDBRANCH   7  16
ENDBRANCH   1  11
BRANCH   4  24
ATOM     24  N   UNL     1       9.484   2.107   4.237  0.00  0.00    +0.389 N 
ATOM     25  C   UNL     1      10.490   3.068   4.704  0.00  0.00    -0.077 C 
ATOM     26  C   UNL     1      10.890   2.735   6.143  0.00  0.00    -0.019 C 
ATOM     27  C   UNL     1      11.473   1.320   6.189  0.00  0.00    -0.004 C 
ATOM     28  C   UNL     1      10.443   0.335   5.630  0.00  0.00    -0.019 C 
ATOM     29  C   UNL     1      10.059   0.757   4.211  0.00  0.00    -0.077 C 
ATOM     30  H   UNL     1       8.692   2.122   4.861  0.00  0.00    -0.080 HD
ENDBRANCH   4  24
BRANCH   4  31
ATOM     31  C   UNL     1      10.219   2.419   1.940  0.00  0.00    +0.200 C 
ATOM     32  O   UNL     1      10.746   3.444   1.563  0.00  0.00    -0.278 OA
ATOM     33  N   UNL     1      10.683   1.227   1.514  0.00  0.00    -0.330 N 
ATOM     34  H   UNL     1      10.308   0.406   1.869  0.00  0.00    +0.145 HD
ATOM     35  H   UNL     1      11.392   1.191   0.853  0.00  0.00    +0.145 HD
ENDBRANCH   4  31
TORSDOF 5
