REMARK  Name = ZINC35671673
REMARK  14 active torsions:
REMARK  status: ('A' for Active; 'I' for Inactive)
REMARK    1  A    between atoms: C_1  and  C_2
REMARK    2  A    between atoms: C_5  and  N_8
REMARK    3  A    between atoms: C_10  and  C_28
REMARK    4  A    between atoms: N_13  and  C_14
REMARK    5  A    between atoms: C_14  and  C_16
REMARK    6  A    between atoms: C_16  and  N_17
REMARK    7  A    between atoms: N_17  and  C_18
REMARK    8  A    between atoms: C_18  and  C_19
REMARK    9  A    between atoms: C_19  and  N_20
REMARK   10  A    between atoms: N_20  and  C_21
REMARK   11  A    between atoms: N_20  and  C_22
REMARK   12  A    between atoms: C_23  and  C_25
REMARK   13  A    between atoms: C_25  and  C_26
REMARK   14  A    between atoms: C_25  and  C_27
REMARK                            x       y       z     vdW  Elec       q    Type
REMARK                         _______ _______ _______ _____ _____    ______ ____
ROOT
ATOM      1  N   UNL     1      -0.408  -1.161   2.037  0.00  0.00    -0.287 N 
ATOM      2  C   UNL     1      -0.141  -1.304   0.691  0.00  0.00    +0.120 A 
ATOM      3  C   UNL     1       0.216  -2.582   0.470  0.00  0.00    +0.066 A 
ATOM      4  N   UNL     1       0.175  -3.253   1.686  0.00  0.00    -0.326 N 
ATOM      5  C   UNL     1      -0.204  -2.364   2.640  0.00  0.00    +0.205 A 
ATOM      6  N   UNL     1      -0.355  -2.624   3.938  0.00  0.00    -0.145 NA
ATOM      7  H   UNL     1       0.384  -4.189   1.829  0.00  0.00    +0.169 HD
ENDROOT
BRANCH   1  12
ATOM      8  C   UNL     1      -2.045   3.621   4.615  0.00  0.00    +0.044 C 
ATOM      9  C   UNL     1      -1.610   2.351   3.931  0.00  0.00    -0.050 A 
ATOM     10  C   UNL     1      -1.381   2.346   2.567  0.00  0.00    +0.005 A 
ATOM     11  C   UNL     1      -0.983   1.184   1.936  0.00  0.00    +0.026 A 
ATOM     12  C   UNL     1      -0.811   0.019   2.673  0.00  0.00    +0.049 A 
ATOM     13  C   UNL     1      -1.042   0.028   4.043  0.00  0.00    +0.026 A 
ATOM     14  C   UNL     1      -1.435   1.195   4.668  0.00  0.00    +0.005 A 
ENDBRANCH   1  12
BRANCH   3  15
ATOM     15  C   UNL     1       0.585  -3.170  -0.837  0.00  0.00    -0.000 A 
ATOM     16  C   UNL     1       0.590  -2.377  -1.985  0.00  0.00    +0.010 A 
ATOM     17  C   UNL     1       0.935  -2.931  -3.201  0.00  0.00    +0.001 A 
ATOM     18  C   UNL     1       1.277  -4.269  -3.282  0.00  0.00    +0.000 A 
ATOM     19  C   UNL     1       1.274  -5.061  -2.147  0.00  0.00    +0.001 A 
ATOM     20  C   UNL     1       0.937  -4.517  -0.925  0.00  0.00    +0.010 A 
ENDBRANCH   3  15
BRANCH   6  21
ATOM     21  C   UNL     1      -0.123  -3.847   4.401  0.00  0.00    +0.256 C 
ATOM     22  O   UNL     1       0.226  -4.729   3.640  0.00  0.00    -0.272 OA
BRANCH  21  23
ATOM     23  C   UNL     1      -0.293  -4.141   5.869  0.00  0.00    +0.205 C 
BRANCH  23  24
ATOM     24  N   UNL     1       0.020  -5.549   6.124  0.00  0.00    -0.294 N 
ATOM     25  C   UNL     1      -0.962  -6.473   6.100  0.00  0.00    +0.218 C 
ATOM     26  O   UNL     1      -0.720  -7.623   6.401  0.00  0.00    -0.275 OA
BRANCH  25  27
ATOM     27  C   UNL     1      -2.359  -6.077   5.698  0.00  0.00    +0.069 C 
ATOM     28  C   UNL     1      -2.560  -6.357   4.208  0.00  0.00    +0.017 C 
ATOM     29  C   UNL     1      -3.372  -6.886   6.511  0.00  0.00    +0.017 C 
ENDBRANCH  25  27
BRANCH  24  30
ATOM     30  C   UNL     1       1.399  -5.954   6.406  0.00  0.00    +0.090 C 
BRANCH  30  31
ATOM     31  C   UNL     1       1.652  -5.890   7.914  0.00  0.00    -0.060 C 
BRANCH  31  32
ATOM     32  N   UNL     1       3.035  -6.295   8.196  0.00  0.00    +0.377 N 
ATOM     33  C   UNL     1       3.314  -6.120   9.628  0.00  0.00    -0.097 C 
ATOM     34  C   UNL     1       3.216  -7.707   7.832  0.00  0.00    -0.097 C 
ATOM     35  H   UNL     1       3.670  -5.725   7.658  0.00  0.00    -0.083 HD
ENDBRANCH  31  32
ENDBRANCH  30  31
ENDBRANCH  24  30
ENDBRANCH  23  24
ENDBRANCH  21  23
ENDBRANCH   6  21
TORSDOF 9
