REMARK  Name = ZINC09994090
REMARK  12 active torsions:
REMARK  status: ('A' for Active; 'I' for Inactive)
REMARK    1  A    between atoms: C_1  and  C_2
REMARK    2  A    between atoms: C_5  and  C_8
REMARK    3  A    between atoms: C_10  and  C_11
REMARK    4  A    between atoms: C_11  and  C_12
REMARK    5  A    between atoms: C_15  and  O_19
REMARK    6  A    between atoms: C_16  and  C_18
REMARK    7  A    between atoms: O_19  and  C_20
REMARK    8  A    between atoms: C_20  and  C_21
REMARK    9  A    between atoms: C_31  and  C_38
REMARK   10  A    between atoms: C_32  and  C_34
REMARK   11  A    between atoms: C_34  and  O_36
REMARK   12  A    between atoms: O_36  and  C_37
REMARK                            x       y       z     vdW  Elec       q    Type
REMARK                         _______ _______ _______ _____ _____    ______ ____
ROOT
ATOM      1  C   UNL     1       0.194  -3.668  -0.022  0.00  0.00    +0.152 C 
ATOM      2  C   UNL     1       1.413  -4.555   0.082  0.00  0.00    +0.077 C 
ATOM      3  C   UNL     1       1.202  -5.387   1.129  0.00  0.00    +0.250 C 
ATOM      4  O   UNL     1       2.062  -6.340   1.558  0.00  0.00    -0.282 OA
ATOM      5  C   UNL     1      -0.114  -5.089   1.728  0.00  0.00    +0.293 C 
ATOM      6  O   UNL     1      -0.590  -5.666   2.686  0.00  0.00    -0.266 OA
ATOM      7  N   UNL     1      -0.708  -4.085   1.058  0.00  0.00    -0.232 N 
ATOM      8  C   UNL     1      -1.947  -3.541   1.339  0.00  0.00    +0.169 A 
ATOM      9  N   UNL     1      -2.788  -3.877   2.300  0.00  0.00    -0.229 NA
ATOM     10  C   UNL     1      -3.937  -3.269   2.447  0.00  0.00    +0.062 A 
ATOM     11  C   UNL     1      -4.219  -2.256   1.539  0.00  0.00    +0.120 A 
ATOM     12  S   UNL     1      -2.738  -2.288   0.541  0.00  0.00    -0.045 S 
ATOM     13  C   UNL     1      -4.902  -3.647   3.541  0.00  0.00    +0.067 C 
ENDROOT
BRANCH   1  18
ATOM     14  C   UNL     1       1.694   1.869   0.666  0.00  0.00    +0.044 C 
ATOM     15  C   UNL     1       1.303   0.425   0.486  0.00  0.00    -0.050 A 
ATOM     16  C   UNL     1       1.028  -0.065  -0.777  0.00  0.00    +0.004 A 
ATOM     17  C   UNL     1       0.669  -1.389  -0.942  0.00  0.00    +0.006 A 
ATOM     18  C   UNL     1       0.586  -2.224   0.157  0.00  0.00    -0.022 A 
ATOM     19  C   UNL     1       0.862  -1.735   1.420  0.00  0.00    +0.006 A 
ATOM     20  C   UNL     1       1.224  -0.411   1.584  0.00  0.00    +0.004 A 
ENDBRANCH   1  18
BRANCH   2  21
ATOM     21  C   UNL     1       2.596  -4.520  -0.784  0.00  0.00    +0.195 C 
ATOM     22  O   UNL     1       3.680  -4.219  -0.320  0.00  0.00    -0.287 OA
BRANCH  21  23
ATOM     23  C   UNL     1       2.472  -4.850  -2.217  0.00  0.00    +0.023 A 
ATOM     24  C   UNL     1       1.253  -5.305  -2.729  0.00  0.00    +0.015 A 
ATOM     25  C   UNL     1       1.141  -5.611  -4.066  0.00  0.00    +0.046 A 
ATOM     26  C   UNL     1       2.240  -5.470  -4.908  0.00  0.00    +0.124 A 
ATOM     27  C   UNL     1       3.454  -5.018  -4.403  0.00  0.00    -0.008 A 
ATOM     28  C   UNL     1       3.572  -4.703  -3.068  0.00  0.00    +0.018 A 
ATOM     29  C   UNL     1       4.640  -4.867  -5.319  0.00  0.00    +0.047 C 
BRANCH  26  30
ATOM     30  O   UNL     1       2.126  -5.773  -6.225  0.00  0.00    -0.488 OA
BRANCH  30  31
ATOM     31  C   UNL     1       0.850  -6.232  -6.678  0.00  0.00    +0.256 C 
BRANCH  31  32
ATOM     32  C   UNL     1       0.914  -6.518  -8.156  0.00  0.00    +0.006 C 
ATOM     33  C   UNL     1       0.387  -7.618  -8.634  0.00  0.00    +0.007 C 
ENDBRANCH  31  32
ENDBRANCH  30  31
ENDBRANCH  26  30
ENDBRANCH  21  23
ENDBRANCH   2  21
BRANCH  11  34
ATOM     34  C   UNL     1      -5.397  -1.398   1.434  0.00  0.00    +0.347 C 
ATOM     35  O   UNL     1      -6.316  -1.526   2.221  0.00  0.00    -0.244 OA
BRANCH  34  36
ATOM     36  O   UNL     1      -5.467  -0.463   0.463  0.00  0.00    -0.464 OA
ATOM     37  C   UNL     1      -6.648   0.340   0.419  0.00  0.00    +0.280 C 
ENDBRANCH  34  36
ENDBRANCH  11  34
TORSDOF 8
