REMARK  Name = ZINC39451696
REMARK  6 active torsions:
REMARK  status: ('A' for Active; 'I' for Inactive)
REMARK    1  A    between atoms: C_1  and  C_2
REMARK    2  A    between atoms: C_2  and  O_3
REMARK    3  A    between atoms: O_3  and  C_4
REMARK    4  A    between atoms: C_14  and  O_17
REMARK    5  A    between atoms: N_20  and  C_21
REMARK    6  A    between atoms: C_21  and  C_22
REMARK                            x       y       z     vdW  Elec       q    Type
REMARK                         _______ _______ _______ _____ _____    ______ ____
ROOT
ATOM      1  C   UNL     1      -1.580  -1.859   0.379  0.00  0.00    +0.211 C 
ATOM      2  C   UNL     1      -3.014  -2.293   0.052  0.00  0.00    +0.132 C 
ATOM      3  C   UNL     1      -3.109  -3.794   0.123  0.00  0.00    +0.185 C 
ATOM      4  O   UNL     1      -3.909  -4.380  -0.578  0.00  0.00    -0.290 OA
ATOM      5  C   UNL     1      -2.276  -4.528   0.998  0.00  0.00    +0.111 A 
ATOM      6  C   UNL     1      -1.324  -3.870   1.753  0.00  0.00    +0.083 A 
ATOM      7  C   UNL     1      -0.463  -4.631   2.668  0.00  0.00    +0.099 A 
ATOM      8  C   UNL     1      -0.636  -6.032   2.735  0.00  0.00    +0.070 A 
ATOM      9  C   UNL     1       0.169  -6.778   3.594  0.00  0.00    +0.062 A 
ATOM     10  C   UNL     1       1.115  -6.100   4.353  0.00  0.00    +0.136 A 
ATOM     11  C   UNL     1       1.226  -4.716   4.234  0.00  0.00    +0.156 A 
ATOM     12  N   UNL     1       0.456  -4.033   3.415  0.00  0.00    -0.249 NA
ATOM     13  C   UNL     1      -1.664  -6.662   1.894  0.00  0.00    +0.262 A 
ATOM     14  O   UNL     1      -1.828  -7.868   1.935  0.00  0.00    -0.267 OA
ATOM     15  N   UNL     1      -2.423  -5.908   1.079  0.00  0.00    -0.299 N 
ATOM     16  N   UNL     1      -1.181  -2.500   1.641  0.00  0.00    -0.315 N 
ATOM     17  H   UNL     1      -0.827  -1.974   2.375  0.00  0.00    +0.149 HD
ENDROOT
BRANCH  10  18
ATOM     18  O   UNL     1       1.923  -6.780   5.206  0.00  0.00    -0.505 OA
ATOM     19  H   UNL     1       2.751  -7.081   4.808  0.00  0.00    +0.292 HD
ENDBRANCH  10  18
BRANCH   1  20
ATOM     20  O   UNL     1      -1.528  -0.438   0.522  0.00  0.00    -0.359 OA
BRANCH  20  22
ATOM     21  C   UNL     1      -0.269   1.620   0.664  0.00  0.00    +0.034 C 
ATOM     22  C   UNL     1      -0.204   0.100   0.504  0.00  0.00    +0.159 C 
ENDBRANCH  20  22
ENDBRANCH   1  20
BRANCH  15  23
ATOM     23  C   UNL     1      -3.439  -6.562   0.250  0.00  0.00    +0.160 C 
BRANCH  23  24
ATOM     24  C   UNL     1      -4.743  -6.618   1.004  0.00  0.00    -0.028 A 
ATOM     25  C   UNL     1      -4.965  -7.623   1.927  0.00  0.00    +0.005 A 
ATOM     26  C   UNL     1      -6.161  -7.674   2.619  0.00  0.00    +0.000 A 
ATOM     27  C   UNL     1      -7.134  -6.720   2.388  0.00  0.00    +0.000 A 
ATOM     28  C   UNL     1      -6.911  -5.714   1.466  0.00  0.00    +0.000 A 
ATOM     29  C   UNL     1      -5.714  -5.660   0.778  0.00  0.00    +0.005 A 
ENDBRANCH  23  24
ENDBRANCH  15  23
TORSDOF 5
