REMARK  Name = ZINC36743333
REMARK  7 active torsions:
REMARK  status: ('A' for Active; 'I' for Inactive)
REMARK    1  A    between atoms: C_1  and  C_2
REMARK    2  A    between atoms: C_2  and  C_3
REMARK    3  A    between atoms: C_3  and  C_4
REMARK    4  A    between atoms: C_4  and  S_5
REMARK    5  A    between atoms: S_5  and  N_8
REMARK    6  A    between atoms: N_8  and  C_9
REMARK    7  A    between atoms: C_14  and  N_15
REMARK                            x       y       z     vdW  Elec       q    Type
REMARK                         _______ _______ _______ _____ _____    ______ ____
ROOT
ATOM      1  C   UNL     1      -2.280  -4.987   1.049  0.00  0.00    +0.072 A 
ATOM      2  C   UNL     1      -2.451  -4.561   2.359  0.00  0.00    +0.075 A 
ATOM      3  C   UNL     1      -1.778  -5.204   3.384  0.00  0.00    +0.164 A 
ATOM      4  C   UNL     1      -0.934  -6.269   3.106  0.00  0.00    +0.164 A 
ATOM      5  C   UNL     1      -0.758  -6.697   1.800  0.00  0.00    +0.074 A 
ATOM      6  C   UNL     1      -1.435  -6.060   0.770  0.00  0.00    +0.051 A 
ATOM      7  O   UNL     1      -0.276  -6.893   4.128  0.00  0.00    -0.488 OA
ATOM      8  C   UNL     1       0.736  -6.125   4.781  0.00  0.00    +0.232 C 
ATOM      9  C   UNL     1       0.130  -5.242   5.861  0.00  0.00    +0.082 C 
ATOM     10  C   UNL     1      -0.802  -4.186   5.289  0.00  0.00    +0.232 C 
ATOM     11  O   UNL     1      -1.942  -4.794   4.677  0.00  0.00    -0.488 OA
ENDROOT
BRANCH   6  12
ATOM     12  N   UNL     1      -1.266  -6.493  -0.553  0.00  0.00    -0.356 N 
ATOM     13  H   UNL     1      -1.737  -6.046  -1.274  0.00  0.00    +0.142 HD
ATOM     14  H   UNL     1      -0.679  -7.240  -0.748  0.00  0.00    +0.142 HD
ENDBRANCH   6  12
BRANCH   1  15
ATOM     15  N   UNL     1      -2.960  -4.340   0.007  0.00  0.00    -0.219 N 
ATOM     16  H   UNL     1      -3.279  -4.850  -0.754  0.00  0.00    +0.173 HD
BRANCH  15  17
ATOM     17  S   UNL     1      -3.218  -2.706   0.075  0.00  0.00    +0.043 S 
ATOM     18  O   UNL     1      -3.901  -2.498   1.304  0.00  0.00    -0.155 OA
ATOM     19  O   UNL     1      -3.839  -2.385  -1.162  0.00  0.00    -0.155 OA
BRANCH  17  20
ATOM     20  C   UNL     1      -1.560  -1.974   0.150  0.00  0.00    +0.188 C 
BRANCH  20  21
ATOM     21  C   UNL     1      -1.677  -0.450   0.217  0.00  0.00    +0.024 C 
BRANCH  21  23
ATOM     22  C   UNL     1      -0.396   1.691   0.347  0.00  0.00    +0.004 C 
ATOM     23  C   UNL     1      -0.279   0.167   0.280  0.00  0.00    -0.002 C 
ENDBRANCH  21  23
ENDBRANCH  20  21
ENDBRANCH  17  20
ENDBRANCH  15  17
ENDBRANCH   1  15
TORSDOF 6
