REMARK  Name = ZINC18045175
REMARK  12 active torsions:
REMARK  status: ('A' for Active; 'I' for Inactive)
REMARK    1  A    between atoms: C_1  and  C_2
REMARK    2  A    between atoms: C_5  and  S_31
REMARK    3  A    between atoms: C_7  and  N_8
REMARK    4  A    between atoms: C_9  and  C_11
REMARK    5  A    between atoms: C_11  and  O_12
REMARK    6  A    between atoms: O_12  and  C_13
REMARK    7  A    between atoms: C_13  and  C_15
REMARK    8  A    between atoms: C_24  and  N_27
REMARK    9  A    between atoms: C_28  and  C_30
REMARK   10  A    between atoms: S_31  and  N_34
REMARK   11  A    between atoms: N_34  and  C_35
REMARK   12  A    between atoms: N_34  and  C_36
REMARK                            x       y       z     vdW  Elec       q    Type
REMARK                         _______ _______ _______ _____ _____    ______ ____
ROOT
ATOM      1  C   UNL     1      -1.516   3.711   5.192  0.00  0.00    +0.328 C 
ENDROOT
BRANCH   1   3
ATOM      2  N   UNL     1      -2.187   5.813   6.310  0.00  0.00    -0.282 N 
ATOM      3  C   UNL     1      -1.585   5.214   5.263  0.00  0.00    +0.255 C 
ATOM      4  O   UNL     1      -1.100   5.886   4.377  0.00  0.00    -0.272 OA
ATOM      5  H   UNL     1      -2.706   5.206   7.066  0.00  0.00    +0.155 HD
BRANCH   2  12
ATOM      6  C   UNL     1      -4.245   7.081   7.811  0.00  0.00    +0.045 C 
ATOM      7  C   UNL     1      -3.136   7.865   7.159  0.00  0.00    -0.029 A 
ATOM      8  C   UNL     1      -3.097   9.241   7.280  0.00  0.00    +0.007 A 
ATOM      9  C   UNL     1      -2.079   9.961   6.683  0.00  0.00    +0.029 A 
ATOM     10  C   UNL     1      -1.097   9.307   5.962  0.00  0.00    +0.107 A 
ATOM     11  C   UNL     1      -1.127   7.932   5.841  0.00  0.00    +0.052 A 
ATOM     12  C   UNL     1      -2.151   7.206   6.435  0.00  0.00    +0.038 A 
BRANCH  10  13
ATOM     13  S   UNL     1       0.198  10.229   5.202  0.00  0.00    +0.060 S 
ATOM     14  O   UNL     1       0.687   9.436   4.130  0.00  0.00    -0.153 OA
ATOM     15  O   UNL     1      -0.300  11.546   5.010  0.00  0.00    -0.153 OA
BRANCH  13  16
ATOM     16  N   UNL     1       1.429  10.345   6.304  0.00  0.00    -0.183 NA
ATOM     17  C   UNL     1       2.476   9.322   6.343  0.00  0.00    +0.131 C 
ATOM     18  C   UNL     1       1.470  11.472   7.240  0.00  0.00    +0.131 C 
ENDBRANCH  13  16
ENDBRANCH  10  13
ENDBRANCH   2  12
ENDBRANCH   1   3
BRANCH   1  19
ATOM     19  O   UNL     1      -0.825   3.315   3.978  0.00  0.00    -0.455 OA
BRANCH  19  20
ATOM     20  C   UNL     1      -0.677   1.998   3.763  0.00  0.00    +0.314 C 
ATOM     21  O   UNL     1      -1.112   1.203   4.562  0.00  0.00    -0.250 OA
BRANCH  20  22
ATOM     22  C   UNL     1       0.030   1.512   2.524  0.00  0.00    +0.070 C 
ATOM     23  C   UNL     1      -0.715   2.008   1.283  0.00  0.00    +0.021 C 
ATOM     24  C   UNL     1       0.003   1.515   0.025  0.00  0.00    -0.008 C 
ATOM     25  C   UNL     1       1.434   2.054   0.011  0.00  0.00    +0.007 C 
ATOM     26  C   UNL     1       2.179   1.557   1.251  0.00  0.00    -0.008 C 
ATOM     27  C   UNL     1       1.461   2.051   2.509  0.00  0.00    +0.021 C 
ATOM     28  C   UNL     1       2.211   0.028   1.249  0.00  0.00    +0.029 C 
ATOM     29  C   UNL     1       0.779  -0.512   1.264  0.00  0.00    +0.036 C 
ATOM     30  C   UNL     1       0.034  -0.015   0.023  0.00  0.00    +0.029 C 
ATOM     31  C   UNL     1       0.061  -0.018   2.522  0.00  0.00    +0.043 C 
BRANCH  29  32
ATOM     32  N   UNL     1       0.809  -1.976   1.262  0.00  0.00    -0.310 N 
ATOM     33  C   UNL     1      -0.344  -2.674   1.274  0.00  0.00    +0.210 C 
ATOM     34  O   UNL     1      -1.407  -2.089   1.286  0.00  0.00    -0.276 OA
ATOM     35  C   UNL     1      -0.314  -4.181   1.271  0.00  0.00    +0.109 C 
ATOM     36  H   UNL     1       1.772  -2.507   1.251  0.00  0.00    +0.149 HD
ENDBRANCH  29  32
ENDBRANCH  20  22
ENDBRANCH  19  20
ENDBRANCH   1  19
TORSDOF 8
