REMARK  Name = ZINC00211640
REMARK  6 active torsions:
REMARK  status: ('A' for Active; 'I' for Inactive)
REMARK    1  A    between atoms: C_1  and  C_2
REMARK    2  A    between atoms: C_4  and  N_18
REMARK    3  A    between atoms: C_8  and  N_11
REMARK    4  A    between atoms: C_12  and  C_14
REMARK    5  A    between atoms: C_14  and  C_15
REMARK    6  A    between atoms: C_15  and  C_16
REMARK                            x       y       z     vdW  Elec       q    Type
REMARK                         _______ _______ _______ _____ _____    ______ ____
ROOT
ATOM      1  C   UNL     1      -6.154   3.097  -0.352  0.00  0.00    +0.044 C 
ATOM      2  C   UNL     1      -6.022   1.596  -0.347  0.00  0.00    -0.038 A 
ATOM      3  C   UNL     1      -7.122   0.798  -0.433  0.00  0.00    +0.045 A 
ATOM      4  C   UNL     1      -6.976  -0.596  -0.427  0.00  0.00    +0.100 A 
ATOM      5  C   UNL     1      -4.674  -0.432  -0.254  0.00  0.00    +0.048 A 
ATOM      6  C   UNL     1      -4.756   0.982  -0.255  0.00  0.00    +0.003 A 
ATOM      7  C   UNL     1      -3.583   1.746  -0.163  0.00  0.00    +0.033 A 
ATOM      8  C   UNL     1      -2.364   1.109  -0.073  0.00  0.00    +0.034 A 
ATOM      9  C   UNL     1      -2.290  -0.288  -0.079  0.00  0.00    +0.025 A 
ATOM     10  C   UNL     1      -3.414  -1.048  -0.162  0.00  0.00    +0.028 A 
ATOM     11  N   UNL     1      -5.786  -1.241  -0.340  0.00  0.00    -0.343 N 
ATOM     12  H   UNL     1      -5.718  -2.266  -0.338  0.00  0.00    +0.167 HD
ENDROOT
BRANCH   4  13
ATOM     13  N   UNL     1      -8.106  -1.397  -0.515  0.00  0.00    -0.312 N 
ATOM     14  C   UNL     1      -9.058  -1.084   0.560  0.00  0.00    +0.134 C 
ATOM     15  C   UNL     1     -10.312  -1.946   0.391  0.00  0.00    +0.178 C 
ATOM     16  O   UNL     1      -9.939  -3.326   0.382  0.00  0.00    -0.377 OA
ATOM     17  C   UNL     1      -9.013  -3.666  -0.653  0.00  0.00    +0.178 C 
ATOM     18  C   UNL     1      -7.745  -2.822  -0.494  0.00  0.00    +0.134 C 
ENDBRANCH   4  13
BRANCH   8  19
ATOM     19  N   UNL     1      -1.191   1.867   0.018  0.00  0.00    -0.285 N 
ATOM     20  C   UNL     1      -0.148   1.410   0.741  0.00  0.00    +0.218 C 
ATOM     21  O   UNL     1      -0.260   0.392   1.389  0.00  0.00    -0.275 OA
ATOM     22  H   UNL     1      -1.127   2.720  -0.439  0.00  0.00    +0.155 HD
BRANCH  20  23
ATOM     23  C   UNL     1       1.157   2.163   0.738  0.00  0.00    +0.107 C 
BRANCH  23  24
ATOM     24  C   UNL     1       2.168   1.434   1.626  0.00  0.00    +0.134 C 
BRANCH  24  25
ATOM     25  C   UNL     1       3.474   2.186   1.623  0.00  0.00    +0.356 C 
ATOM     26  O   UNL     1       3.585   3.201   0.977  0.00  0.00    -0.246 OA
ATOM     27  O   UNL     1       4.513   1.728   2.339  0.00  0.00    -0.246 OA
ENDBRANCH  24  25
ENDBRANCH  23  24
ENDBRANCH  20  23
ENDBRANCH   8  19
TORSDOF 5
