REMARK  Name = ZINC51149562
REMARK  6 active torsions:
REMARK  status: ('A' for Active; 'I' for Inactive)
REMARK    1  A    between atoms: C_1  and  C_2
REMARK    2  A    between atoms: C_9  and  O_12
REMARK    3  A    between atoms: O_12  and  C_13
REMARK    4  A    between atoms: C_13  and  C_14
REMARK    5  A    between atoms: C_15  and  N_19
REMARK    6  A    between atoms: N_19  and  N_20
REMARK                            x       y       z     vdW  Elec       q    Type
REMARK                         _______ _______ _______ _____ _____    ______ ____
ROOT
ATOM      1  O   UNL     1       0.046  -1.980   3.588  0.00  0.00    -0.484 OA
ENDROOT
BRANCH   1  10
ATOM      2  C   UNL     1      -0.018   1.503   0.010  0.00  0.00    +0.065 C 
ATOM      3  C   UNL     1       0.002  -0.004   0.002  0.00  0.00    +0.039 A 
ATOM      4  C   UNL     1       0.005  -0.676  -1.219  0.00  0.00    +0.023 A 
ATOM      5  C   UNL     1       0.024  -2.041  -1.245  0.00  0.00    +0.012 A 
ATOM      6  C   UNL     1       0.039  -2.729  -0.017  0.00  0.00    +0.004 A 
ATOM      7  C   UNL     1       0.059  -4.132   0.035  0.00  0.00    +0.010 A 
ATOM      8  C   UNL     1       0.074  -4.763   1.241  0.00  0.00    +0.004 A 
ATOM      9  C   UNL     1       0.070  -4.037   2.429  0.00  0.00    +0.048 A 
ATOM     10  C   UNL     1       0.050  -2.672   2.419  0.00  0.00    +0.147 A 
ATOM     11  C   UNL     1       0.035  -1.984   1.187  0.00  0.00    +0.113 A 
ATOM     12  N   UNL     1       0.022  -0.648   1.143  0.00  0.00    -0.248 NA
ENDBRANCH   1  10
BRANCH   1  13
ATOM     13  C   UNL     1       0.062  -2.745   4.795  0.00  0.00    +0.289 C 
BRANCH  13  14
ATOM     14  C   UNL     1       0.054  -1.814   5.980  0.00  0.00    +0.131 A 
ATOM     15  C   UNL     1       1.211  -1.349   6.538  0.00  0.00    +0.126 A 
ATOM     16  S   UNL     1       0.631  -0.382   7.785  0.00  0.00    +0.053 S 
ATOM     17  N   UNL     1      -1.012  -0.608   7.546  0.00  0.00    -0.108 NA
ATOM     18  N   UNL     1      -1.065  -1.401   6.530  0.00  0.00    -0.141 NA
BRANCH  15  19
ATOM     19  N   UNL     1       2.529  -1.608   6.170  0.00  0.00    -0.274 N 
ATOM     20  H   UNL     1       2.716  -2.193   5.420  0.00  0.00    +0.167 HD
BRANCH  19  21
ATOM     21  N   UNL     1       3.557  -1.038   6.865  0.00  0.00    -0.256 NA
ATOM     22  H   UNL     1       4.449  -1.316   6.485  0.00  0.00    +0.140 HD
ATOM     23  H   UNL     1       3.469  -0.033   6.882  0.00  0.00    +0.140 HD
ENDBRANCH  19  21
ENDBRANCH  15  19
ENDBRANCH  13  14
ENDBRANCH   1  13
TORSDOF 5
