REMARK  Name = ZINC24747470
REMARK  10 active torsions:
REMARK  status: ('A' for Active; 'I' for Inactive)
REMARK    1  A    between atoms: C_1  and  C_2
REMARK    2  A    between atoms: C_2  and  C_3
REMARK    3  A    between atoms: C_6  and  C_9
REMARK    4  A    between atoms: C_9  and  C_11
REMARK    5  A    between atoms: C_9  and  N_14
REMARK    6  A    between atoms: C_11  and  C_12
REMARK    7  A    between atoms: C_11  and  C_13
REMARK    8  A    between atoms: N_14  and  C_15
REMARK    9  A    between atoms: C_15  and  C_16
REMARK   10  A    between atoms: C_20  and  C_29
REMARK                            x       y       z     vdW  Elec       q    Type
REMARK                         _______ _______ _______ _____ _____    ______ ____
ROOT
ATOM      1  C   UNL     1      -1.112  -0.715  -0.263  0.00  0.00    +0.203 C 
ATOM      2  O   UNL     1      -1.053  -1.923  -0.353  0.00  0.00    -0.277 OA
ATOM      3  N   UNL     1       0.002  -0.004   0.001  0.00  0.00    -0.266 N 
ATOM      4  C   UNL     1      -0.021   1.469   0.025  0.00  0.00    +0.168 C 
ATOM      5  C   UNL     1       0.820   1.927   1.224  0.00  0.00    +0.276 C 
ATOM      6  O   UNL     1       2.145   1.410   1.082  0.00  0.00    -0.476 OA
ATOM      7  C   UNL     1       2.282   0.086   0.807  0.00  0.00    +0.143 A 
ATOM      8  C   UNL     1       1.227  -0.642   0.264  0.00  0.00    +0.078 A 
ATOM      9  C   UNL     1       1.381  -1.991  -0.012  0.00  0.00    +0.027 A 
ATOM     10  C   UNL     1       2.588  -2.613   0.247  0.00  0.00    +0.002 A 
ATOM     11  C   UNL     1       3.637  -1.893   0.788  0.00  0.00    +0.004 A 
ATOM     12  C   UNL     1       3.487  -0.548   1.068  0.00  0.00    +0.047 A 
ENDROOT
BRANCH   5  13
ATOM     13  C   UNL     1       0.866   3.433   1.263  0.00  0.00    +0.253 C 
ATOM     14  O   UNL     1       1.920   4.011   1.099  0.00  0.00    -0.272 OA
ATOM     15  N   UNL     1      -0.262   4.137   1.480  0.00  0.00    -0.326 N 
ATOM     16  H   UNL     1      -0.229   5.236   1.508  0.00  0.00    +0.145 HD
ATOM     17  H   UNL     1      -1.218   3.612   1.628  0.00  0.00    +0.145 HD
ENDBRANCH   5  13
BRANCH   1  18
ATOM     18  C   UNL     1      -2.430  -0.009  -0.446  0.00  0.00    +0.016 C 
BRANCH  18  19
ATOM     19  N   UNL     1      -3.500  -1.004  -0.604  0.00  0.00    +0.389 N 
ATOM     20  H   UNL     1      -3.529  -1.636   0.296  0.00  0.00    -0.084 HD
ATOM     21  H   UNL     1      -3.277  -1.626  -1.482  0.00  0.00    -0.084 HD
BRANCH  19  22
ATOM     22  C   UNL     1      -4.804  -0.350  -0.785  0.00  0.00    -0.038 C 
BRANCH  22  26
ATOM     23  C   UNL     1      -7.431  -2.977  -2.893  0.00  0.00    -0.048 A 
ATOM     24  C   UNL     1      -7.429  -1.625  -3.180  0.00  0.00    +0.004 A 
ATOM     25  C   UNL     1      -6.579  -0.775  -2.498  0.00  0.00    +0.002 A 
ATOM     26  C   UNL     1      -5.731  -1.277  -1.528  0.00  0.00    -0.061 A 
ATOM     27  C   UNL     1      -5.730  -2.630  -1.244  0.00  0.00    +0.002 A 
ATOM     28  C   UNL     1      -6.584  -3.479  -1.923  0.00  0.00    +0.004 A 
BRANCH  23  30
ATOM     29  C   UNL     1      -7.655  -4.432  -4.888  0.00  0.00    +0.009 C 
ATOM     30  C   UNL     1      -8.358  -3.904  -3.636  0.00  0.00    +0.032 C 
ENDBRANCH  23  30
ENDBRANCH  22  26
BRANCH  22  31
ATOM     31  C   UNL     1      -5.403  -0.019   0.583  0.00  0.00    -0.027 C 
ATOM     32  C   UNL     1      -6.760   0.662   0.394  0.00  0.00    +0.006 C 
ATOM     33  C   UNL     1      -5.586  -1.308   1.385  0.00  0.00    +0.006 C 
ENDBRANCH  22  31
ENDBRANCH  19  22
ENDBRANCH  18  19
ENDBRANCH   1  18
TORSDOF 7
