REMARK  Name = ZINC26878836
REMARK  6 active torsions:
REMARK  status: ('A' for Active; 'I' for Inactive)
REMARK    1  A    between atoms: C_4  and  C_7
REMARK    2  A    between atoms: C_7  and  C_9
REMARK    3  A    between atoms: C_7  and  N_15
REMARK    4  A    between atoms: N_15  and  C_16
REMARK    5  A    between atoms: C_16  and  C_17
REMARK    6  A    between atoms: N_21  and  C_22
REMARK                            x       y       z     vdW  Elec       q    Type
REMARK                         _______ _______ _______ _____ _____    ______ ____
ROOT
ATOM      1  N   UNL     1      -1.986   5.022  -1.507  0.00  0.00    -0.298 NA
ATOM      2  H   UNL     1      -1.626   6.061  -1.489  0.00  0.00    +0.123 HD
ENDROOT
BRANCH   1   3
ATOM      3  C   UNL     1      -1.521   4.322  -0.301  0.00  0.00    +0.134 C 
BRANCH   3   7
ATOM      4  C   UNL     1      -1.474   7.041   2.993  0.00  0.00    +0.000 A 
ATOM      5  C   UNL     1      -1.904   5.740   3.177  0.00  0.00    +0.000 A 
ATOM      6  C   UNL     1      -1.919   4.860   2.111  0.00  0.00    +0.005 A 
ATOM      7  C   UNL     1      -1.505   5.282   0.861  0.00  0.00    -0.025 A 
ATOM      8  C   UNL     1      -1.070   6.581   0.679  0.00  0.00    +0.005 A 
ATOM      9  C   UNL     1      -1.059   7.462   1.744  0.00  0.00    +0.000 A 
ENDBRANCH   3   7
BRANCH   3  10
ATOM     10  C   UNL     1      -0.130   3.791  -0.534  0.00  0.00    +0.063 A 
ATOM     11  C   UNL     1       0.085   2.426  -0.554  0.00  0.00    +0.025 A 
ATOM     12  C   UNL     1       1.370   1.948  -0.762  0.00  0.00    +0.003 A 
ATOM     13  C   UNL     1       2.392   2.864  -0.956  0.00  0.00    +0.020 A 
ATOM     14  C   UNL     1       2.100   4.215  -0.928  0.00  0.00    +0.111 A 
ATOM     15  N   UNL     1       0.867   4.634  -0.721  0.00  0.00    -0.258 NA
ENDBRANCH   3  10
ENDBRANCH   1   3
BRANCH   1  16
ATOM     16  C   UNL     1      -3.453   5.032  -1.576  0.00  0.00    +0.160 C 
BRANCH  16  17
ATOM     17  C   UNL     1      -3.892   5.757  -2.823  0.00  0.00    +0.170 A 
ATOM     18  N   UNL     1      -4.007   5.241  -4.019  0.00  0.00    -0.112 NA
ATOM     19  N   UNL     1      -4.403   6.129  -4.858  0.00  0.00    -0.023 NA
ATOM     20  N   UNL     1      -4.567   7.261  -4.265  0.00  0.00    -0.039 NA
ATOM     21  N   UNL     1      -4.244   7.058  -2.912  0.00  0.00    -0.196 N 
BRANCH  21  22
ATOM     22  C   UNL     1      -4.277   8.003  -1.876  0.00  0.00    +0.069 A 
ATOM     23  C   UNL     1      -4.818   7.665  -0.643  0.00  0.00    +0.028 A 
ATOM     24  C   UNL     1      -4.845   8.597   0.376  0.00  0.00    +0.002 A 
ATOM     25  C   UNL     1      -4.344   9.869   0.166  0.00  0.00    +0.000 A 
ATOM     26  C   UNL     1      -3.809  10.210  -1.063  0.00  0.00    +0.002 A 
ATOM     27  C   UNL     1      -3.775   9.280  -2.084  0.00  0.00    +0.028 A 
ENDBRANCH  21  22
ENDBRANCH  16  17
ENDBRANCH   1  16
TORSDOF 6
