REMARK  Name = ZINC60391351
REMARK  5 active torsions:
REMARK  status: ('A' for Active; 'I' for Inactive)
REMARK    1  A    between atoms: C_3  and  O_10
REMARK    2  A    between atoms: C_6  and  C_7
REMARK    3  A    between atoms: O_10  and  C_11
REMARK    4  A    between atoms: C_11  and  C_13
REMARK    5  A    between atoms: C_15  and  N_20
REMARK                            x       y       z     vdW  Elec       q    Type
REMARK                         _______ _______ _______ _____ _____    ______ ____
ROOT
ATOM      1  O   UNL     1       3.546   2.114  -0.022  0.00  0.00    -0.422 OA
ENDROOT
BRANCH   1   4
ATOM      2  C   UNL     1       0.789   0.085   1.201  0.00  0.00    +0.016 A 
ATOM      3  C   UNL     1       1.971   0.791   1.173  0.00  0.00    +0.047 A 
ATOM      4  C   UNL     1       2.380   1.419   0.002  0.00  0.00    +0.132 A 
ATOM      5  C   UNL     1       1.598   1.337  -1.144  0.00  0.00    +0.047 A 
ATOM      6  C   UNL     1       0.414   0.633  -1.124  0.00  0.00    +0.016 A 
ATOM      7  C   UNL     1      -0.000   0.001   0.051  0.00  0.00    +0.037 A 
BRANCH   7   8
ATOM      8  C   UNL     1      -1.268  -0.755   0.078  0.00  0.00    +0.242 C 
ATOM      9  O   UNL     1      -1.627  -1.305   1.101  0.00  0.00    -0.270 OA
ATOM     10  N   UNL     1      -2.028  -0.835  -1.033  0.00  0.00    -0.325 N 
ATOM     11  H   UNL     1      -1.741  -0.397  -1.849  0.00  0.00    +0.145 HD
ATOM     12  H   UNL     1      -2.861  -1.332  -1.016  0.00  0.00    +0.145 HD
ENDBRANCH   7   8
ENDBRANCH   1   4
BRANCH   1  13
ATOM     13  C   UNL     1       4.698   1.421   0.067  0.00  0.00    +0.346 C 
ATOM     14  O   UNL     1       4.678   0.206   0.059  0.00  0.00    -0.244 OA
BRANCH  13  15
ATOM     15  C   UNL     1       5.984   2.137   0.173  0.00  0.00    +0.080 A 
ATOM     16  C   UNL     1       6.010   3.534   0.188  0.00  0.00    +0.049 A 
ATOM     17  C   UNL     1       7.215   4.196   0.288  0.00  0.00    +0.127 A 
ATOM     18  C   UNL     1       8.398   3.482   0.373  0.00  0.00    +0.034 A 
ATOM     19  C   UNL     1       8.381   2.099   0.359  0.00  0.00    +0.023 A 
ATOM     20  C   UNL     1       7.181   1.421   0.265  0.00  0.00    +0.055 A 
ATOM     21 CL   UNL     1       7.160  -0.315   0.254  0.00  0.00    -0.083 Cl
BRANCH  17  22
ATOM     22  N   UNL     1       7.245   5.676   0.303  0.00  0.00    +0.056 N 
ATOM     23  O   UNL     1       6.213   6.302   0.228  0.00  0.00    -0.126 OA
ATOM     24  O   UNL     1       8.300   6.259   0.391  0.00  0.00    -0.126 OA
ENDBRANCH  17  22
ENDBRANCH  13  15
ENDBRANCH   1  13
TORSDOF 5
