REMARK  Name = ZINC36227995
REMARK  4 active torsions:
REMARK  status: ('A' for Active; 'I' for Inactive)
REMARK    1  A    between atoms: C_3  and  C_17
REMARK    2  A    between atoms: N_6  and  S_8
REMARK    3  A    between atoms: S_8  and  N_11
REMARK    4  A    between atoms: C_17  and  O_18
REMARK                            x       y       z     vdW  Elec       q    Type
REMARK                         _______ _______ _______ _____ _____    ______ ____
ROOT
ATOM      1  S   UNL     1       0.176  -1.534  -2.236  0.00  0.00    +0.100 S 
ATOM      2  O   UNL     1      -1.238  -1.408  -2.165  0.00  0.00    -0.141 OA
ATOM      3  O   UNL     1       0.897  -1.349  -3.446  0.00  0.00    -0.141 OA
ENDROOT
BRANCH   1   4
ATOM      4  N   UNL     1       0.544  -3.055  -1.694  0.00  0.00    -0.164 NA
ATOM      5  C   UNL     1       1.796  -3.716  -2.092  0.00  0.00    +0.125 C 
ATOM      6  C   UNL     1       1.461  -5.111  -2.629  0.00  0.00    +0.098 C 
ATOM      7  N   UNL     1       0.665  -5.838  -1.631  0.00  0.00    -0.313 NA
ATOM      8  C   UNL     1      -0.623  -5.174  -1.391  0.00  0.00    +0.098 C 
ATOM      9  C   UNL     1      -0.371  -3.779  -0.798  0.00  0.00    +0.125 C 
ATOM     10  H   UNL     1       0.529  -6.800  -1.907  0.00  0.00    +0.122 HD
ENDBRANCH   1   4
BRANCH   1  15
ATOM     11  C   UNL     1      -0.019   1.528   0.010  0.00  0.00    +0.017 C 
ATOM     12  C   UNL     1       1.419   2.053  -0.001  0.00  0.00    +0.008 C 
ATOM     13  C   UNL     1       2.124   1.587  -1.276  0.00  0.00    +0.030 C 
ATOM     14  C   UNL     1       2.170   0.056  -1.299  0.00  0.00    +0.116 C 
ATOM     15  N   UNL     1       0.803  -0.460  -1.143  0.00  0.00    -0.166 NA
ATOM     16  C   UNL     1       0.002  -0.004   0.002  0.00  0.00    +0.110 C 
BRANCH  13  17
ATOM     17  C   UNL     1       3.550   2.141  -1.302  0.00  0.00    +0.160 C 
BRANCH  17  18
ATOM     18  O   UNL     1       3.506   3.566  -1.394  0.00  0.00    -0.395 OA
ATOM     19  H   UNL     1       4.377   3.986  -1.415  0.00  0.00    +0.209 HD
ENDBRANCH  17  18
ENDBRANCH  13  17
ENDBRANCH   1  15
TORSDOF 4
