REMARK  Name = ZINC00714562
REMARK  9 active torsions:
REMARK  status: ('A' for Active; 'I' for Inactive)
REMARK    1  A    between atoms: C_1  and  C_2
REMARK    2  A    between atoms: C_2  and  C_34
REMARK    3  A    between atoms: C_6  and  C_25
REMARK    4  A    between atoms: C_8  and  C_21
REMARK    5  A    between atoms: C_9  and  N_20
REMARK    6  A    between atoms: N_10  and  C_11
REMARK    7  A    between atoms: C_15  and  N_17
REMARK    8  A    between atoms: C_21  and  O_23
REMARK    9  A    between atoms: O_23  and  C_24
REMARK                            x       y       z     vdW  Elec       q    Type
REMARK                         _______ _______ _______ _____ _____    ______ ____
ROOT
ATOM      1  C   UNL     1      -2.606   7.867  -2.252  0.00  0.00    +0.011 C 
ATOM      2  C   UNL     1      -3.373   6.867  -1.384  0.00  0.00    -0.023 C 
ATOM      3  C   UNL     1      -2.470   5.678  -1.050  0.00  0.00    +0.058 C 
ATOM      4  C   UNL     1      -1.270   6.155  -0.269  0.00  0.00    +0.025 C 
ATOM      5  C   UNL     1      -1.355   7.220   0.559  0.00  0.00    +0.025 C 
ATOM      6  C   UNL     1      -0.159   7.686   1.349  0.00  0.00    +0.095 C 
ATOM      7  C   UNL     1       1.115   7.137   0.778  0.00  0.00    +0.084 C 
ATOM      8  C   UNL     1       1.104   6.068  -0.065  0.00  0.00    +0.103 C 
ATOM      9  N   UNL     1      -0.088   5.477  -0.412  0.00  0.00    -0.260 N 
ATOM     10  C   UNL     1      -2.561   7.929   0.704  0.00  0.00    +0.162 C 
ATOM     11  O   UNL     1      -2.606   8.881   1.458  0.00  0.00    -0.292 OA
ATOM     12  C   UNL     1      -3.794   7.540  -0.073  0.00  0.00    +0.086 C 
ATOM     13  C   UNL     1      -4.611   6.377  -2.137  0.00  0.00    +0.011 C 
ENDROOT
BRANCH   9  14
ATOM     14  C   UNL     1      -0.093   4.173  -0.921  0.00  0.00    +0.042 A 
ATOM     15  C   UNL     1       0.401   3.921  -2.195  0.00  0.00    +0.024 A 
ATOM     16  C   UNL     1       0.399   2.633  -2.692  0.00  0.00    +0.004 A 
ATOM     17  C   UNL     1      -0.104   1.596  -1.928  0.00  0.00    +0.033 A 
ATOM     18  C   UNL     1      -0.597   1.843  -0.660  0.00  0.00    +0.128 A 
ATOM     19  C   UNL     1      -0.593   3.128  -0.155  0.00  0.00    +0.056 A 
BRANCH  18  20
ATOM     20  N   UNL     1      -1.130   0.729   0.156  0.00  0.00    +0.056 N 
ATOM     21  O   UNL     1      -1.134  -0.404  -0.289  0.00  0.00    -0.126 OA
ATOM     22  O   UNL     1      -1.564   0.946   1.273  0.00  0.00    -0.126 OA
ENDBRANCH  18  20
ENDBRANCH   9  14
BRANCH   6  23
ATOM     23  C   UNL     1      -0.300   7.224   2.776  0.00  0.00    -0.017 A 
ATOM     24  C   UNL     1      -0.376   8.147   3.809  0.00  0.00    +0.007 A 
ATOM     25  C   UNL     1      -0.505   7.676   5.106  0.00  0.00    +0.020 A 
ATOM     26  C   UNL     1      -0.554   6.312   5.326  0.00  0.00    +0.111 A 
ATOM     27  N   UNL     1      -0.479   5.464   4.320  0.00  0.00    -0.263 NA
ATOM     28  C   UNL     1      -0.362   5.876   3.072  0.00  0.00    +0.115 A 
ENDBRANCH   6  23
BRANCH   8  29
ATOM     29  N   UNL     1       2.282   5.580  -0.568  0.00  0.00    -0.346 N 
ATOM     30  H   UNL     1       2.993   6.191  -0.818  0.00  0.00    +0.143 HD
ATOM     31  H   UNL     1       2.405   4.623  -0.673  0.00  0.00    +0.143 HD
ENDBRANCH   8  29
BRANCH   7  32
ATOM     32  C   UNL     1       2.337   7.735   1.117  0.00  0.00    +0.339 C 
ATOM     33  O   UNL     1       3.384   7.230   0.752  0.00  0.00    -0.245 OA
BRANCH  32  34
ATOM     34  O   UNL     1       2.354   8.870   1.849  0.00  0.00    -0.465 OA
ATOM     35  C   UNL     1       3.634   9.424   2.158  0.00  0.00    +0.280 C 
ENDBRANCH  32  34
ENDBRANCH   7  32
TORSDOF 6
