REMARK  Name = ZINC15912570
REMARK  8 active torsions:
REMARK  status: ('A' for Active; 'I' for Inactive)
REMARK    1  A    between atoms: C_6  and  C_7
REMARK    2  A    between atoms: C_7  and  N_8
REMARK    3  A    between atoms: N_8  and  C_9
REMARK    4  A    between atoms: C_9  and  N_11
REMARK    5  A    between atoms: N_11  and  N_12
REMARK    6  A    between atoms: C_13  and  C_15
REMARK    7  A    between atoms: C_15  and  O_16
REMARK    8  A    between atoms: O_16  and  C_17
REMARK                            x       y       z     vdW  Elec       q    Type
REMARK                         _______ _______ _______ _____ _____    ______ ____
ROOT
ATOM      1  N   UNL     1       5.211  -2.709  -0.065  0.00  0.00    -0.246 N 
ATOM      2  H   UNL     1       5.972  -2.107  -0.069  0.00  0.00    +0.172 HD
ENDROOT
BRANCH   1   3
ATOM      3  N   UNL     1       3.909  -2.193  -0.049  0.00  0.00    -0.232 N 
ATOM      4  C   UNL     1       3.713  -0.860  -0.040  0.00  0.00    +0.267 C 
ATOM      5  O   UNL     1       4.664  -0.107  -0.044  0.00  0.00    -0.271 OA
ATOM      6  H   UNL     1       3.148  -2.795  -0.045  0.00  0.00    +0.173 HD
BRANCH   4   7
ATOM      7  C   UNL     1       2.312  -0.304  -0.023  0.00  0.00    +0.326 C 
BRANCH   7   8
ATOM      8  O   UNL     1       2.366   1.124  -0.015  0.00  0.00    -0.482 OA
BRANCH   8   9
ATOM      9  C   UNL     1       1.179   1.786   0.000  0.00  0.00    +0.135 A 
ATOM     10  C   UNL     1      -0.013   1.076   0.008  0.00  0.00    +0.048 A 
ATOM     11  C   UNL     1      -1.218   1.751   0.017  0.00  0.00    +0.023 A 
ATOM     12  C   UNL     1      -1.238   3.134   0.031  0.00  0.00    +0.042 A 
ATOM     13  C   UNL     1      -0.051   3.845   0.023  0.00  0.00    +0.039 A 
ATOM     14  C   UNL     1       1.157   3.174   0.008  0.00  0.00    +0.061 A 
ATOM     15 BR   UNL     1       2.780   4.145  -0.003  0.00  0.00    -0.046 Br
ATOM     16 CL   UNL     1      -2.754   3.979   0.050  0.00  0.00    -0.084 Cl
ENDBRANCH   8   9
ENDBRANCH   7   8
ENDBRANCH   4   7
ENDBRANCH   1   3
BRANCH   1  17
ATOM     17  C   UNL     1       5.407  -4.043  -0.074  0.00  0.00    +0.147 C 
ATOM     18  S   UNL     1       6.999  -4.674  -0.093  0.00  0.00    -0.017 S 
BRANCH  17  19
ATOM     19  N   UNL     1       4.351  -4.880  -0.069  0.00  0.00    -0.321 N 
ATOM     20  H   UNL     1       3.449  -4.522  -0.058  0.00  0.00    +0.148 HD
BRANCH  19  21
ATOM     21  C   UNL     1       4.564  -6.329  -0.079  0.00  0.00    +0.138 C 
BRANCH  21  27
ATOM     22  C   UNL     1       2.636  -7.367   1.132  0.00  0.00    +0.009 A 
ATOM     23  C   UNL     1       1.411  -8.008   1.145  0.00  0.00    +0.050 A 
ATOM     24  C   UNL     1       0.782  -8.327  -0.047  0.00  0.00    +0.166 A 
ATOM     25  C   UNL     1       1.385  -7.995  -1.259  0.00  0.00    +0.167 A 
ATOM     26  C   UNL     1       2.610  -7.348  -1.264  0.00  0.00    +0.054 A 
ATOM     27  C   UNL     1       3.231  -7.033  -0.070  0.00  0.00    -0.027 A 
ATOM     28  O   UNL     1       0.576  -8.411  -2.276  0.00  0.00    -0.453 OA
ATOM     29  C   UNL     1      -0.329  -9.361  -1.685  0.00  0.00    +0.466 C 
ATOM     30  O   UNL     1      -0.404  -8.950  -0.307  0.00  0.00    -0.453 OA
ENDBRANCH  21  27
ENDBRANCH  19  21
ENDBRANCH  17  19
ENDBRANCH   1  17
TORSDOF 8
