REMARK  Name = ZINC39635859
REMARK  5 active torsions:
REMARK  status: ('A' for Active; 'I' for Inactive)
REMARK    1  A    between atoms: C_1  and  C_2
REMARK    2  A    between atoms: C_2  and  C_3
REMARK    3  A    between atoms: C_7  and  C_16
REMARK    4  A    between atoms: N_18  and  C_19
REMARK    5  A    between atoms: C_25  and  C_27
REMARK                            x       y       z     vdW  Elec       q    Type
REMARK                         _______ _______ _______ _____ _____    ______ ____
ROOT
ATOM      1  C   UNL     1       0.757  -0.497  -1.291  0.00  0.00    +0.215 C 
ATOM      2  O   UNL     1       1.183   0.291  -2.109  0.00  0.00    -0.276 OA
ATOM      3  N   UNL     1       0.875  -1.822  -1.507  0.00  0.00    -0.300 N 
ATOM      4  C   UNL     1       0.414  -2.929  -0.636  0.00  0.00    +0.121 C 
ATOM      5  C   UNL     1      -0.137  -3.992  -1.612  0.00  0.00    +0.100 C 
ATOM      6  C   UNL     1       0.576  -3.708  -2.945  0.00  0.00    -0.004 C 
ATOM      7  C   UNL     1       1.488  -2.502  -2.673  0.00  0.00    +0.115 C 
ATOM      8  C   UNL     1      -0.442  -3.358  -4.026  0.00  0.00    -0.010 C 
ATOM      9  C   UNL     1       0.286  -3.135  -5.354  0.00  0.00    -0.082 C 
ATOM     10  N   UNL     1       1.021  -4.352  -5.721  0.00  0.00    +0.379 N 
ATOM     11  C   UNL     1       2.061  -4.630  -4.723  0.00  0.00    -0.082 C 
ATOM     12  C   UNL     1       1.407  -4.915  -3.368  0.00  0.00    -0.010 C 
ATOM     13  H   UNL     1       0.380  -5.131  -5.762  0.00  0.00    -0.086 HD
ATOM     14  H   UNL     1       1.450  -4.225  -6.625  0.00  0.00    -0.086 HD
ENDROOT
BRANCH   5  15
ATOM     15  C   UNL     1       0.195  -5.377  -1.122  0.00  0.00    +0.218 C 
ATOM     16  O   UNL     1       1.227  -5.576  -0.517  0.00  0.00    -0.275 OA
ATOM     17  N   UNL     1      -0.656  -6.396  -1.355  0.00  0.00    -0.312 N 
ATOM     18  H   UNL     1      -1.482  -6.238  -1.839  0.00  0.00    +0.149 HD
BRANCH  17  19
ATOM     19  C   UNL     1      -0.334  -7.744  -0.878  0.00  0.00    +0.076 C 
ATOM     20  C   UNL     1       0.559  -8.447  -1.903  0.00  0.00    +0.022 C 
ATOM     21  C   UNL     1      -0.178  -8.542  -3.240  0.00  0.00    +0.002 C 
ATOM     22  C   UNL     1      -1.470  -9.341  -3.056  0.00  0.00    +0.000 C 
ATOM     23  C   UNL     1      -2.362  -8.637  -2.031  0.00  0.00    +0.005 C 
ATOM     24  C   UNL     1      -1.626  -8.542  -0.693  0.00  0.00    +0.006 C 
ATOM     25  C   UNL     1      -2.518  -7.838   0.331  0.00  0.00    +0.009 C 
ENDBRANCH  17  19
ENDBRANCH   5  15
BRANCH   1  27
ATOM     26  C   UNL     1       0.093   1.536  -0.036  0.00  0.00    +0.013 C 
ATOM     27  C   UNL     1       0.096   0.006  -0.034  0.00  0.00    +0.092 C 
ENDBRANCH   1  27
TORSDOF 3
