REMARK  Name = ZINC04785983
REMARK  9 active torsions:
REMARK  status: ('A' for Active; 'I' for Inactive)
REMARK    1  A    between atoms: C_1  and  C_2
REMARK    2  A    between atoms: C_4  and  N_26
REMARK    3  A    between atoms: C_7  and  O_8
REMARK    4  A    between atoms: O_8  and  C_9
REMARK    5  A    between atoms: C_9  and  C_10
REMARK    6  A    between atoms: C_12  and  C_18
REMARK    7  A    between atoms: C_15  and  O_16
REMARK    8  A    between atoms: O_16  and  C_17
REMARK    9  A    between atoms: C_20  and  C_24
REMARK                            x       y       z     vdW  Elec       q    Type
REMARK                         _______ _______ _______ _____ _____    ______ ____
ROOT
ATOM      1  C   UNK     1      -2.683   1.569   2.470  0.00  0.00    +0.031 A 
ATOM      2  C   UNK     1      -3.999   1.183   2.632  0.00  0.00    +0.013 A 
ATOM      3  C   UNK     1      -4.607   0.382   1.683  0.00  0.00    -0.051 A 
ATOM      4  C   UNK     1      -3.902  -0.029   0.567  0.00  0.00    +0.006 A 
ATOM      5  C   UNK     1      -2.588   0.359   0.398  0.00  0.00    +0.046 A 
ATOM      6  C   UNK     1      -1.975   1.163   1.348  0.00  0.00    +0.126 A 
ENDROOT
BRANCH   3   7
ATOM      7  C   UNK     1      -6.042  -0.044   1.866  0.00  0.00    +0.020 C 
ATOM      8  C   UNK     1      -7.041  -1.679   0.268  0.00  0.00    +0.055 C 
ATOM      9  C   UNK     1      -7.405  -2.439   1.577  0.00  0.00    +0.063 C 
ATOM     10  S   UNK     1      -6.132  -1.687   2.695  0.00  0.00    -0.173 S 
ATOM     11  N   UNK     1      -6.693  -0.254   0.527  0.00  0.00    +0.399 N 
ATOM     12  H   UNK     1      -6.047   0.063  -0.206  0.00  0.00    -0.083 HD
ATOM     13  H   UNK     1      -7.554   0.305   0.490  0.00  0.00    -0.083 HD
BRANCH   8  14
ATOM     14  C   UNK     1      -8.226  -1.705  -0.663  0.00  0.00    +0.343 C 
ATOM     15  O   UNK     1      -8.922  -0.725  -0.783  0.00  0.00    -0.248 OA
ATOM     16  O   UNK     1      -8.507  -2.816  -1.361  0.00  0.00    -0.248 OA
ENDBRANCH   8  14
ENDBRANCH   3   7
BRANCH   6  17
ATOM     17  O   UNK     1      -0.682   1.547   1.184  0.00  0.00    -0.495 OA
ATOM     18  C   UNK     1      -0.013   1.086   0.008  0.00  0.00    +0.277 C 
ENDBRANCH   6  17
BRANCH   1  19
ATOM     19  C   UNK     1      -2.018   2.437   3.507  0.00  0.00    +0.268 C 
BRANCH  19  20
ATOM     20  O   UNK     1      -2.946   2.719   4.557  0.00  0.00    -0.487 OA
BRANCH  20  27
ATOM     21  C   UNK     1      -4.767   3.298   6.637  0.00  0.00    +0.047 C 
ATOM     22  C   UNK     1      -3.352   3.814   6.630  0.00  0.00    -0.007 A 
ATOM     23  C   UNK     1      -2.897   4.600   7.671  0.00  0.00    +0.039 A 
ATOM     24  C   UNK     1      -1.600   5.078   7.662  0.00  0.00    +0.127 A 
ATOM     25  C   UNK     1      -0.752   4.766   6.615  0.00  0.00    +0.036 A 
ATOM     26  C   UNK     1      -1.201   3.977   5.574  0.00  0.00    +0.048 A 
ATOM     27  C   UNK     1      -2.502   3.496   5.580  0.00  0.00    +0.124 A 
BRANCH  24  28
ATOM     28  N   UNK     1      -1.117   5.925   8.776  0.00  0.00    +0.056 N 
ATOM     29  O   UNK     1       0.025   6.347   8.769  0.00  0.00    -0.126 OA
ATOM     30  O   UNK     1      -1.862   6.200   9.699  0.00  0.00    -0.126 OA
ENDBRANCH  24  28
ENDBRANCH  20  27
ENDBRANCH  19  20
ENDBRANCH   1  19
TORSDOF 7
