REMARK  Name = ZINC21247264
REMARK  7 active torsions:
REMARK  status: ('A' for Active; 'I' for Inactive)
REMARK    1  A    between atoms: C_1  and  C_2
REMARK    2  A    between atoms: C_2  and  C_4
REMARK    3  A    between atoms: C_2  and  S_11
REMARK    4  A    between atoms: N_9  and  C_10
REMARK    5  A    between atoms: S_11  and  C_12
REMARK    6  A    between atoms: C_15  and  C_18
REMARK    7  A    between atoms: N_16  and  N_17
REMARK                            x       y       z     vdW  Elec       q    Type
REMARK                         _______ _______ _______ _____ _____    ______ ____
ROOT
ATOM      1  C   UNL     1      -3.072   1.788  -0.131  0.00  0.00    +0.209 A 
ATOM      2  N   UNL     1      -2.418   2.618  -0.913  0.00  0.00    -0.121 NA
ATOM      3  N   UNL     1      -3.189   3.046  -1.847  0.00  0.00    -0.127 NA
ATOM      4  C   UNL     1      -4.384   2.516  -1.720  0.00  0.00    +0.182 A 
ATOM      5  N   UNL     1      -4.344   1.690  -0.620  0.00  0.00    -0.224 N 
ENDROOT
BRANCH   4   6
ATOM      6  C   UNL     1      -5.550   2.756  -2.596  0.00  0.00    +0.021 A 
ATOM      7  C   UNL     1      -6.827   2.378  -2.181  0.00  0.00    +0.014 A 
ATOM      8  C   UNL     1      -7.912   2.609  -3.001  0.00  0.00    +0.039 A 
ATOM      9  C   UNL     1      -7.734   3.206  -4.239  0.00  0.00    +0.123 A 
ATOM     10  C   UNL     1      -6.467   3.578  -4.658  0.00  0.00    +0.039 A 
ATOM     11  C   UNL     1      -5.376   3.357  -3.844  0.00  0.00    +0.014 A 
ATOM     12  F   UNL     1      -8.800   3.425  -5.040  0.00  0.00    -0.205 F 
ENDBRANCH   4   6
BRANCH   5  13
ATOM     13  N   UNL     1      -5.364   0.932  -0.120  0.00  0.00    -0.295 N 
ATOM     14  H   UNL     1      -6.348   0.941  -0.611  0.00  0.00    +0.163 HD
ATOM     15  H   UNL     1      -5.201   0.312   0.774  0.00  0.00    +0.163 HD
ENDBRANCH   5  13
BRANCH   1  16
ATOM     16  S   UNL     1      -2.427   0.953   1.280  0.00  0.00    -0.072 S 
BRANCH  16  18
ATOM     17  C   UNL     1      -0.013   1.086   0.008  0.00  0.00    +0.029 C 
ATOM     18  C   UNL     1      -0.729   1.579   1.267  0.00  0.00    +0.137 C 
BRANCH  18  19
ATOM     19  C   UNL     1       0.000   1.080   2.488  0.00  0.00    +0.234 C 
ATOM     20  O   UNL     1      -0.360   0.059   3.034  0.00  0.00    -0.274 OA
ATOM     21  N   UNL     1       1.052   1.768   2.973  0.00  0.00    -0.239 N 
ATOM     22  C   UNL     1       1.704   1.322   4.065  0.00  0.00    +0.306 C 
ATOM     23  O   UNL     1       1.343   0.299   4.612  0.00  0.00    -0.252 OA
ATOM     24  N   UNL     1       2.756   2.010   4.550  0.00  0.00    -0.302 N 
ATOM     25  C   UNL     1       3.465   1.525   5.737  0.00  0.00    +0.129 C 
ATOM     26  H   UNL     1       1.379   2.695   2.478  0.00  0.00    +0.159 HD
ATOM     27  H   UNL     1       3.083   2.937   4.055  0.00  0.00    +0.150 HD
ENDBRANCH  18  19
ENDBRANCH  16  18
ENDBRANCH   1  16
TORSDOF 5
