REMARK  Name = ZINC67003118
REMARK  12 active torsions:
REMARK  status: ('A' for Active; 'I' for Inactive)
REMARK    1  A    between atoms: C_1  and  C_2
REMARK    2  A    between atoms: C_8  and  O_10
REMARK    3  A    between atoms: O_10  and  C_11
REMARK    4  A    between atoms: C_11  and  C_12
REMARK    5  A    between atoms: C_12  and  N_13
REMARK    6  A    between atoms: N_16  and  C_17
REMARK    7  A    between atoms: C_17  and  C_18
REMARK    8  A    between atoms: C_20  and  O_27
REMARK    9  A    between atoms: C_21  and  O_26
REMARK   10  A    between atoms: C_22  and  O_24
REMARK   11  A    between atoms: O_24  and  C_25
REMARK   12  A    between atoms: O_27  and  C_28
REMARK                            x       y       z     vdW  Elec       q    Type
REMARK                         _______ _______ _______ _____ _____    ______ ____
ROOT
ATOM      1  N   UNL     1       4.045   2.037   1.788  0.00  0.00    -0.297 N 
ATOM      2  C   UNL     1       5.197   2.702   1.572  0.00  0.00    +0.300 C 
ATOM      3  O   UNL     1       6.258   2.197   1.886  0.00  0.00    -0.253 OA
ATOM      4  N   UNL     1       5.173   3.925   1.008  0.00  0.00    -0.295 N 
ATOM      5  H   UNL     1       3.198   2.439   1.537  0.00  0.00    +0.150 HD
ATOM      6  H   UNL     1       4.327   4.328   0.757  0.00  0.00    +0.151 HD
ENDROOT
BRANCH   1   7
ATOM      7  C   UNL     1       4.070   0.707   2.401  0.00  0.00    +0.133 C 
BRANCH   7   8
ATOM      8  C   UNL     1       2.640   0.178   2.533  0.00  0.00    +0.179 C 
BRANCH   8   9
ATOM      9  O   UNL     1       2.083  -0.016   1.231  0.00  0.00    -0.375 OA
BRANCH   9  16
ATOM     10  C   UNL     1      -0.019   1.526   0.010  0.00  0.00    +0.010 C 
ATOM     11  C   UNL     1       0.002  -0.004   0.002  0.00  0.00    +0.015 C 
ATOM     12  C   UNL     1       0.718  -0.497  -1.257  0.00  0.00    +0.006 C 
ATOM     13  C   UNL     1       0.739  -2.027  -1.265  0.00  0.00    +0.000 C 
ATOM     14  C   UNL     1       1.479  -2.534  -0.026  0.00  0.00    +0.003 C 
ATOM     15  C   UNL     1       0.763  -2.041   1.233  0.00  0.00    +0.032 C 
ATOM     16  C   UNL     1       0.742  -0.511   1.242  0.00  0.00    +0.121 C 
ENDBRANCH   9  16
ENDBRANCH   8   9
ENDBRANCH   7   8
ENDBRANCH   1   7
BRANCH   4  17
ATOM     17  C   UNL     1       6.426   4.648   0.773  0.00  0.00    +0.141 C 
BRANCH  17  18
ATOM     18  C   UNL     1       6.125   5.981   0.138  0.00  0.00    -0.023 A 
ATOM     19  C   UNL     1       6.066   6.091  -1.239  0.00  0.00    +0.054 A 
ATOM     20  C   UNL     1       5.791   7.315  -1.828  0.00  0.00    +0.165 A 
ATOM     21  C   UNL     1       5.572   8.434  -1.032  0.00  0.00    +0.201 A 
ATOM     22  C   UNL     1       5.632   8.319   0.352  0.00  0.00    +0.165 A 
ATOM     23  C   UNL     1       5.903   7.090   0.933  0.00  0.00    +0.054 A 
BRANCH  22  24
ATOM     24  O   UNL     1       5.419   9.410   1.135  0.00  0.00    -0.491 OA
ATOM     25  C   UNL     1       5.496   9.219   2.549  0.00  0.00    +0.277 C 
ENDBRANCH  22  24
BRANCH  21  26
ATOM     26  O   UNL     1       5.302   9.637  -1.606  0.00  0.00    -0.501 OA
ATOM     27  H   UNL     1       4.360   9.801  -1.750  0.00  0.00    +0.292 HD
ENDBRANCH  21  26
BRANCH  20  28
ATOM     28  O   UNL     1       5.734   7.422  -3.182  0.00  0.00    -0.491 OA
ATOM     29  C   UNL     1       5.969   6.232  -3.938  0.00  0.00    +0.277 C 
ENDBRANCH  20  28
ENDBRANCH  17  18
ENDBRANCH   4  17
TORSDOF 9
