REMARK  Name = ZINC09831442
REMARK  13 active torsions:
REMARK  status: ('A' for Active; 'I' for Inactive)
REMARK    1  A    between atoms: C_1  and  C_2
REMARK    2  A    between atoms: C_2  and  C_3
REMARK    3  A    between atoms: C_2  and  N_70
REMARK    4  A    between atoms: C_4  and  C_5
REMARK    5  A    between atoms: C_4  and  N_70
REMARK    6  A    between atoms: C_5  and  N_6
REMARK    7  A    between atoms: C_7  and  C_9
REMARK    8  A    between atoms: C_9  and  C_10
REMARK    9  A    between atoms: C_10  and  C_11
REMARK   10  A    between atoms: N_24  and  C_25
REMARK   11  A    between atoms: C_25  and  C_26
REMARK   12  A    between atoms: C_33  and  C_34
REMARK   13  A    between atoms: C_33  and  N_70
REMARK                            x       y       z     vdW  Elec       q    Type
REMARK                         _______ _______ _______ _____ _____    ______ ____
ROOT
ATOM      1  C   UNL     1       1.928  -2.234  -0.676  0.00  0.00    +0.140 A 
ATOM      2  N   UNL     1       2.465  -1.067  -0.454  0.00  0.00    -0.132 NA
ATOM      3  N   UNL     1       1.813  -0.154  -1.081  0.00  0.00    -0.110 NA
ATOM      4  C   UNL     1       0.818  -0.694  -1.749  0.00  0.00    +0.240 A 
ATOM      5  N   UNL     1       0.861  -2.035  -1.504  0.00  0.00    -0.264 N 
ATOM      6  C   UNL     1      -0.072  -2.895  -2.069  0.00  0.00    +0.063 A 
ATOM      7  C   UNL     1      -0.031  -4.261  -1.829  0.00  0.00    +0.027 A 
ATOM      8  C   UNL     1      -0.973  -5.088  -2.407  0.00  0.00    +0.002 A 
ATOM      9  C   UNL     1      -1.962  -4.568  -3.226  0.00  0.00    +0.001 A 
ATOM     10  C   UNL     1      -2.019  -3.213  -3.476  0.00  0.00    +0.015 A 
ATOM     11  C   UNL     1      -1.074  -2.366  -2.899  0.00  0.00    +0.064 A 
ATOM     12  C   UNL     1      -1.098  -0.912  -3.140  0.00  0.00    +0.263 A 
ATOM     13  O   UNL     1      -1.951  -0.417  -3.852  0.00  0.00    -0.267 OA
ATOM     14  N   UNL     1      -0.158  -0.140  -2.556  0.00  0.00    -0.272 N 
ENDROOT
BRANCH   1  15
ATOM     15  C   UNL     1       2.397  -3.555  -0.122  0.00  0.00    +0.086 C 
BRANCH  15  16
ATOM     16  C   UNL     1       3.286  -4.254  -1.153  0.00  0.00    +0.103 C 
BRANCH  16  18
ATOM     17  N   UNL     1       4.556  -6.369  -1.336  0.00  0.00    -0.317 N 
ATOM     18  C   UNL     1       3.755  -5.574  -0.598  0.00  0.00    +0.213 C 
ATOM     19  O   UNL     1       3.412  -5.922   0.512  0.00  0.00    -0.276 OA
ATOM     20  H   UNL     1       4.830  -6.090  -2.224  0.00  0.00    +0.149 HD
BRANCH  17  21
ATOM     21  C   UNL     1       5.012  -7.652  -0.798  0.00  0.00    +0.085 C 
BRANCH  21  22
ATOM     22  C   UNL     1       5.901  -8.351  -1.829  0.00  0.00    -0.059 C 
BRANCH  22  23
ATOM     23  N   UNL     1       6.335  -9.653  -1.279  0.00  0.00    +0.387 N 
ATOM     24  H   UNL     1       5.510 -10.170  -0.955  0.00  0.00    -0.081 HD
BRANCH  23  26
ATOM     25  C   UNL     1       7.253 -10.702   0.727  0.00  0.00    -0.014 C 
ATOM     26  C   UNL     1       7.248  -9.440  -0.137  0.00  0.00    -0.074 C 
ATOM     27  C   UNL     1       8.667  -9.155  -0.632  0.00  0.00    -0.014 C 
ENDBRANCH  23  26
BRANCH  23  28
ATOM     28  C   UNL     1       7.014 -10.442  -2.328  0.00  0.00    -0.003 C 
BRANCH  28  29
ATOM     29  C   UNL     1       7.083 -11.880  -1.883  0.00  0.00    +0.089 A 
ATOM     30  C   UNL     1       6.082 -12.776  -1.960  0.00  0.00    +0.042 A 
ATOM     31  C   UNL     1       6.579 -13.991  -1.434  0.00  0.00    +0.041 A 
ATOM     32  C   UNL     1       7.853 -13.765  -1.068  0.00  0.00    +0.195 A 
ATOM     33  O   UNL     1       8.155 -12.487  -1.347  0.00  0.00    -0.470 OA
ENDBRANCH  28  29
ENDBRANCH  23  28
ENDBRANCH  22  23
ENDBRANCH  21  22
ENDBRANCH  17  21
ENDBRANCH  16  18
ENDBRANCH  15  16
ENDBRANCH   1  15
BRANCH  14  34
ATOM     34  C   UNL     1      -0.169   1.307  -2.786  0.00  0.00    +0.163 C 
BRANCH  34  35
ATOM     35  C   UNL     1      -1.016   1.977  -1.735  0.00  0.00    -0.027 A 
ATOM     36  C   UNL     1      -2.367   2.170  -1.957  0.00  0.00    +0.008 A 
ATOM     37  C   UNL     1      -3.146   2.780  -0.992  0.00  0.00    +0.038 A 
ATOM     38  C   UNL     1      -2.571   3.206   0.193  0.00  0.00    +0.123 A 
ATOM     39  C   UNL     1      -1.218   3.016   0.413  0.00  0.00    +0.038 A 
ATOM     40  C   UNL     1      -0.441   2.402  -0.552  0.00  0.00    +0.008 A 
ATOM     41  F   UNL     1      -3.331   3.806   1.135  0.00  0.00    -0.205 F 
ENDBRANCH  34  35
ENDBRANCH  14  34
TORSDOF 11
