REMARK  Name = ZINC17842712
REMARK  5 active torsions:
REMARK  status: ('A' for Active; 'I' for Inactive)
REMARK    1  A    between atoms: C_1  and  C_2
REMARK    2  A    between atoms: C_2  and  C_4
REMARK    3  A    between atoms: C_2  and  N_9
REMARK    4  A    between atoms: C_10  and  C_12
REMARK    5  A    between atoms: N_20  and  C_23
REMARK                            x       y       z     vdW  Elec       q    Type
REMARK                         _______ _______ _______ _____ _____    ______ ____
ROOT
ATOM      1  C   UNL     1       2.770  -1.091   2.374  0.00  0.00    +0.039 A 
ATOM      2  C   UNL     1       2.043  -1.444   3.521  0.00  0.00    +0.014 A 
ATOM      3  C   UNL     1       2.679  -1.898   4.637  0.00  0.00    +0.016 A 
ATOM      4  C   UNL     1       4.076  -2.015   4.646  0.00  0.00    +0.065 A 
ATOM      5  C   UNL     1       4.824  -1.661   3.492  0.00  0.00    +0.080 A 
ATOM      6  C   UNL     1       4.151  -1.202   2.351  0.00  0.00    +0.041 A 
ATOM      7  N   UNL     1       6.159  -1.780   3.517  0.00  0.00    -0.222 NA
ATOM      8  C   UNL     1       6.779  -2.221   4.601  0.00  0.00    +0.183 A 
ATOM      9  N   UNL     1       6.118  -2.570   5.717  0.00  0.00    -0.290 N 
ATOM     10  C   UNL     1       4.772  -2.482   5.782  0.00  0.00    +0.262 A 
ATOM     11  O   UNL     1       4.111  -2.830   6.899  0.00  0.00    -0.267 OA
ATOM     12  C   UNL     1       6.867  -3.051   6.880  0.00  0.00    +0.154 C 
ATOM     13  S   UNL     1       8.486  -2.354   4.578  0.00  0.00    -0.011 S 
ENDROOT
BRANCH   1  15
ATOM     14  N   UNL     1       0.711  -0.489   1.189  0.00  0.00    -0.304 N 
ATOM     15  C   UNL     1       2.054  -0.600   1.174  0.00  0.00    +0.245 C 
ATOM     16  O   UNL     1       2.677  -0.297   0.175  0.00  0.00    -0.270 OA
ATOM     17  H   UNL     1       0.213  -0.731   1.986  0.00  0.00    +0.150 HD
BRANCH  14  19
ATOM     18  C   UNL     1      -0.019   1.526   0.010  0.00  0.00    +0.033 C 
ATOM     19  C   UNL     1       0.002  -0.004   0.002  0.00  0.00    +0.107 C 
BRANCH  19  20
ATOM     20  C   UNL     1      -1.412  -0.526   0.013  0.00  0.00    +0.010 A 
ATOM     21  C   UNL     1      -2.157  -0.992  -1.019  0.00  0.00    +0.013 A 
ATOM     22  C   UNL     1      -3.447  -1.425  -0.772  0.00  0.00    +0.008 A 
ATOM     23  C   UNL     1      -3.927  -1.370   0.494  0.00  0.00    +0.045 A 
ATOM     24  S   UNL     1      -2.537  -0.697   1.389  0.00  0.00    -0.100 S 
ENDBRANCH  19  20
ENDBRANCH  14  19
ENDBRANCH   1  15
TORSDOF 3
