REMARK  Name = ZINC05145354
REMARK  9 active torsions:
REMARK  status: ('A' for Active; 'I' for Inactive)
REMARK    1  A    between atoms: C_1  and  C_2
REMARK    2  A    between atoms: C_2  and  O_3
REMARK    3  A    between atoms: O_3  and  C_4
REMARK    4  A    between atoms: C_4  and  C_6
REMARK    5  A    between atoms: C_7  and  C_27
REMARK    6  A    between atoms: C_8  and  C_24
REMARK    7  A    between atoms: C_9  and  N_11
REMARK    8  A    between atoms: C_12  and  C_14
REMARK    9  A    between atoms: C_19  and  N_20
REMARK                            x       y       z     vdW  Elec       q    Type
REMARK                         _______ _______ _______ _____ _____    ______ ____
ROOT
ATOM      1  C   UNL     1      -4.949  -3.726   0.305  0.00  0.00    +0.102 A 
ATOM      2  C   UNL     1      -3.938  -4.645   0.410  0.00  0.00    -0.015 A 
ATOM      3  C   UNL     1      -2.635  -4.174   0.388  0.00  0.00    +0.069 A 
ATOM      4  C   UNL     1      -2.444  -2.794   0.261  0.00  0.00    +0.085 A 
ATOM      5  S   UNL     1      -4.064  -2.184   0.181  0.00  0.00    -0.066 S 
ATOM      6  C   UNL     1      -4.233  -6.117   0.543  0.00  0.00    +0.046 C 
ENDROOT
BRANCH   3   7
ATOM      7  C   UNL     1      -1.494  -5.093   0.494  0.00  0.00    +0.244 C 
ATOM      8  O   UNL     1      -1.039  -5.374   1.587  0.00  0.00    -0.270 OA
ATOM      9  N   UNL     1      -0.950  -5.623  -0.619  0.00  0.00    -0.325 N 
ATOM     10  H   UNL     1      -1.313  -5.399  -1.490  0.00  0.00    +0.145 HD
ATOM     11  H   UNL     1      -0.197  -6.230  -0.549  0.00  0.00    +0.145 HD
ENDBRANCH   3   7
BRANCH   4  12
ATOM     12  N   UNL     1      -1.257  -2.092   0.215  0.00  0.00    -0.275 N 
ATOM     13  C   UNL     1      -1.272  -0.750   0.088  0.00  0.00    +0.251 C 
ATOM     14  O   UNL     1      -2.332  -0.159   0.013  0.00  0.00    -0.270 OA
ATOM     15  H   UNL     1      -0.411  -2.563   0.275  0.00  0.00    +0.156 HD
BRANCH  13  16
ATOM     16  C   UNL     1      -0.001   0.002   0.040  0.00  0.00    +0.069 A 
ATOM     17  C   UNL     1       0.936  -0.137   1.065  0.00  0.00    +0.035 A 
ATOM     18  C   UNL     1       2.121   0.569   1.014  0.00  0.00    +0.042 A 
ATOM     19  C   UNL     1       2.381   1.414  -0.052  0.00  0.00    +0.022 A 
ATOM     20  C   UNL     1       1.456   1.556  -1.071  0.00  0.00    +0.035 A 
ATOM     21  C   UNL     1       0.268   0.856  -1.032  0.00  0.00    +0.138 A 
ATOM     22 CL   UNL     1       3.288   0.397   2.288  0.00  0.00    -0.084 Cl
BRANCH  21  23
ATOM     23  N   UNL     1      -0.718   1.005  -2.126  0.00  0.00    +0.057 N 
ATOM     24  O   UNL     1      -0.535   1.833  -3.001  0.00  0.00    -0.126 OA
ATOM     25  O   UNL     1      -1.710   0.300  -2.152  0.00  0.00    -0.126 OA
ENDBRANCH  21  23
ENDBRANCH  13  16
ENDBRANCH   4  12
BRANCH   1  26
ATOM     26  C   UNL     1      -6.393  -3.954   0.302  0.00  0.00    +0.346 C 
ATOM     27  O   UNL     1      -6.831  -5.084   0.401  0.00  0.00    -0.244 OA
BRANCH  26  28
ATOM     28  O   UNL     1      -7.240  -2.910   0.188  0.00  0.00    -0.461 OA
BRANCH  28  30
ATOM     29  C   UNL     1      -9.434  -1.906   0.055  0.00  0.00    +0.048 C 
ATOM     30  C   UNL     1      -8.638  -3.205   0.192  0.00  0.00    +0.229 C 
ENDBRANCH  28  30
ENDBRANCH  26  28
ENDBRANCH   1  26
TORSDOF 7
