REMARK  Name = ZINC65179177
REMARK  7 active torsions:
REMARK  status: ('A' for Active; 'I' for Inactive)
REMARK    1  A    between atoms: C_1  and  C_2
REMARK    2  A    between atoms: C_2  and  C_3
REMARK    3  A    between atoms: C_2  and  C_4
REMARK    4  A    between atoms: C_4  and  N_5
REMARK    5  A    between atoms: N_8  and  N_9
REMARK    6  A    between atoms: C_10  and  C_12
REMARK    7  A    between atoms: N_20  and  C_21
REMARK                            x       y       z     vdW  Elec       q    Type
REMARK                         _______ _______ _______ _____ _____    ______ ____
ROOT
ATOM      1  N   UNL     1      -1.333  -4.702  -0.338  0.00  0.00    -0.228 N 
ATOM      2  C   UNL     1      -1.322  -6.043  -0.473  0.00  0.00    +0.278 C 
ATOM      3  O   UNL     1      -2.362  -6.670  -0.410  0.00  0.00    -0.267 OA
ATOM      4  H   UNL     1      -0.498  -4.210  -0.313  0.00  0.00    +0.173 HD
ENDROOT
BRANCH   2   5
ATOM      5  C   UNL     1      -0.052  -6.748  -0.697  0.00  0.00    +0.121 A 
ATOM      6  C   UNL     1       0.671  -7.392   0.257  0.00  0.00    +0.056 A 
ATOM      7  C   UNL     1       1.821  -7.937  -0.368  0.00  0.00    +0.015 A 
ATOM      8  C   UNL     1       2.906  -8.687   0.102  0.00  0.00    +0.011 A 
ATOM      9  C   UNL     1       3.887  -9.077  -0.762  0.00  0.00    +0.001 A 
ATOM     10  C   UNL     1       3.821  -8.736  -2.107  0.00  0.00    +0.002 A 
ATOM     11  C   UNL     1       2.764  -7.999  -2.593  0.00  0.00    +0.026 A 
ATOM     12  C   UNL     1       1.751  -7.590  -1.731  0.00  0.00    +0.050 A 
ATOM     13  N   UNL     1       0.595  -6.867  -1.913  0.00  0.00    -0.338 N 
ATOM     14  C   UNL     1       0.129  -6.312  -3.186  0.00  0.00    +0.149 C 
ATOM     15 BR   UNL     1       0.224  -7.536   2.089  0.00  0.00    -0.047 Br
ENDBRANCH   2   5
BRANCH   1  19
ATOM     16  N   UNL     1      -1.403  -1.995  -0.063  0.00  0.00    -0.298 N 
ATOM     17  C   UNL     1      -2.564  -2.679  -0.098  0.00  0.00    +0.316 C 
ATOM     18  O   UNL     1      -3.622  -2.086  -0.007  0.00  0.00    -0.251 OA
ATOM     19  N   UNL     1      -2.552  -4.020  -0.233  0.00  0.00    -0.218 N 
ATOM     20  H   UNL     1      -0.559  -2.468  -0.135  0.00  0.00    +0.150 HD
ATOM     21  H   UNL     1      -3.388  -4.512  -0.258  0.00  0.00    +0.174 HD
BRANCH  16  22
ATOM     22  C   UNL     1      -1.416  -0.537   0.085  0.00  0.00    +0.108 C 
BRANCH  22  24
ATOM     23  C   UNL     1       0.006   1.516   0.123  0.00  0.00    +0.009 C 
ATOM     24  C   UNL     1       0.022  -0.013   0.095  0.00  0.00    -0.000 C 
ATOM     25  C   UNL     1       0.747  -0.539   1.335  0.00  0.00    +0.009 C 
ENDBRANCH  22  24
ENDBRANCH  16  22
ENDBRANCH   1  19
TORSDOF 4
