REMARK  Name = ZINC53264043
REMARK  5 active torsions:
REMARK  status: ('A' for Active; 'I' for Inactive)
REMARK    1  A    between atoms: C_1  and  C_2
REMARK    2  A    between atoms: N_16  and  C_17
REMARK    3  A    between atoms: C_17  and  C_18
REMARK    4  A    between atoms: N_23  and  C_24
REMARK    5  A    between atoms: C_24  and  C_25
REMARK                            x       y       z     vdW  Elec       q    Type
REMARK                         _______ _______ _______ _____ _____    ______ ____
ROOT
ATOM      1  C   UNL     1      -0.019   1.526   0.010  0.00  0.00    +0.031 C 
ATOM      2  C   UNL     1       0.002  -0.004   0.002  0.00  0.00    +0.101 C 
ATOM      3  C   UNL     1      -1.413  -0.531   0.023  0.00  0.00    +0.037 A 
ATOM      4  C   UNL     1      -1.804  -1.562   0.805  0.00  0.00    -0.016 A 
ATOM      5  C   UNL     1      -3.213  -1.777   0.558  0.00  0.00    +0.003 A 
ATOM      6  C   UNL     1      -4.141  -2.688   1.071  0.00  0.00    +0.010 A 
ATOM      7  C   UNL     1      -5.426  -2.599   0.597  0.00  0.00    +0.001 A 
ATOM      8  C   UNL     1      -5.800  -1.655  -0.346  0.00  0.00    +0.002 A 
ATOM      9  C   UNL     1      -4.903  -0.741  -0.871  0.00  0.00    +0.026 A 
ATOM     10  C   UNL     1      -3.590  -0.808  -0.408  0.00  0.00    +0.047 A 
ATOM     11  N   UNL     1      -2.477  -0.075  -0.708  0.00  0.00    -0.356 N 
ATOM     12  H   UNL     1      -2.445   0.658  -1.342  0.00  0.00    +0.166 HD
ATOM     13  C   UNL     1      -0.874  -2.299   1.736  0.00  0.00    +0.053 C 
ATOM     14  C   UNL     1       0.567  -1.953   1.338  0.00  0.00    +0.090 C 
ATOM     15  N   UNL     1       0.705  -0.496   1.198  0.00  0.00    -0.286 NA
ENDROOT
BRANCH  15  16
ATOM     16  C   UNL     1       2.118  -0.095   1.180  0.00  0.00    +0.181 C 
BRANCH  16  17
ATOM     17  C   UNL     1       2.743  -0.397   2.518  0.00  0.00    +0.234 C 
ATOM     18  O   UNL     1       2.076  -0.897   3.399  0.00  0.00    -0.274 OA
ATOM     19  N   UNL     1       4.042  -0.112   2.735  0.00  0.00    -0.239 N 
ATOM     20  C   UNL     1       4.600  -0.382   3.932  0.00  0.00    +0.306 C 
ATOM     21  O   UNL     1       3.933  -0.883   4.815  0.00  0.00    -0.252 OA
ATOM     22  N   UNL     1       5.900  -0.097   4.149  0.00  0.00    -0.291 N 
ATOM     23  H   UNL     1       4.575   0.288   2.030  0.00  0.00    +0.159 HD
ATOM     24  H   UNL     1       6.433   0.303   3.443  0.00  0.00    +0.151 HD
BRANCH  22  25
ATOM     25  C   UNL     1       6.507  -0.391   5.449  0.00  0.00    +0.219 C 
BRANCH  25  26
ATOM     26  C   UNL     1       7.979   0.027   5.431  0.00  0.00    +0.405 C 
ATOM     27  F   UNL     1       8.071   1.398   5.172  0.00  0.00    -0.169 F 
ATOM     28  F   UNL     1       8.559  -0.254   6.672  0.00  0.00    -0.169 F 
ATOM     29  F   UNL     1       8.652  -0.683   4.431  0.00  0.00    -0.169 F 
ENDBRANCH  25  26
ENDBRANCH  22  25
ENDBRANCH  16  17
ENDBRANCH  15  16
TORSDOF 4
