REMARK  Name = ZINC49049672
REMARK  4 active torsions:
REMARK  status: ('A' for Active; 'I' for Inactive)
REMARK    1  A    between atoms: C_3  and  N_11
REMARK    2  A    between atoms: C_4  and  C_8
REMARK    3  A    between atoms: N_11  and  S_12
REMARK    4  A    between atoms: S_12  and  C_15
REMARK                            x       y       z     vdW  Elec       q    Type
REMARK                         _______ _______ _______ _____ _____    ______ ____
ROOT
ATOM      1  C   UNL     1      -0.017   1.382   0.010  0.00  0.00    +0.022 A 
ATOM      2  C   UNL     1       1.164   2.097   0.002  0.00  0.00    +0.029 A 
ATOM      3  C   UNL     1       2.382   1.429  -0.013  0.00  0.00    +0.086 A 
ATOM      4  C   UNL     1       2.405   0.026  -0.021  0.00  0.00    +0.062 A 
ATOM      5  C   UNL     1       1.202  -0.684  -0.013  0.00  0.00    +0.035 A 
ATOM      6  C   UNL     1       0.002  -0.004   0.002  0.00  0.00    +0.042 A 
ATOM      7 CL   UNL     1      -1.492  -0.888   0.012  0.00  0.00    -0.084 Cl
ENDROOT
BRANCH   4   8
ATOM      8  C   UNL     1       3.691  -0.695  -0.037  0.00  0.00    +0.243 C 
ATOM      9  O   UNL     1       4.736  -0.073  -0.044  0.00  0.00    -0.270 OA
ATOM     10  N   UNL     1       3.708  -2.042  -0.045  0.00  0.00    -0.325 N 
ATOM     11  H   UNL     1       2.875  -2.538  -0.039  0.00  0.00    +0.145 HD
ATOM     12  H   UNL     1       4.555  -2.516  -0.056  0.00  0.00    +0.145 HD
ENDBRANCH   4   8
BRANCH   3  13
ATOM     13  N   UNL     1       3.571   2.147  -0.021  0.00  0.00    -0.097 NA
BRANCH  13  14
ATOM     14  S   UNL     1       3.539   3.803  -0.012  0.00  0.00    +0.098 S 
ATOM     15  O   UNL     1       2.969   4.205  -1.250  0.00  0.00    -0.148 OA
ATOM     16  O   UNL     1       2.993   4.192   1.240  0.00  0.00    -0.148 OA
BRANCH  14  17
ATOM     17  C   UNL     1       5.212   4.356  -0.026  0.00  0.00    +0.149 A 
ATOM     18  C   UNL     1       6.010   4.635  -1.085  0.00  0.00    +0.038 A 
ATOM     19  C   UNL     1       7.306   5.060  -0.855  0.00  0.00    +0.030 A 
ATOM     20  C   UNL     1       7.739   5.186   0.424  0.00  0.00    +0.080 A 
ATOM     21  S   UNL     1       6.293   4.703   1.353  0.00  0.00    -0.057 S 
ATOM     22 CL   UNL     1       9.294   5.691   1.007  0.00  0.00    -0.076 Cl
ENDBRANCH  14  17
ENDBRANCH  13  14
ENDBRANCH   3  13
TORSDOF 4
