REMARK  Name = ZINC35622103
REMARK  8 active torsions:
REMARK  status: ('A' for Active; 'I' for Inactive)
REMARK    1  A    between atoms: C_1  and  C_2
REMARK    2  A    between atoms: C_5  and  N_8
REMARK    3  A    between atoms: N_8  and  C_9
REMARK    4  A    between atoms: C_9  and  C_10
REMARK    5  A    between atoms: C_9  and  C_11
REMARK    6  A    between atoms: C_9  and  C_12
REMARK    7  A    between atoms: N_16  and  C_17
REMARK    8  A    between atoms: C_20  and  C_23
REMARK                            x       y       z     vdW  Elec       q    Type
REMARK                         _______ _______ _______ _____ _____    ______ ____
ROOT
ATOM      1  C   UNL     1       0.548  -5.103   1.846  0.00  0.00    +0.088 C 
ATOM      2  C   UNL     1       1.940  -4.903   2.447  0.00  0.00    +0.039 C 
ATOM      3  C   UNL     1      -0.505  -4.991   2.951  0.00  0.00    +0.039 C 
ENDROOT
BRANCH   1   4
ATOM      4  C   UNL     1       0.466  -6.468   1.212  0.00  0.00    +0.179 A 
ATOM      5  N   UNL     1      -0.482  -7.350   1.390  0.00  0.00    -0.111 NA
ATOM      6  N   UNL     1      -0.250  -8.409   0.702  0.00  0.00    -0.023 NA
ATOM      7  N   UNL     1       0.851  -8.280   0.043  0.00  0.00    -0.039 NA
ATOM      8  N   UNL     1       1.355  -7.004   0.348  0.00  0.00    -0.195 N 
BRANCH   8   9
ATOM      9  C   UNL     1       2.532  -6.415  -0.138  0.00  0.00    +0.069 A 
ATOM     10  C   UNL     1       3.716  -7.139  -0.157  0.00  0.00    +0.028 A 
ATOM     11  C   UNL     1       4.873  -6.556  -0.636  0.00  0.00    +0.005 A 
ATOM     12  C   UNL     1       4.853  -5.252  -1.095  0.00  0.00    -0.050 A 
ATOM     13  C   UNL     1       3.675  -4.528  -1.078  0.00  0.00    +0.005 A 
ATOM     14  C   UNL     1       2.514  -5.108  -0.606  0.00  0.00    +0.028 A 
ATOM     15  C   UNL     1       6.117  -4.619  -1.616  0.00  0.00    +0.044 C 
ENDBRANCH   8   9
ENDBRANCH   1   4
BRANCH   1  16
ATOM     16  N   UNL     1       0.302  -4.077   0.831  0.00  0.00    -0.332 N 
ATOM     17  H   UNL     1       0.034  -4.335  -0.065  0.00  0.00    +0.147 HD
BRANCH  16  22
ATOM     18  C   UNL     1       0.918   1.407   2.136  0.00  0.00    +0.044 C 
ATOM     19  C   UNL     1       0.754  -0.050   1.789  0.00  0.00    -0.050 A 
ATOM     20  C   UNL     1       0.834  -1.009   2.783  0.00  0.00    +0.005 A 
ATOM     21  C   UNL     1       0.684  -2.345   2.468  0.00  0.00    +0.023 A 
ATOM     22  C   UNL     1       0.453  -2.726   1.152  0.00  0.00    +0.028 A 
ATOM     23  C   UNL     1       0.374  -1.760   0.157  0.00  0.00    +0.023 A 
ATOM     24  C   UNL     1       0.519  -0.425   0.479  0.00  0.00    +0.005 A 
ENDBRANCH  16  22
ENDBRANCH   1  16
TORSDOF 4
