REMARK  Name = ZINC58090878
REMARK  9 active torsions:
REMARK  status: ('A' for Active; 'I' for Inactive)
REMARK    1  A    between atoms: C_1  and  C_2
REMARK    2  A    between atoms: C_4  and  C_25
REMARK    3  A    between atoms: N_6  and  S_8
REMARK    4  A    between atoms: S_8  and  C_11
REMARK    5  A    between atoms: C_15  and  C_17
REMARK    6  A    between atoms: N_19  and  N_20
REMARK    7  A    between atoms: N_20  and  C_21
REMARK    8  A    between atoms: C_21  and  N_23
REMARK    9  A    between atoms: N_23  and  C_24
REMARK                            x       y       z     vdW  Elec       q    Type
REMARK                         _______ _______ _______ _____ _____    ______ ____
ROOT
ATOM      1  C   UNL     1       2.626   2.447   2.072  0.00  0.00    +0.106 A 
ATOM      2  C   UNL     1       3.557   3.149   1.326  0.00  0.00    +0.028 A 
ATOM      3  C   UNL     1       3.375   4.496   1.071  0.00  0.00    +0.003 A 
ATOM      4  C   UNL     1       2.262   5.150   1.558  0.00  0.00    +0.013 A 
ATOM      5  C   UNL     1       1.319   4.448   2.311  0.00  0.00    +0.040 A 
ATOM      6  C   UNL     1       1.506   3.088   2.560  0.00  0.00    +0.041 A 
ENDROOT
BRANCH   5   7
ATOM      7  C   UNL     1       0.124   5.142   2.836  0.00  0.00    +0.260 C 
ATOM      8  O   UNL     1      -0.696   4.529   3.491  0.00  0.00    -0.269 OA
ATOM      9  N   UNL     1      -0.057   6.455   2.589  0.00  0.00    -0.231 N 
ATOM     10  H   UNL     1       0.598   6.944   2.066  0.00  0.00    +0.173 HD
BRANCH   9  11
ATOM     11  N   UNL     1      -1.189   7.112   3.087  0.00  0.00    -0.246 N 
ATOM     12  H   UNL     1      -1.843   6.623   3.610  0.00  0.00    +0.172 HD
BRANCH  11  13
ATOM     13  C   UNL     1      -1.369   8.425   2.840  0.00  0.00    +0.147 C 
ATOM     14  S   UNL     1      -2.753   9.229   3.448  0.00  0.00    -0.017 S 
BRANCH  13  15
ATOM     15  N   UNL     1      -0.460   9.105   2.114  0.00  0.00    -0.329 N 
ATOM     16  C   UNL     1      -0.656  10.532   1.845  0.00  0.00    +0.127 C 
ATOM     17  H   UNL     1       0.324   8.650   1.769  0.00  0.00    +0.147 HD
ENDBRANCH  13  15
ENDBRANCH  11  13
ENDBRANCH   9  11
ENDBRANCH   5   7
BRANCH   1  18
ATOM     18  S   UNL     1       2.867   0.732   2.392  0.00  0.00    +0.061 S 
ATOM     19  O   UNL     1       2.127   0.430   3.567  0.00  0.00    -0.153 OA
ATOM     20  O   UNL     1       4.264   0.492   2.288  0.00  0.00    -0.153 OA
BRANCH  18  26
ATOM     21  C   UNL     1      -0.019   1.526   0.010  0.00  0.00    +0.009 C 
ATOM     22  C   UNL     1       0.002  -0.004   0.002  0.00  0.00    +0.002 C 
ATOM     23  C   UNL     1       0.722  -0.498  -1.255  0.00  0.00    +0.009 C 
ATOM     24  C   UNL     1       2.147   0.059  -1.281  0.00  0.00    +0.002 C 
ATOM     25  C   UNL     1       2.912  -0.448  -0.055  0.00  0.00    +0.112 C 
ATOM     26  N   UNL     1       2.151  -0.103   1.154  0.00  0.00    -0.176 NA
ATOM     27  C   UNL     1       0.743  -0.512   1.243  0.00  0.00    +0.112 C 
ATOM     28  C   UNL     1       2.855  -0.409  -2.554  0.00  0.00    +0.009 C 
ENDBRANCH  18  26
ENDBRANCH   1  18
TORSDOF 6
