REMARK  Name = ZINC40983304
REMARK  10 active torsions:
REMARK  status: ('A' for Active; 'I' for Inactive)
REMARK    1  A    between atoms: C_1  and  C_2
REMARK    2  A    between atoms: C_2  and  C_3
REMARK    3  A    between atoms: C_3  and  C_4
REMARK    4  A    between atoms: C_4  and  S_5
REMARK    5  A    between atoms: S_5  and  C_6
REMARK    6  A    between atoms: C_11  and  C_21
REMARK    7  A    between atoms: C_26  and  O_27
REMARK    8  A    between atoms: O_27  and  C_28
REMARK    9  A    between atoms: C_28  and  C_29
REMARK   10  A    between atoms: C_29  and  C_30
REMARK                            x       y       z     vdW  Elec       q    Type
REMARK                         _______ _______ _______ _____ _____    ______ ____
ROOT
ATOM      1  C   UNL     1      -2.923  -4.443   0.006  0.00  0.00    +0.210 A 
ATOM      2  N   UNL     1      -1.753  -5.098  -0.003  0.00  0.00    -0.187 NA
ATOM      3  C   UNL     1      -1.973  -6.384  -0.007  0.00  0.00    +0.219 A 
ATOM      4  N   UNL     1      -3.315  -6.582  -0.006  0.00  0.00    -0.220 N 
ATOM      5  N   UNL     1      -3.904  -5.319   0.011  0.00  0.00    -0.141 NA
ATOM      6  C   UNL     1      -3.930  -7.903  -0.019  0.00  0.00    +0.179 C 
ATOM      7  C   UNL     1      -2.898  -8.959   0.310  0.00  0.00    +0.041 C 
ATOM      8  C   UNL     1      -1.573  -8.697   0.292  0.00  0.00    +0.020 C 
ATOM      9  N   UNL     1      -1.086  -7.448  -0.009  0.00  0.00    -0.287 N 
ATOM     10  C   UNL     1      -0.565  -9.778   0.600  0.00  0.00    +0.052 C 
ATOM     11  C   UNL     1      -1.161 -10.766   1.606  0.00  0.00    +0.014 C 
ATOM     12  C   UNL     1      -2.438 -11.359   1.000  0.00  0.00    +0.080 C 
ATOM     13  C   UNL     1      -3.375 -10.239   0.642  0.00  0.00    +0.163 C 
ATOM     14  O   UNL     1      -4.573 -10.446   0.640  0.00  0.00    -0.292 OA
ATOM     15  H   UNL     1      -0.148  -7.315  -0.217  0.00  0.00    +0.155 HD
ENDROOT
BRANCH   6  16
ATOM     16  C   UNL     1      -4.502  -8.175  -1.386  0.00  0.00    +0.023 A 
ATOM     17  C   UNL     1      -3.674  -8.186  -2.492  0.00  0.00    +0.009 A 
ATOM     18  C   UNL     1      -4.199  -8.434  -3.747  0.00  0.00    +0.001 A 
ATOM     19  C   UNL     1      -5.552  -8.673  -3.899  0.00  0.00    +0.004 A 
ATOM     20  C   UNL     1      -6.384  -8.664  -2.796  0.00  0.00    +0.046 A 
ATOM     21  C   UNL     1      -5.859  -8.420  -1.535  0.00  0.00    +0.126 A 
BRANCH  21  22
ATOM     22  O   UNL     1      -6.675  -8.416  -0.448  0.00  0.00    -0.492 OA
BRANCH  22  23
ATOM     23  C   UNL     1      -8.062  -8.676  -0.676  0.00  0.00    +0.229 C 
BRANCH  23  24
ATOM     24  C   UNL     1      -8.815  -8.630   0.655  0.00  0.00    +0.038 C 
ATOM     25  C   UNL     1     -10.299  -8.908   0.411  0.00  0.00    +0.007 C 
ENDBRANCH  23  24
ENDBRANCH  22  23
ENDBRANCH  21  22
ENDBRANCH   6  16
BRANCH   1  26
ATOM     26  S   UNL     1      -3.114  -2.691   0.017  0.00  0.00    -0.084 S 
BRANCH  26  27
ATOM     27  C   UNL     1      -1.413  -2.063   0.004  0.00  0.00    +0.077 C 
BRANCH  27  28
ATOM     28  C   UNL     1      -1.433  -0.534   0.013  0.00  0.00    +0.011 C 
BRANCH  28  30
ATOM     29  C   UNL     1      -0.019   1.526   0.010  0.00  0.00    +0.004 C 
ATOM     30  C   UNL     1       0.002  -0.004   0.002  0.00  0.00    -0.003 C 
ENDBRANCH  28  30
ENDBRANCH  27  28
ENDBRANCH  26  27
ENDBRANCH   1  26
TORSDOF 8
