REMARK  Name = ZINC34791603
REMARK  7 active torsions:
REMARK  status: ('A' for Active; 'I' for Inactive)
REMARK    1  A    between atoms: C_1  and  N_2
REMARK    2  A    between atoms: C_5  and  C_10
REMARK    3  A    between atoms: N_19  and  C_21
REMARK    4  A    between atoms: C_21  and  C_23
REMARK    5  A    between atoms: C_21  and  C_30
REMARK    6  A    between atoms: C_23  and  C_24
REMARK    7  A    between atoms: N_32  and  C_33
REMARK                            x       y       z     vdW  Elec       q    Type
REMARK                         _______ _______ _______ _____ _____    ______ ____
ROOT
ATOM      1  C   UNL     1      -0.018   1.461   0.010  0.00  0.00    +0.139 C 
ATOM      2  N   UNL     1       0.002  -0.004   0.002  0.00  0.00    -0.260 N 
ATOM      3  C   UNL     1      -1.193  -0.666   0.004  0.00  0.00    +0.042 C 
ATOM      4  C   UNL     1      -1.245  -2.013  -0.003  0.00  0.00    +0.058 C 
ATOM      5  C   UNL     1       0.068  -2.769  -0.014  0.00  0.00    +0.143 C 
ATOM      6  N   UNL     1       1.301  -1.964  -0.016  0.00  0.00    -0.288 N 
ATOM      7  C   UNL     1       1.191  -0.621  -0.013  0.00  0.00    +0.307 C 
ATOM      8  O   UNL     1       2.203   0.052  -0.018  0.00  0.00    -0.252 OA
ATOM      9  C   UNL     1      -2.585  -2.452   0.002  0.00  0.00    +0.247 C 
ATOM     10  O   UNL     1      -2.927  -3.620  -0.003  0.00  0.00    -0.270 OA
ATOM     11  N   UNL     1      -3.437  -1.411   0.012  0.00  0.00    -0.280 N 
ATOM     12  C   UNL     1      -2.626  -0.184   0.015  0.00  0.00    +0.160 C 
ATOM     13  H   UNL     1       2.172  -2.391  -0.023  0.00  0.00    +0.151 HD
ENDROOT
BRANCH   5  14
ATOM     14  C   UNL     1       0.100  -3.664   1.198  0.00  0.00    -0.004 A 
ATOM     15  C   UNL     1       0.712  -3.232   2.360  0.00  0.00    +0.007 A 
ATOM     16  C   UNL     1       0.741  -4.052   3.472  0.00  0.00    +0.000 A 
ATOM     17  C   UNL     1       0.157  -5.305   3.424  0.00  0.00    +0.001 A 
ATOM     18  C   UNL     1      -0.455  -5.737   2.263  0.00  0.00    +0.020 A 
ATOM     19  C   UNL     1      -0.490  -4.915   1.151  0.00  0.00    +0.046 A 
ATOM     20 CL   UNL     1      -1.265  -5.455  -0.305  0.00  0.00    -0.083 Cl
ENDBRANCH   5  14
BRANCH  11  21
ATOM     21  C   UNL     1      -4.900  -1.485   0.019  0.00  0.00    +0.167 C 
BRANCH  21  22
ATOM     22  C   UNL     1      -5.359  -2.227   1.248  0.00  0.00    +0.234 C 
ATOM     23  O   UNL     1      -4.545  -2.652   2.040  0.00  0.00    -0.274 OA
ATOM     24  N   UNL     1      -6.676  -2.418   1.467  0.00  0.00    -0.311 N 
ATOM     25  H   UNL     1      -7.327  -2.079   0.834  0.00  0.00    +0.149 HD
BRANCH  24  26
ATOM     26  C   UNL     1      -7.122  -3.140   2.661  0.00  0.00    +0.073 C 
ATOM     27  C   UNL     1      -7.098  -4.645   2.387  0.00  0.00    +0.022 C 
ATOM     28  C   UNL     1      -7.565  -5.398   3.634  0.00  0.00    +0.002 C 
ATOM     29  C   UNL     1      -8.989  -4.966   3.988  0.00  0.00    +0.000 C 
ATOM     30  C   UNL     1      -9.013  -3.461   4.262  0.00  0.00    +0.002 C 
ATOM     31  C   UNL     1      -8.547  -2.708   3.015  0.00  0.00    +0.022 C 
ENDBRANCH  24  26
ENDBRANCH  21  22
BRANCH  21  32
ATOM     32  C   UNL     1      -5.379  -2.224  -1.232  0.00  0.00    +0.067 C 
BRANCH  32  33
ATOM     33  C   UNL     1      -5.027  -1.420  -2.456  0.00  0.00    -0.045 A 
ATOM     34  C   UNL     1      -5.916  -0.481  -2.946  0.00  0.00    +0.004 A 
ATOM     35  C   UNL     1      -5.592   0.257  -4.069  0.00  0.00    +0.000 A 
ATOM     36  C   UNL     1      -4.380   0.056  -4.703  0.00  0.00    +0.000 A 
ATOM     37  C   UNL     1      -3.491  -0.882  -4.213  0.00  0.00    +0.000 A 
ATOM     38  C   UNL     1      -3.813  -1.617  -3.087  0.00  0.00    +0.004 A 
ENDBRANCH  32  33
ENDBRANCH  21  32
ENDBRANCH  11  21
TORSDOF 6
