REMARK  Name = ZINC45521112
REMARK  6 active torsions:
REMARK  status: ('A' for Active; 'I' for Inactive)
REMARK    1  A    between atoms: C_1  and  C_2
REMARK    2  A    between atoms: C_7  and  N_8
REMARK    3  A    between atoms: N_8  and  C_9
REMARK    4  A    between atoms: C_9  and  C_10
REMARK    5  A    between atoms: N_12  and  C_13
REMARK    6  A    between atoms: C_13  and  C_19
REMARK                            x       y       z     vdW  Elec       q    Type
REMARK                         _______ _______ _______ _____ _____    ______ ____
ROOT
ATOM      1  C   UNL     1       0.045   0.214   4.831  0.00  0.00    +0.231 C 
ATOM      2  O   UNL     1       0.027   1.407   4.618  0.00  0.00    -0.274 OA
ATOM      3  N   UNL     1       0.063  -0.245   6.098  0.00  0.00    -0.296 N 
ATOM      4  H   UNL     1       0.078  -1.200   6.269  0.00  0.00    +0.150 HD
ENDROOT
BRANCH   3   5
ATOM      5  C   UNL     1       0.061   0.699   7.219  0.00  0.00    +0.121 C 
ATOM      6  C   UNL     1       1.297   1.596   7.132  0.00  0.00    +0.041 C 
ATOM      7  C   UNL     1       1.295   2.582   8.303  0.00  0.00    +0.003 C 
ATOM      8  C   UNL     1       1.318   1.808   9.622  0.00  0.00    +0.000 C 
ATOM      9  C   UNL     1       0.082   0.911   9.708  0.00  0.00    +0.003 C 
ATOM     10  C   UNL     1       0.084  -0.075   8.538  0.00  0.00    +0.041 C 
BRANCH   5  11
ATOM     11  C   UNL     1      -1.153   1.530   7.158  0.00  0.00    +0.088 C 
ATOM     12  N   UNL     1      -2.090   2.171   7.112  0.00  0.00    -0.194 NA
ENDBRANCH   5  11
ENDBRANCH   3   5
BRANCH   1  13
ATOM     13  C   UNL     1       0.047  -0.757   3.679  0.00  0.00    +0.197 C 
BRANCH  13  14
ATOM     14  N   UNL     1       0.025  -0.016   2.415  0.00  0.00    -0.335 N 
ATOM     15  H   UNL     1       0.012   0.954   2.422  0.00  0.00    +0.147 HD
BRANCH  14  22
ATOM     16  C   UNL     1      -0.018   1.503   0.010  0.00  0.00    +0.045 C 
ATOM     17  C   UNL     1       0.002  -0.004   0.002  0.00  0.00    -0.029 A 
ATOM     18  C   UNL     1       0.006  -0.689  -1.198  0.00  0.00    +0.019 A 
ATOM     19  C   UNL     1       0.024  -2.072  -1.206  0.00  0.00    +0.014 A 
ATOM     20  C   UNL     1       0.039  -2.774  -0.014  0.00  0.00    +0.016 A 
ATOM     21  C   UNL     1       0.035  -2.095   1.189  0.00  0.00    +0.024 A 
ATOM     22  C   UNL     1       0.023  -0.706   1.200  0.00  0.00    +0.031 A 
ATOM     23  I   UNL     1       0.030  -3.106  -3.028  0.00  0.00    -0.044 I 
ENDBRANCH  14  22
ENDBRANCH  13  14
ENDBRANCH   1  13
TORSDOF 5
