REMARK  Name = ZINC45568849
REMARK  8 active torsions:
REMARK  status: ('A' for Active; 'I' for Inactive)
REMARK    1  A    between atoms: C_1  and  C_2
REMARK    2  A    between atoms: C_6  and  C_18
REMARK    3  A    between atoms: N_8  and  C_9
REMARK    4  A    between atoms: C_14  and  N_15
REMARK    5  A    between atoms: N_20  and  C_21
REMARK    6  A    between atoms: C_21  and  C_22
REMARK    7  A    between atoms: C_22  and  C_24
REMARK    8  A    between atoms: C_22  and  N_30
REMARK                            x       y       z     vdW  Elec       q    Type
REMARK                         _______ _______ _______ _____ _____    ______ ____
ROOT
ATOM      1  C   UNL     1       0.732  -3.781   0.146  0.00  0.00    +0.268 C 
ATOM      2  O   UNL     1       0.717  -4.535  -0.807  0.00  0.00    -0.268 OA
ATOM      3  N   UNL     1       0.806  -4.277   1.397  0.00  0.00    -0.311 N 
ATOM      4  H   UNL     1       0.819  -3.675   2.158  0.00  0.00    +0.149 HD
ENDROOT
BRANCH   1  10
ATOM      5  C   UNL     1       0.498   1.885  -0.488  0.00  0.00    +0.066 C 
ATOM      6  C   UNL     1       0.556   0.381  -0.407  0.00  0.00    +0.044 A 
ATOM      7  C   UNL     1       0.532  -0.351  -1.546  0.00  0.00    +0.076 A 
ATOM      8  C   UNL     1       0.589  -1.764  -1.426  0.00  0.00    +0.213 A 
ATOM      9  O   UNL     1       0.572  -2.487  -2.410  0.00  0.00    -0.285 OA
ATOM     10  C   UNL     1       0.670  -2.321  -0.066  0.00  0.00    +0.192 A 
ATOM     11  N   UNL     1       0.685  -1.493   0.957  0.00  0.00    -0.158 NA
ATOM     12  N   UNL     1       0.637  -0.221   0.805  0.00  0.00    -0.234 N 
BRANCH  12  13
ATOM     13  C   UNL     1       0.664   0.586   1.947  0.00  0.00    +0.096 A 
ATOM     14  C   UNL     1       1.868   1.111   2.401  0.00  0.00    +0.030 A 
ATOM     15  C   UNL     1       1.891   1.907   3.529  0.00  0.00    +0.002 A 
ATOM     16  C   UNL     1       0.717   2.183   4.207  0.00  0.00    +0.002 A 
ATOM     17  C   UNL     1      -0.483   1.662   3.758  0.00  0.00    +0.035 A 
ATOM     18  C   UNL     1      -0.514   0.870   2.627  0.00  0.00    +0.151 A 
BRANCH  18  19
ATOM     19  N   UNL     1      -1.799   0.318   2.143  0.00  0.00    +0.059 N 
ATOM     20  O   UNL     1      -2.824   0.565   2.736  0.00  0.00    -0.126 OA
ATOM     21  O   UNL     1      -1.825  -0.380   1.157  0.00  0.00    -0.126 OA
ENDBRANCH  18  19
ENDBRANCH  12  13
ENDBRANCH   1  10
BRANCH   3  22
ATOM     22  C   UNL     1       0.868  -5.725   1.608  0.00  0.00    +0.094 C 
BRANCH  22  23
ATOM     23  C   UNL     1       0.835  -6.024   3.108  0.00  0.00    -0.020 C 
BRANCH  23  24
ATOM     24  C   UNL     1       2.085  -5.485   3.755  0.00  0.00    -0.059 A 
ATOM     25  C   UNL     1       3.268  -6.194   3.670  0.00  0.00    +0.002 A 
ATOM     26  C   UNL     1       4.415  -5.699   4.264  0.00  0.00    +0.000 A 
ATOM     27  C   UNL     1       4.377  -4.495   4.943  0.00  0.00    +0.000 A 
ATOM     28  C   UNL     1       3.193  -3.786   5.027  0.00  0.00    +0.000 A 
ATOM     29  C   UNL     1       2.048  -4.279   4.430  0.00  0.00    +0.002 A 
ENDBRANCH  23  24
BRANCH  23  30
ATOM     30  N   UNL     1       0.763  -7.476   3.317  0.00  0.00    +0.385 N 
ATOM     31  C   UNL     1       0.682  -7.782   4.768  0.00  0.00    -0.078 C 
ATOM     32  C   UNL     1       0.061  -9.201   4.797  0.00  0.00    -0.020 C 
ATOM     33  C   UNL     1      -0.961  -9.155   3.638  0.00  0.00    -0.020 C 
ATOM     34  C   UNL     1      -0.478  -8.017   2.721  0.00  0.00    -0.078 C 
ATOM     35  H   UNL     1       1.569  -7.927   2.910  0.00  0.00    -0.081 HD
ENDBRANCH  23  30
ENDBRANCH  22  23
ENDBRANCH   3  22
TORSDOF 7
