REMARK  Name = ZINC42429350
REMARK  5 active torsions:
REMARK  status: ('A' for Active; 'I' for Inactive)
REMARK    1  A    between atoms: C_1  and  C_2
REMARK    2  A    between atoms: C_6  and  C_21
REMARK    3  A    between atoms: N_9  and  C_10
REMARK    4  A    between atoms: C_13  and  N_18
REMARK    5  A    between atoms: C_15  and  C_16
REMARK                            x       y       z     vdW  Elec       q    Type
REMARK                         _______ _______ _______ _____ _____    ______ ____
ROOT
ATOM      1  C   UNL     1      -0.019   1.526   0.010  0.00  0.00    +0.028 C 
ATOM      2  C   UNL     1       0.002  -0.004   0.002  0.00  0.00    +0.070 C 
ATOM      3  C   UNL     1       0.725  -0.501  -1.254  0.00  0.00    +0.023 C 
ATOM      4  C   UNL     1       0.865  -2.023  -1.188  0.00  0.00    +0.016 C 
ATOM      5  C   UNL     1       1.701  -2.408   0.034  0.00  0.00    +0.092 C 
ATOM      6  C   UNL     1       0.989  -1.933   1.305  0.00  0.00    +0.118 C 
ATOM      7  N   UNL     1       0.718  -0.493   1.188  0.00  0.00    -0.326 N 
ENDROOT
BRANCH   7   8
ATOM      8  C   UNL     1       1.133   0.387   2.176  0.00  0.00    +0.040 A 
ATOM      9  C   UNL     1       0.298   0.679   3.248  0.00  0.00    +0.026 A 
ATOM     10  C   UNL     1       0.713   1.554   4.229  0.00  0.00    +0.034 A 
ATOM     11  C   UNL     1       1.963   2.151   4.157  0.00  0.00    +0.127 A 
ATOM     12  C   UNL     1       2.806   1.877   3.105  0.00  0.00    +0.045 A 
ATOM     13  C   UNL     1       2.404   0.985   2.102  0.00  0.00    +0.037 A 
BRANCH  11  14
ATOM     14  N   UNL     1       2.393   3.090   5.218  0.00  0.00    +0.056 N 
ATOM     15  O   UNL     1       1.655   3.334   6.144  0.00  0.00    -0.126 OA
ATOM     16  O   UNL     1       3.481   3.612   5.159  0.00  0.00    -0.126 OA
ENDBRANCH  11  14
BRANCH  13  17
ATOM     17  C   UNL     1       3.299   0.682   0.981  0.00  0.00    +0.260 C 
ATOM     18  O   UNL     1       4.394   1.201   0.921  0.00  0.00    -0.296 OA
ENDBRANCH  13  17
ENDBRANCH   7   8
BRANCH   5  19
ATOM     19  C   UNL     1       1.866  -3.906   0.080  0.00  0.00    +0.215 C 
ATOM     20  O   UNL     1       1.458  -4.532   1.035  0.00  0.00    -0.276 OA
ATOM     21  N   UNL     1       2.467  -4.548  -0.941  0.00  0.00    -0.329 N 
ATOM     22  H   UNL     1       2.794  -4.047  -1.705  0.00  0.00    +0.145 HD
ATOM     23  H   UNL     1       2.574  -5.512  -0.912  0.00  0.00    +0.145 HD
ENDBRANCH   5  19
TORSDOF 4
