REMARK  Name = ZINC65651399
REMARK  5 active torsions:
REMARK  status: ('A' for Active; 'I' for Inactive)
REMARK    1  A    between atoms: C_3  and  C_8
REMARK    2  A    between atoms: C_11  and  C_13
REMARK    3  A    between atoms: C_15  and  C_16
REMARK    4  A    between atoms: C_15  and  C_18
REMARK    5  A    between atoms: N_20  and  C_21
REMARK                            x       y       z     vdW  Elec       q    Type
REMARK                         _______ _______ _______ _____ _____    ______ ____
ROOT
ATOM      1  C   UNL     1       4.229   0.977   2.211  0.00  0.00    +0.182 C 
ATOM      2  O   UNL     1       3.981  -0.304   1.886  0.00  0.00    -0.291 OA
ATOM      3  C   UNL     1       4.099   1.390   3.503  0.00  0.00    +0.156 C 
ENDROOT
BRANCH   3   4
ATOM      4  C   UNL     1       3.687   0.436   4.542  0.00  0.00    +0.262 C 
ATOM      5  O   UNL     1       3.462  -0.724   4.249  0.00  0.00    -0.269 OA
ATOM      6  N   UNL     1       3.558   0.845   5.820  0.00  0.00    -0.281 N 
ATOM      7  H   UNL     1       3.802   1.751   6.066  0.00  0.00    +0.155 HD
BRANCH   6   8
ATOM      8  C   UNL     1       3.073  -0.039   6.792  0.00  0.00    +0.037 A 
ATOM      9  C   UNL     1       3.393  -1.388   6.727  0.00  0.00    +0.027 A 
ATOM     10  C   UNL     1       2.913  -2.260   7.685  0.00  0.00    +0.051 A 
ATOM     11  C   UNL     1       2.111  -1.791   8.715  0.00  0.00    +0.162 A 
ATOM     12  C   UNL     1       1.791  -0.440   8.785  0.00  0.00    +0.164 A 
ATOM     13  C   UNL     1       2.276   0.435   7.825  0.00  0.00    +0.072 A 
ATOM     14  O   UNL     1       1.012   0.040   9.792  0.00  0.00    -0.485 OA
ATOM     15  C   UNL     1       0.244  -0.921  10.525  0.00  0.00    +0.270 C 
ATOM     16  C   UNL     1       1.158  -2.104  10.871  0.00  0.00    +0.270 C 
ATOM     17  O   UNL     1       1.645  -2.667   9.648  0.00  0.00    -0.485 OA
ENDBRANCH   6   8
ENDBRANCH   3   4
BRANCH   1  20
ATOM     18  C   UNL     1       3.687   2.191  -0.020  0.00  0.00    +0.030 C 
ATOM     19  C   UNL     1       4.975   1.395  -0.242  0.00  0.00    +0.021 C 
ATOM     20  C   UNL     1       4.651   1.955   1.145  0.00  0.00    +0.069 C 
BRANCH  18  23
ATOM     21  C   UNL     1      -0.006   1.408   0.006  0.00  0.00    +0.003 A 
ATOM     22  C   UNL     1       1.186   2.108   0.001  0.00  0.00    +0.004 A 
ATOM     23  C   UNL     1       2.389   1.427  -0.014  0.00  0.00    -0.041 A 
ATOM     24  C   UNL     1       2.400   0.044  -0.023  0.00  0.00    +0.042 A 
ATOM     25  C   UNL     1       1.207  -0.657  -0.018  0.00  0.00    +0.124 A 
ATOM     26  C   UNL     1       0.003   0.026  -0.003  0.00  0.00    +0.038 A 
ATOM     27  F   UNL     1       1.218  -2.008  -0.027  0.00  0.00    -0.205 F 
ENDBRANCH  18  23
ENDBRANCH   1  20
BRANCH   3  28
ATOM     28  C   UNL     1       4.363   2.755   3.848  0.00  0.00    +0.108 C 
ATOM     29  N   UNL     1       4.573   3.837   4.122  0.00  0.00    -0.191 NA
ENDBRANCH   3  28
TORSDOF 5
