REMARK  Name = ZINC03516496
REMARK  5 active torsions:
REMARK  status: ('A' for Active; 'I' for Inactive)
REMARK    1  A    between atoms: C_2  and  C_3
REMARK    2  A    between atoms: C_3  and  N_4
REMARK    3  A    between atoms: C_8  and  C_10
REMARK    4  A    between atoms: C_10  and  O_11
REMARK    5  A    between atoms: O_11  and  C_12
REMARK                            x       y       z     vdW  Elec       q    Type
REMARK                         _______ _______ _______ _____ _____    ______ ____
ROOT
ATOM      1  O   UNL     1      -4.775   0.264  -2.256  0.00  0.00    -0.466 OA
ENDROOT
BRANCH   1   2
ATOM      2  C   UNL     1      -5.191   0.430  -0.978  0.00  0.00    +0.227 A 
ATOM      3  C   UNL     1      -4.292   0.774   0.070  0.00  0.00    +0.073 A 
ATOM      4  C   UNL     1      -2.859   0.992  -0.038  0.00  0.00    -0.023 A 
ATOM      5  C   UNL     1      -2.206   1.312   1.102  0.00  0.00    -0.004 A 
ATOM      6  S   UNL     1      -3.454   1.339   2.364  0.00  0.00    -0.073 S 
ATOM      7  C   UNL     1      -4.848   0.922   1.367  0.00  0.00    +0.116 A 
ATOM      8  N   UNL     1      -6.128   0.756   1.629  0.00  0.00    -0.228 NA
ATOM      9  C   UNL     1      -6.911   0.436   0.606  0.00  0.00    +0.226 A 
ATOM     10  N   UNL     1      -6.464   0.283  -0.625  0.00  0.00    -0.201 NA
ATOM     11  C   UNL     1      -0.738   1.584   1.266  0.00  0.00    +0.043 C 
ATOM     12  C   UNL     1      -0.013   1.086   0.008  0.00  0.00    +0.005 C 
ATOM     13  C   UNL     1      -0.760   1.597  -1.227  0.00  0.00    +0.005 C 
ATOM     14  C   UNL     1      -2.101   0.874  -1.358  0.00  0.00    +0.037 C 
ENDBRANCH   1   2
BRANCH   1  15
ATOM     15  C   UNL     1      -5.770  -0.081  -3.222  0.00  0.00    +0.326 C 
BRANCH  15  20
ATOM     16  N   UNL     1      -6.051  -0.998  -7.933  0.00  0.00    -0.296 N 
ATOM     17  C   UNL     1      -5.301  -0.675  -6.861  0.00  0.00    +0.306 C 
ATOM     18  O   UNL     1      -4.105  -0.499  -6.987  0.00  0.00    -0.252 OA
ATOM     19  N   UNL     1      -5.877  -0.547  -5.649  0.00  0.00    -0.237 N 
ATOM     20  C   UNL     1      -5.126  -0.224  -4.577  0.00  0.00    +0.258 C 
ATOM     21  O   UNL     1      -3.933  -0.048  -4.703  0.00  0.00    -0.272 OA
ATOM     22  H   UNL     1      -7.006  -1.139  -7.832  0.00  0.00    +0.151 HD
ATOM     23  H   UNL     1      -6.831  -0.688  -5.548  0.00  0.00    +0.159 HD
BRANCH  16  24
ATOM     24  C   UNL     1      -5.425  -1.137  -9.250  0.00  0.00    +0.132 C 
BRANCH  24  26
ATOM     25  C   UNL     1      -6.626  -0.767 -11.344  0.00  0.00    +0.005 C 
ATOM     26  C   UNL     1      -6.475  -1.501 -10.269  0.00  0.00    -0.016 C 
ENDBRANCH  24  26
ENDBRANCH  16  24
ENDBRANCH  15  20
ENDBRANCH   1  15
TORSDOF 5
