REMARK  Name = ZINC26560326
REMARK  7 active torsions:
REMARK  status: ('A' for Active; 'I' for Inactive)
REMARK    1  A    between atoms: C_1  and  C_2
REMARK    2  A    between atoms: C_10  and  C_11
REMARK    3  A    between atoms: N_13  and  N_14
REMARK    4  A    between atoms: C_15  and  C_17
REMARK    5  A    between atoms: C_17  and  C_19
REMARK    6  A    between atoms: C_17  and  N_20
REMARK    7  A    between atoms: C_21  and  C_23
REMARK                            x       y       z     vdW  Elec       q    Type
REMARK                         _______ _______ _______ _____ _____    ______ ____
ROOT
ATOM      1  N   UNL     1       1.193   1.683  -0.000  0.00  0.00    -0.233 N 
ATOM      2  C   UNL     1       2.369   1.025  -0.015  0.00  0.00    +0.249 C 
ATOM      3  O   UNL     1       2.385  -0.188  -0.022  0.00  0.00    -0.272 OA
ATOM      4  H   UNL     1       1.178   2.783   0.006  0.00  0.00    +0.173 HD
ENDROOT
BRANCH   1   7
ATOM      5  C   UNL     1      -1.187   1.624   0.017  0.00  0.00    +0.296 C 
ATOM      6  O   UNL     1      -1.204   2.840   0.023  0.00  0.00    -0.265 OA
ATOM      7  N   UNL     1      -0.011   0.966   0.007  0.00  0.00    -0.228 N 
ATOM      8  H   UNL     1       0.004  -0.134   0.006  0.00  0.00    +0.173 HD
BRANCH   5  18
ATOM      9  C   UNL     1      -4.025   2.895   0.050  0.00  0.00    +0.048 C 
ATOM     10  C   UNL     1      -3.690   1.426   0.033  0.00  0.00    +0.008 A 
ATOM     11  C   UNL     1      -4.633   0.308   0.025  0.00  0.00    +0.024 A 
ATOM     12  C   UNL     1      -6.027   0.211   0.031  0.00  0.00    +0.012 A 
ATOM     13  C   UNL     1      -6.619  -1.020   0.027  0.00  0.00    +0.001 A 
ATOM     14  C   UNL     1      -5.846  -2.173   0.018  0.00  0.00    +0.004 A 
ATOM     15  C   UNL     1      -4.470  -2.098   0.012  0.00  0.00    +0.047 A 
ATOM     16  C   UNL     1      -3.844  -0.857   0.016  0.00  0.00    +0.136 A 
ATOM     17  O   UNL     1      -2.553  -0.474   0.012  0.00  0.00    -0.450 OA
ATOM     18  C   UNL     1      -2.450   0.872   0.018  0.00  0.00    +0.195 A 
ENDBRANCH   5  18
ENDBRANCH   1   7
BRANCH   2  19
ATOM     19  C   UNL     1       3.663   1.796  -0.023  0.00  0.00    +0.158 C 
ATOM     20  C   UNL     1       3.744   2.670   1.230  0.00  0.00    +0.038 C 
BRANCH  19  21
ATOM     21  N   UNL     1       4.790   0.859  -0.039  0.00  0.00    -0.300 N 
ATOM     22  C   UNL     1       5.979   1.244  -0.542  0.00  0.00    +0.246 C 
ATOM     23  O   UNL     1       6.118   2.369  -0.982  0.00  0.00    -0.270 OA
ATOM     24  H   UNL     1       4.664  -0.158   0.359  0.00  0.00    +0.150 HD
BRANCH  22  25
ATOM     25  C   UNL     1       7.115   0.299  -0.558  0.00  0.00    +0.055 A 
ATOM     26  C   UNL     1       6.962  -0.991  -0.048  0.00  0.00    +0.014 A 
ATOM     27  C   UNL     1       8.024  -1.870  -0.071  0.00  0.00    +0.001 A 
ATOM     28  C   UNL     1       9.245  -1.472  -0.587  0.00  0.00    +0.001 A 
ATOM     29  C   UNL     1       9.408  -0.194  -1.089  0.00  0.00    +0.021 A 
ATOM     30  C   UNL     1       8.350   0.695  -1.078  0.00  0.00    +0.053 A 
ATOM     31 CL   UNL     1       8.555   2.300  -1.708  0.00  0.00    -0.083 Cl
ENDBRANCH  22  25
ENDBRANCH  19  21
ENDBRANCH   2  19
TORSDOF 5
