REMARK  Name = ZINC40558456
REMARK  7 active torsions:
REMARK  status: ('A' for Active; 'I' for Inactive)
REMARK    1  A    between atoms: C_1  and  C_2
REMARK    2  A    between atoms: C_2  and  C_3
REMARK    3  A    between atoms: C_2  and  C_4
REMARK    4  A    between atoms: C_2  and  CA_5
REMARK    5  A    between atoms: CA_5  and  C_7
REMARK    6  A    between atoms: CA_5  and  N_10
REMARK    7  A    between atoms: C_17  and  C_19
REMARK                            x       y       z     vdW  Elec       q    Type
REMARK                         _______ _______ _______ _____ _____    ______ ____
ROOT
ATOM      1  N   UNL     1       0.738  -1.962  -1.265  0.00  0.00    -0.285 N 
ATOM      2  C   UNL     1       0.838  -2.628  -2.432  0.00  0.00    +0.303 C 
ATOM      3  O   UNL     1       0.911  -2.014  -3.479  0.00  0.00    -0.253 OA
ATOM      4  N   UNL     1       0.856  -3.976  -2.440  0.00  0.00    -0.274 N 
ATOM      5  C   UNL     1       0.768  -4.843  -1.250  0.00  0.00    +0.110 C 
ATOM      6  C   UNL     1       0.215  -6.189  -1.781  0.00  0.00    +0.021 C 
ATOM      7  C   UNL     1       0.918  -6.293  -3.161  0.00  0.00    +0.033 C 
ATOM      8  C   UNL     1       0.961  -4.825  -3.635  0.00  0.00    +0.163 C 
ATOM      9  H   UNL     1       0.679  -2.453  -0.430  0.00  0.00    +0.151 HD
ENDROOT
BRANCH   8  10
ATOM     10  C   UNL     1       2.264  -4.556  -4.343  0.00  0.00    +0.231 C 
ATOM     11  O   UNL     1       3.172  -4.010  -3.754  0.00  0.00    -0.274 OA
ATOM     12  N   UNL     1       2.419  -4.922  -5.631  0.00  0.00    -0.328 N 
ATOM     13  H   UNL     1       1.693  -5.359  -6.102  0.00  0.00    +0.145 HD
ATOM     14  H   UNL     1       3.258  -4.749  -6.086  0.00  0.00    +0.145 HD
ENDBRANCH   8  10
BRANCH   1  15
ATOM     15  CA  UNL     1       0.718  -0.497  -1.257  0.00  0.00    +0.193 C 
BRANCH  15  17
ATOM     16  C   UNL     1      -0.019   1.526   0.010  0.00  0.00    +0.013 C 
ATOM     17  C   UNL     1       0.002  -0.004   0.002  0.00  0.00    -0.009 C 
ATOM     18  C   UNL     1       0.742  -0.511   1.242  0.00  0.00    +0.013 C 
ATOM     19  C   UNL     1      -1.433  -0.534   0.013  0.00  0.00    +0.013 C 
ENDBRANCH  15  17
BRANCH  15  20
ATOM     20  C   UNL     1       2.132   0.024  -1.268  0.00  0.00    +0.376 C 
ATOM     21  O   UNL     1       3.025  -0.626  -0.751  0.00  0.00    -0.244 OA
ATOM     22  OXT UNL     1       2.382   1.096  -1.792  0.00  0.00    -0.244 OA
ENDBRANCH  15  20
ENDBRANCH   1  15
TORSDOF 4
