REMARK  Name = ZINC00426609
REMARK  8 active torsions:
REMARK  status: ('A' for Active; 'I' for Inactive)
REMARK    1  A    between atoms: C_1  and  C_2
REMARK    2  A    between atoms: C_5  and  O_25
REMARK    3  A    between atoms: C_6  and  N_8
REMARK    4  A    between atoms: C_9  and  C_11
REMARK    5  A    between atoms: C_18  and  C_21
REMARK    6  A    between atoms: C_21  and  C_22
REMARK    7  A    between atoms: C_21  and  C_23
REMARK    8  A    between atoms: C_21  and  C_24
REMARK                            x       y       z     vdW  Elec       q    Type
REMARK                         _______ _______ _______ _____ _____    ______ ____
ROOT
ATOM      1  N   UNL     1       1.159   3.487   0.009  0.00  0.00    -0.277 N 
ATOM      2  C   UNL     1      -0.012   4.148  -0.078  0.00  0.00    +0.270 C 
ATOM      3  O   UNL     1      -1.059   3.532  -0.072  0.00  0.00    -0.268 OA
ATOM      4  H   UNL     1       1.992   3.982   0.070  0.00  0.00    +0.155 HD
ENDROOT
BRANCH   2   5
ATOM      5  C   UNL     1      -0.023   5.627  -0.182  0.00  0.00    +0.171 A 
ATOM      6  C   UNL     1      -1.152   6.465  -0.286  0.00  0.00    +0.027 A 
ATOM      7  C   UNL     1      -0.642   7.718  -0.349  0.00  0.00    +0.141 A 
ATOM      8  O   UNL     1       0.683   7.593  -0.295  0.00  0.00    -0.359 OA
ATOM      9  N   UNL     1       1.018   6.430  -0.203  0.00  0.00    -0.073 NA
ATOM     10  C   UNL     1      -1.486   8.960  -0.461  0.00  0.00    +0.078 C 
ATOM     11  C   UNL     1      -2.924   8.604  -0.064  0.00  0.00    +0.012 C 
ATOM     12  C   UNL     1      -3.378   7.358  -0.830  0.00  0.00    -0.001 C 
ATOM     13  C   UNL     1      -2.615   6.131  -0.311  0.00  0.00    +0.045 C 
BRANCH  12  14
ATOM     14  C   UNL     1      -4.879   7.150  -0.622  0.00  0.00    -0.035 C 
ATOM     15  C   UNL     1      -5.640   8.373  -1.140  0.00  0.00    +0.011 C 
ATOM     16  C   UNL     1      -5.333   5.905  -1.387  0.00  0.00    +0.011 C 
ATOM     17  C   UNL     1      -5.167   6.965   0.869  0.00  0.00    +0.011 C 
ENDBRANCH  12  14
ENDBRANCH   2   5
BRANCH   1  23
ATOM     18  C   UNL     1      -0.951  -0.764   1.290  0.00  0.00    +0.044 C 
ATOM     19  C   UNL     1       0.165   0.000   0.626  0.00  0.00    -0.048 A 
ATOM     20  C   UNL     1       1.204  -0.683   0.020  0.00  0.00    +0.007 A 
ATOM     21  C   UNL     1       2.231   0.013  -0.590  0.00  0.00    +0.047 A 
ATOM     22  C   UNL     1       2.221   1.399  -0.597  0.00  0.00    +0.138 A 
ATOM     23  C   UNL     1       1.175   2.087   0.013  0.00  0.00    +0.076 A 
ATOM     24  C   UNL     1       0.148   1.382   0.624  0.00  0.00    +0.030 A 
BRANCH  22  25
ATOM     25  O   UNL     1       3.231   2.084  -1.196  0.00  0.00    -0.505 OA
ATOM     26  H   UNL     1       3.075   2.276  -2.131  0.00  0.00    +0.292 HD
ENDBRANCH  22  25
ENDBRANCH   1  23
TORSDOF 4
