REMARK  Name = ZINC13552741
REMARK  11 active torsions:
REMARK  status: ('A' for Active; 'I' for Inactive)
REMARK    1  A    between atoms: C_1  and  C_2
REMARK    2  A    between atoms: C_8  and  C_28
REMARK    3  A    between atoms: C_11  and  C_12
REMARK    4  A    between atoms: C_11  and  O_23
REMARK    5  A    between atoms: C_13  and  C_22
REMARK    6  A    between atoms: C_14  and  C_19
REMARK    7  A    between atoms: C_17  and  C_18
REMARK    8  A    between atoms: C_31  and  O_34
REMARK    9  A    between atoms: O_34  and  C_35
REMARK   10  A    between atoms: C_35  and  C_36
REMARK   11  A    between atoms: C_35  and  C_37
REMARK                            x       y       z     vdW  Elec       q    Type
REMARK                         _______ _______ _______ _____ _____    ______ ____
ROOT
ATOM      1  C   UNL     1       2.894  -7.563  -1.001  0.00  0.00    +0.089 C 
ATOM      2  C   UNL     1       2.781  -6.089  -0.708  0.00  0.00    +0.136 A 
ATOM      3  C   UNL     1       1.641  -5.391  -0.502  0.00  0.00    +0.091 A 
ATOM      4  C   UNL     1       2.090  -4.063  -0.274  0.00  0.00    +0.172 A 
ATOM      5  N   UNL     1       3.394  -4.099  -0.353  0.00  0.00    -0.063 NA
ATOM      6  O   UNL     1       3.792  -5.216  -0.593  0.00  0.00    -0.358 OA
ATOM      7  N   UNL     1       1.299  -2.946  -0.012  0.00  0.00    -0.235 N 
ATOM      8  C   UNL     1       1.784  -1.569   0.117  0.00  0.00    +0.151 C 
ATOM      9  C   UNL     1       0.575  -0.709   0.402  0.00  0.00    +0.072 C 
ATOM     10  C   UNL     1       0.557   0.660   0.602  0.00  0.00    +0.135 C 
ATOM     11  C   UNL     1      -0.525  -1.576   0.418  0.00  0.00    +0.249 C 
ATOM     12  O   UNL     1      -1.685  -1.255   0.613  0.00  0.00    -0.282 OA
ATOM     13  C   UNL     1      -0.034  -2.955   0.157  0.00  0.00    +0.293 C 
ATOM     14  O   UNL     1      -0.735  -3.945   0.104  0.00  0.00    -0.266 OA
ENDROOT
BRANCH  10  15
ATOM     15  C   UNL     1      -0.716   1.349   0.858  0.00  0.00    +0.041 A 
ATOM     16  C   UNL     1      -1.127   1.931   2.080  0.00  0.00    -0.010 A 
ATOM     17  C   UNL     1      -2.367   2.458   1.874  0.00  0.00    +0.105 A 
ATOM     18  N   UNL     1      -2.729   2.217   0.566  0.00  0.00    -0.354 N 
ATOM     19  H   UNL     1      -3.566   2.487   0.156  0.00  0.00    +0.166 HD
ATOM     20  C   UNL     1      -1.739   1.556  -0.054  0.00  0.00    +0.024 A 
ATOM     21  C   UNL     1      -1.741   1.112  -1.494  0.00  0.00    +0.064 C 
ATOM     22  C   UNL     1      -0.342   1.962   3.366  0.00  0.00    +0.047 C 
BRANCH  17  23
ATOM     23  C   UNL     1      -3.178   3.162   2.874  0.00  0.00    +0.258 C 
ATOM     24  O   UNL     1      -2.753   3.316   4.004  0.00  0.00    -0.269 OA
ATOM     25  N   UNL     1      -4.395   3.638   2.542  0.00  0.00    -0.324 N 
ATOM     26  H   UNL     1      -4.734   3.515   1.642  0.00  0.00    +0.145 HD
ATOM     27  H   UNL     1      -4.931   4.103   3.203  0.00  0.00    +0.145 HD
ENDBRANCH  17  23
ENDBRANCH  10  15
BRANCH   8  28
ATOM     28  C   UNL     1       2.441  -1.127  -1.165  0.00  0.00    -0.022 A 
ATOM     29  C   UNL     1       1.924  -1.533  -2.381  0.00  0.00    +0.009 A 
ATOM     30  C   UNL     1       2.521  -1.125  -3.558  0.00  0.00    +0.046 A 
ATOM     31  C   UNL     1       3.647  -0.315  -3.519  0.00  0.00    +0.121 A 
ATOM     32  C   UNL     1       4.167   0.086  -2.297  0.00  0.00    +0.046 A 
ATOM     33  C   UNL     1       3.564  -0.320  -1.123  0.00  0.00    +0.009 A 
BRANCH  31  34
ATOM     34  O   UNL     1       4.239   0.083  -4.675  0.00  0.00    -0.489 OA
BRANCH  34  35
ATOM     35  C   UNL     1       5.322   1.009  -4.564  0.00  0.00    +0.167 C 
ATOM     36  C   UNL     1       6.621   0.246  -4.298  0.00  0.00    +0.051 C 
ATOM     37  C   UNL     1       5.452   1.800  -5.868  0.00  0.00    +0.051 C 
ENDBRANCH  34  35
ENDBRANCH  31  34
ENDBRANCH   8  28
BRANCH  10  38
ATOM     38  O   UNL     1       1.708   1.364   0.556  0.00  0.00    -0.506 OA
ATOM     39  H   UNL     1       1.514   2.331   0.720  0.00  0.00    +0.292 HD
ENDBRANCH  10  38
TORSDOF 6
