REMARK  Name = ZINC55890491
REMARK  10 active torsions:
REMARK  status: ('A' for Active; 'I' for Inactive)
REMARK    1  A    between atoms: C_1  and  C_2
REMARK    2  A    between atoms: C_5  and  N_10
REMARK    3  A    between atoms: C_6  and  O_8
REMARK    4  A    between atoms: O_8  and  C_9
REMARK    5  A    between atoms: N_10  and  C_11
REMARK    6  A    between atoms: C_11  and  C_12
REMARK    7  A    between atoms: N_17  and  C_18
REMARK    8  A    between atoms: C_18  and  C_19
REMARK    9  A    between atoms: C_18  and  C_20
REMARK   10  A    between atoms: C_18  and  C_21
REMARK                            x       y       z     vdW  Elec       q    Type
REMARK                         _______ _______ _______ _____ _____    ______ ____
ROOT
ATOM      1  C   UNL     1       0.060  -4.896  -1.305  0.00  0.00    +0.198 C 
ENDROOT
BRANCH   1   2
ATOM      2  C   UNL     1       0.081  -6.379  -1.041  0.00  0.00    +0.237 C 
ATOM      3  O   UNL     1       0.092  -6.792   0.099  0.00  0.00    -0.274 OA
ATOM      4  N   UNL     1       0.086  -7.247  -2.072  0.00  0.00    -0.239 N 
ATOM      5  C   UNL     1       0.105  -8.574  -1.837  0.00  0.00    +0.306 C 
ATOM      6  O   UNL     1       0.116  -8.988  -0.694  0.00  0.00    -0.252 OA
ATOM      7  N   UNL     1       0.111  -9.441  -2.868  0.00  0.00    -0.294 N 
ATOM      8  H   UNL     1       0.078  -6.916  -2.984  0.00  0.00    +0.159 HD
ATOM      9  H   UNL     1       0.102  -9.111  -3.780  0.00  0.00    +0.151 HD
BRANCH   7  10
ATOM     10  C   UNL     1       0.131 -10.884  -2.612  0.00  0.00    +0.028 C 
ATOM     11  C   UNL     1      -1.109 -11.276  -1.806  0.00  0.00    +0.031 C 
ATOM     12  C   UNL     1       0.134 -11.638  -3.943  0.00  0.00    +0.031 C 
ATOM     13  C   UNL     1       1.389 -11.243  -1.819  0.00  0.00    +0.031 C 
ENDBRANCH   7  10
ENDBRANCH   1   2
BRANCH   1  14
ATOM     14  N   UNL     1       0.057  -4.173  -0.030  0.00  0.00    -0.333 N 
ATOM     15  H   UNL     1       0.068  -4.665   0.806  0.00  0.00    +0.147 HD
BRANCH  14  20
ATOM     16  C   UNL     1      -0.018   1.503   0.010  0.00  0.00    +0.044 C 
ATOM     17  C   UNL     1       0.002  -0.004   0.002  0.00  0.00    -0.047 A 
ATOM     18  C   UNL     1       0.006  -0.687  -1.200  0.00  0.00    +0.005 A 
ATOM     19  C   UNL     1       0.024  -2.069  -1.214  0.00  0.00    +0.027 A 
ATOM     20  C   UNL     1       0.039  -2.774  -0.019  0.00  0.00    +0.070 A 
ATOM     21  C   UNL     1       0.036  -2.085   1.192  0.00  0.00    +0.141 A 
ATOM     22  C   UNL     1       0.023  -0.700   1.197  0.00  0.00    +0.051 A 
BRANCH  21  23
ATOM     23  O   UNL     1       0.050  -2.771   2.366  0.00  0.00    -0.493 OA
ATOM     24  C   UNL     1       0.046  -1.998   3.569  0.00  0.00    +0.277 C 
ENDBRANCH  21  23
ENDBRANCH  14  20
ENDBRANCH   1  14
TORSDOF 5
