REMARK  Name = ZINC28680432
REMARK  7 active torsions:
REMARK  status: ('A' for Active; 'I' for Inactive)
REMARK    1  A    between atoms: C_1  and  C_2
REMARK    2  A    between atoms: C_7  and  S_15
REMARK    3  A    between atoms: C_12  and  C_14
REMARK    4  A    between atoms: S_15  and  N_18
REMARK    5  A    between atoms: N_18  and  C_19
REMARK    6  A    between atoms: C_22  and  N_28
REMARK    7  A    between atoms: C_23  and  N_25
REMARK                            x       y       z     vdW  Elec       q    Type
REMARK                         _______ _______ _______ _____ _____    ______ ____
ROOT
ATOM      1  S   UNL     1       0.038  -2.657  -0.427  0.00  0.00    +0.072 S 
ATOM      2  O   UNL     1      -0.256  -3.959   0.060  0.00  0.00    -0.150 OA
ATOM      3  O   UNL     1      -0.926  -1.613  -0.439  0.00  0.00    -0.150 OA
ENDROOT
BRANCH   1   9
ATOM      4  C   UNL     1       2.810  -1.110  -7.101  0.00  0.00    +0.029 C 
ATOM      5  C   UNL     1       1.527  -1.786  -6.613  0.00  0.00    +0.083 C 
ATOM      6  C   UNL     1       0.914  -0.990  -5.450  0.00  0.00    +0.059 C 
ATOM      7  C   UNL     1       0.913  -1.956  -4.287  0.00  0.00    -0.022 A 
ATOM      8  C   UNL     1       0.477  -1.805  -2.984  0.00  0.00    +0.034 A 
ATOM      9  C   UNL     1       0.588  -2.853  -2.089  0.00  0.00    +0.109 A 
ATOM     10  C   UNL     1       1.127  -4.057  -2.503  0.00  0.00    +0.030 A 
ATOM     11  C   UNL     1       1.558  -4.214  -3.803  0.00  0.00    +0.026 A 
ATOM     12  C   UNL     1       1.454  -3.159  -4.712  0.00  0.00    +0.040 A 
ATOM     13  N   UNL     1       1.826  -3.109  -6.059  0.00  0.00    -0.268 N 
ATOM     14  C   UNL     1       2.379  -4.128  -6.746  0.00  0.00    +0.217 C 
ATOM     15  O   UNL     1       2.534  -5.206  -6.212  0.00  0.00    -0.276 OA
ATOM     16  C   UNL     1       2.805  -3.928  -8.177  0.00  0.00    +0.109 C 
ENDBRANCH   1   9
BRANCH   1  17
ATOM     17  N   UNL     1       1.326  -2.101   0.453  0.00  0.00    -0.216 N 
ATOM     18  H   UNL     1       1.758  -2.725   1.250  0.00  0.00    +0.174 HD
BRANCH  17  19
ATOM     19  C   UNL     1       1.865  -0.838   0.183  0.00  0.00    +0.050 A 
ATOM     20  C   UNL     1       1.024   0.251  -0.005  0.00  0.00    +0.026 A 
ATOM     21  C   UNL     1       1.556   1.497  -0.271  0.00  0.00    +0.027 A 
ATOM     22  C   UNL     1       2.932   1.662  -0.351  0.00  0.00    +0.055 A 
ATOM     23  C   UNL     1       3.774   0.573  -0.164  0.00  0.00    +0.148 A 
ATOM     24  C   UNL     1       3.241  -0.673   0.103  0.00  0.00    +0.059 A 
BRANCH  23  25
ATOM     25  N   UNL     1       5.241   0.749  -0.249  0.00  0.00    +0.058 N 
ATOM     26  O   UNL     1       5.929  -0.117  -0.759  0.00  0.00    -0.126 OA
ATOM     27  O   UNL     1       5.760   1.759   0.190  0.00  0.00    -0.126 OA
ENDBRANCH  23  25
BRANCH  22  28
ATOM     28  N   UNL     1       3.472   2.925  -0.622  0.00  0.00    -0.356 N 
ATOM     29  H   UNL     1       4.562   3.055  -0.686  0.00  0.00    +0.142 HD
ATOM     30  H   UNL     1       2.805   3.787  -0.771  0.00  0.00    +0.142 HD
ENDBRANCH  22  28
ENDBRANCH  17  19
ENDBRANCH   1  17
TORSDOF 5
