REMARK  Name = ZINC49016050
REMARK  7 active torsions:
REMARK  status: ('A' for Active; 'I' for Inactive)
REMARK    1  A    between atoms: C_1  and  C_2
REMARK    2  A    between atoms: C_7  and  N_10
REMARK    3  A    between atoms: N_10  and  C_11
REMARK    4  A    between atoms: N_14  and  CA_15
REMARK    5  A    between atoms: CA_15  and  CB_17
REMARK    6  A    between atoms: CA_15  and  C_21
REMARK    7  A    between atoms: CB_17  and  CG_18
REMARK                            x       y       z     vdW  Elec       q    Type
REMARK                         _______ _______ _______ _____ _____    ______ ____
ROOT
ATOM      1  N   UNK A   0       1.471  -2.526   2.420  0.00  0.00    -0.286 N 
ATOM      2  C   UNK A   0       2.871  -2.154   2.640  0.00  0.00    +0.134 C 
ATOM      3  C   UNK A   0       0.835  -3.314   3.309  0.00  0.00    +0.303 C 
ATOM      4  O   UNK A   0      -0.326  -3.623   3.126  0.00  0.00    -0.253 OA
ATOM      5  N   ASN A   1       1.487  -3.761   4.401  0.00  0.00    -0.285 N 
ATOM      6  H   ASN A   1       2.414  -3.515   4.547  0.00  0.00    +0.151 HD
ENDROOT
BRANCH   1  12
ATOM      7  C   UNK A   0      -0.019   1.526   0.010  0.00  0.00    +0.007 C 
ATOM      8  C   UNK A   0       0.002  -0.004   0.002  0.00  0.00    -0.012 C 
ATOM      9  C   UNK A   0       0.718  -0.497  -1.257  0.00  0.00    +0.003 C 
ATOM     10  C   UNK A   0       0.739  -2.027  -1.265  0.00  0.00    +0.002 C 
ATOM     11  C   UNK A   0       1.479  -2.534  -0.026  0.00  0.00    +0.022 C 
ATOM     12  C   UNK A   0       0.763  -2.041   1.233  0.00  0.00    +0.077 C 
ATOM     13  C   UNK A   0       0.742  -0.511   1.242  0.00  0.00    +0.025 C 
ENDBRANCH   1  12
BRANCH   5  14
ATOM     14  CA  ASN A   1       0.796  -4.618   5.367  0.00  0.00    +0.196 C 
BRANCH  14  15
ATOM     15  C   ASN A   1       0.039  -3.760   6.348  0.00  0.00    +0.376 C 
ATOM     16  O   ASN A   1      -0.986  -4.178   6.859  0.00  0.00    -0.244 OA
ATOM     17  OXT ASN A   1       0.451  -2.648   6.630  0.00  0.00    -0.244 OA
ENDBRANCH  14  15
BRANCH  14  18
ATOM     18  CB  ASN A   1       1.821  -5.468   6.120  0.00  0.00    +0.129 C 
BRANCH  18  19
ATOM     19  CG  ASN A   1       2.493  -6.414   5.157  0.00  0.00    +0.213 C 
ATOM     20  OD1 ASN A   1       2.182  -6.408   3.985  0.00  0.00    -0.276 OA
ATOM     21  ND2 ASN A   1       3.439  -7.266   5.599  0.00  0.00    -0.329 N 
ATOM     22 HD21 ASN A   1       3.688  -7.271   6.537  0.00  0.00    +0.145 HD
ATOM     23 HD22 ASN A   1       3.871  -7.875   4.979  0.00  0.00    +0.145 HD
ENDBRANCH  18  19
ENDBRANCH  14  18
ENDBRANCH   5  14
TORSDOF 5
