REMARK  Name = ZINC21548834
REMARK  4 active torsions:
REMARK  status: ('A' for Active; 'I' for Inactive)
REMARK    1  A    between atoms: C_4  and  C_7
REMARK    2  A    between atoms: N_11  and  N_12
REMARK    3  A    between atoms: C_13  and  C_14
REMARK    4  A    between atoms: C_18  and  N_20
REMARK                            x       y       z     vdW  Elec       q    Type
REMARK                         _______ _______ _______ _____ _____    ______ ____
ROOT
ATOM      1  C   UNL     1       3.711  -0.707  -0.038  0.00  0.00    +0.136 C 
ATOM      2  C   UNL     1       4.051  -1.253   1.367  0.00  0.00    +0.110 C 
ATOM      3  C   UNL     1       4.094  -2.750   1.124  0.00  0.00    +0.173 C 
ATOM      4  N   UNL     1       4.353  -3.687   2.042  0.00  0.00    -0.133 NA
ATOM      5  N   UNL     1       3.835  -2.964  -0.134  0.00  0.00    -0.161 NA
ATOM      6  N   UNL     1       3.615  -1.927  -0.854  0.00  0.00    -0.299 N 
ATOM      7  H   UNL     1       3.411  -1.943  -1.803  0.00  0.00    +0.183 HD
ENDROOT
BRANCH   1  11
ATOM      8  C   UNL     1      -0.017   1.378   0.010  0.00  0.00    +0.000 A 
ATOM      9  C   UNL     1       1.171   2.086   0.002  0.00  0.00    +0.000 A 
ATOM     10  C   UNL     1       2.377   1.411  -0.013  0.00  0.00    +0.006 A 
ATOM     11  C   UNL     1       2.396   0.029  -0.020  0.00  0.00    -0.023 A 
ATOM     12  C   UNL     1       1.208  -0.679  -0.012  0.00  0.00    +0.006 A 
ATOM     13  C   UNL     1       0.002  -0.004   0.002  0.00  0.00    +0.000 A 
ENDBRANCH   1  11
BRANCH   4  14
ATOM     14  N   UNL     1       4.360  -4.933   1.707  0.00  0.00    -0.156 NA
ATOM     15  C   UNL     1       4.620  -5.873   2.629  0.00  0.00    +0.142 C 
BRANCH  15  16
ATOM     16  C   UNL     1       4.628  -7.185   2.277  0.00  0.00    +0.021 C 
ATOM     17  C   UNL     1       4.368  -7.573   0.934  0.00  0.00    +0.183 C 
ATOM     18  C   UNL     1       4.386  -9.009   0.599  0.00  0.00    +0.049 C 
ATOM     19  C   UNL     1       4.258  -9.912   1.566  0.00  0.00    +0.008 C 
ATOM     20  C   UNL     1       4.085  -9.498   3.000  0.00  0.00    +0.197 C 
ATOM     21  C   UNL     1       4.919  -8.251   3.303  0.00  0.00    +0.076 C 
ATOM     22  O   UNL     1       4.135  -6.737   0.079  0.00  0.00    -0.288 OA
BRANCH  20  23
ATOM     23  N   UNL     1       2.670  -9.211   3.252  0.00  0.00    +0.030 N 
ATOM     24  O   UNL     1       2.066  -9.841   4.089  0.00  0.00    -0.131 OA
ATOM     25  O   UNL     1       2.108  -8.344   2.625  0.00  0.00    -0.131 OA
ENDBRANCH  20  23
ENDBRANCH  15  16
ENDBRANCH   4  14
TORSDOF 4
