REMARK  Name = ZINC65455349
REMARK  7 active torsions:
REMARK  status: ('A' for Active; 'I' for Inactive)
REMARK    1  A    between atoms: C_1  and  C_2
REMARK    2  A    between atoms: C_3  and  C_7
REMARK    3  A    between atoms: N_9  and  C_10
REMARK    4  A    between atoms: C_12  and  N_17
REMARK    5  A    between atoms: C_22  and  C_28
REMARK    6  A    between atoms: C_24  and  C_26
REMARK    7  A    between atoms: C_24  and  C_27
REMARK                            x       y       z     vdW  Elec       q    Type
REMARK                         _______ _______ _______ _____ _____    ______ ____
ROOT
ATOM      1  C   UNL     1      -4.883  -1.000   0.780  0.00  0.00    +0.071 A 
ATOM      2  C   UNL     1      -5.270   0.332   0.724  0.00  0.00    +0.049 A 
ATOM      3  C   UNL     1      -6.558   0.661   0.327  0.00  0.00    +0.037 A 
ATOM      4  C   UNL     1      -7.457  -0.341  -0.014  0.00  0.00    +0.026 A 
ATOM      5  C   UNL     1      -7.071  -1.667   0.043  0.00  0.00    +0.042 A 
ATOM      6  C   UNL     1      -5.786  -1.999   0.432  0.00  0.00    +0.145 A 
ATOM      7  F   UNL     1      -5.409  -3.296   0.481  0.00  0.00    -0.204 F 
ENDROOT
BRANCH   3   8
ATOM      8  N   UNL     1      -6.952   2.004   0.270  0.00  0.00    -0.269 N 
ATOM      9  C   UNL     1      -8.252   2.331   0.404  0.00  0.00    +0.307 C 
ATOM     10  O   UNL     1      -9.099   1.459   0.434  0.00  0.00    -0.252 OA
ATOM     11  N   UNL     1      -8.615   3.626   0.503  0.00  0.00    -0.280 N 
ATOM     12  C   UNL     1      -7.638   4.705   0.286  0.00  0.00    +0.140 C 
ATOM     13  C   UNL     1      -8.232   5.700  -0.717  0.00  0.00    +0.133 C 
ATOM     14  O   UNL     1      -9.530   6.099  -0.272  0.00  0.00    -0.368 OA
ATOM     15  C   UNL     1     -10.478   5.031  -0.198  0.00  0.00    +0.080 C 
ATOM     16  C   UNL     1     -10.000   4.002   0.827  0.00  0.00    +0.143 C 
ATOM     17  C   UNL     1     -10.602   4.363  -1.569  0.00  0.00    +0.043 C 
ATOM     18  C   UNL     1     -11.839   5.584   0.228  0.00  0.00    +0.043 C 
ATOM     19  C   UNL     1      -7.325   6.928  -0.816  0.00  0.00    +0.039 C 
ATOM     20  H   UNL     1      -6.288   2.699   0.135  0.00  0.00    +0.156 HD
ENDBRANCH   3   8
BRANCH   1  23
ATOM     21  C   UNL     1      -2.931  -0.559   2.067  0.00  0.00    +0.252 C 
ATOM     22  O   UNL     1      -3.470   0.431   2.523  0.00  0.00    -0.270 OA
ATOM     23  N   UNL     1      -3.585  -1.336   1.181  0.00  0.00    -0.279 N 
ATOM     24  H   UNL     1      -3.156  -2.127   0.820  0.00  0.00    +0.155 HD
BRANCH  21  27
ATOM     25  C   UNL     1      -1.144   1.028   4.099  0.00  0.00    +0.087 C 
ATOM     26  C   UNL     1      -0.769  -0.234   3.366  0.00  0.00    +0.114 A 
ATOM     27  C   UNL     1      -1.562  -0.910   2.484  0.00  0.00    +0.078 A 
ATOM     28  C   UNL     1      -0.764  -2.062   2.038  0.00  0.00    +0.054 A 
ATOM     29  C   UNL     1       0.409  -1.970   2.683  0.00  0.00    +0.196 A 
ATOM     30  O   UNL     1       0.398  -0.878   3.463  0.00  0.00    -0.467 OA
ENDBRANCH  21  27
ENDBRANCH   1  23
TORSDOF 3
