REMARK  Name = ZINC09322628
REMARK  4 active torsions:
REMARK  status: ('A' for Active; 'I' for Inactive)
REMARK    1  A    between atoms: C_1  and  C_2
REMARK    2  A    between atoms: C_2  and  S_3
REMARK    3  A    between atoms: S_3  and  N_6
REMARK    4  A    between atoms: C_13  and  C_15
REMARK                            x       y       z     vdW  Elec       q    Type
REMARK                         _______ _______ _______ _____ _____    ______ ____
ROOT
ATOM      1  N   UNL     1      -0.738   1.578   1.182  0.00  0.00    -0.207 N 
ATOM      2  C   UNL     1      -0.013   1.086   0.008  0.00  0.00    +0.136 C 
ATOM      3  C   UNL     1      -0.797   1.615  -1.204  0.00  0.00    +0.058 C 
ATOM      4  C   UNL     1      -1.946   2.392  -0.603  0.00  0.00    -0.023 A 
ATOM      5  C   UNL     1      -1.848   2.327   0.780  0.00  0.00    +0.054 A 
ATOM      6  C   UNL     1      -2.806   2.975   1.564  0.00  0.00    +0.025 A 
ATOM      7  C   UNL     1      -3.836   3.671   0.973  0.00  0.00    +0.012 A 
ATOM      8  C   UNL     1      -3.931   3.734  -0.417  0.00  0.00    +0.001 A 
ATOM      9  C   UNL     1      -2.976   3.088  -1.201  0.00  0.00    +0.015 A 
ENDROOT
BRANCH   8  10
ATOM     10  C   UNL     1      -5.040   4.483  -1.056  0.00  0.00    +0.080 A 
ATOM     11  C   UNL     1      -5.920   5.196  -0.294  0.00  0.00    +0.076 A 
ATOM     12  S   UNL     1      -6.994   5.862  -1.559  0.00  0.00    -0.060 S 
ATOM     13  C   UNL     1      -6.173   5.122  -2.964  0.00  0.00    +0.156 A 
ATOM     14  N   UNL     1      -5.191   4.462  -2.379  0.00  0.00    -0.225 NA
ATOM     15  N   UNL     1      -6.484   5.218  -4.311  0.00  0.00    -0.338 N 
ATOM     16  H   UNL     1      -5.941   4.755  -4.968  0.00  0.00    +0.144 HD
ATOM     17  H   UNL     1      -7.246   5.746  -4.596  0.00  0.00    +0.144 HD
ENDBRANCH   8  10
BRANCH   1  18
ATOM     18  S   UNL     1      -0.305   1.288   2.754  0.00  0.00    +0.045 S 
ATOM     19  O   UNL     1      -1.519   1.382   3.488  0.00  0.00    -0.155 OA
ATOM     20  O   UNL     1       0.423   0.068   2.711  0.00  0.00    -0.155 OA
BRANCH  18  22
ATOM     21  C   UNL     1       1.265   2.493   4.642  0.00  0.00    +0.030 C 
ATOM     22  C   UNL     1       0.798   2.658   3.195  0.00  0.00    +0.185 C 
ENDBRANCH  18  22
ENDBRANCH   1  18
TORSDOF 3
