REMARK  Name = ZINC11335541
REMARK  6 active torsions:
REMARK  status: ('A' for Active; 'I' for Inactive)
REMARK    1  A    between atoms: C_1  and  N_2
REMARK    2  A    between atoms: N_2  and  C_3
REMARK    3  A    between atoms: C_6  and  C_11
REMARK    4  A    between atoms: C_11  and  C_23
REMARK    5  A    between atoms: C_12  and  C_13
REMARK    6  A    between atoms: C_16  and  C_19
REMARK                            x       y       z     vdW  Elec       q    Type
REMARK                         _______ _______ _______ _____ _____    ______ ____
ROOT
ATOM      1  C   UNL     1       0.051   0.003  -0.112  0.00  0.00    +0.097 C 
ATOM      2  C   UNL     1      -0.016   1.358   0.009  0.00  0.00    +0.030 C 
ENDROOT
BRANCH   1   8
ATOM      3  C   UNL     1      -0.861  -4.892  -0.383  0.00  0.00    +0.132 C 
ATOM      4  N   UNL     1      -2.151  -4.240  -0.142  0.00  0.00    -0.306 N 
ATOM      5  C   UNL     1      -3.370  -5.046  -0.032  0.00  0.00    +0.132 C 
ATOM      6  C   UNL     1      -2.219  -2.867  -0.019  0.00  0.00    +0.222 A 
ATOM      7  N   UNL     1      -1.113  -2.136  -0.119  0.00  0.00    -0.194 NA
ATOM      8  C   UNL     1      -1.178  -0.811  -0.001  0.00  0.00    +0.177 A 
ATOM      9  N   UNL     1      -2.351  -0.221   0.223  0.00  0.00    -0.194 NA
ATOM     10  C   UNL     1      -3.456  -0.954   0.317  0.00  0.00    +0.217 A 
ATOM     11  N   UNL     1      -3.389  -2.276   0.199  0.00  0.00    -0.181 NA
ATOM     12  N   UNL     1      -4.672  -0.341   0.543  0.00  0.00    -0.327 N 
ATOM     13  H   UNL     1      -5.478  -0.876   0.615  0.00  0.00    +0.145 HD
ATOM     14  H   UNL     1      -4.721   0.624   0.629  0.00  0.00    +0.145 HD
ENDBRANCH   1   8
BRANCH   2  15
ATOM     15  C   UNL     1       1.217   2.154   0.049  0.00  0.00    -0.024 A 
ATOM     16  C   UNL     1       2.392   1.606   0.578  0.00  0.00    +0.008 A 
ATOM     17  C   UNL     1       3.547   2.358   0.606  0.00  0.00    +0.013 A 
ATOM     18  C   UNL     1       3.544   3.655   0.123  0.00  0.00    +0.055 A 
ATOM     19  C   UNL     1       2.386   4.207  -0.396  0.00  0.00    +0.013 A 
ATOM     20  C   UNL     1       1.223   3.467  -0.436  0.00  0.00    +0.008 A 
BRANCH  18  21
ATOM     21  C   UNL     1       4.810   4.472   0.164  0.00  0.00    +0.417 C 
ATOM     22  F   UNL     1       4.877   5.170   1.375  0.00  0.00    -0.166 F 
ATOM     23  F   UNL     1       5.917   3.623   0.053  0.00  0.00    -0.166 F 
ATOM     24  F   UNL     1       4.812   5.382  -0.899  0.00  0.00    -0.166 F 
ENDBRANCH  18  21
ENDBRANCH   2  15
BRANCH   1  25
ATOM     25  C   UNL     1       1.312  -0.633  -0.347  0.00  0.00    +0.103 C 
ATOM     26  N   UNL     1       2.313  -1.137  -0.534  0.00  0.00    -0.191 NA
ENDBRANCH   1  25
TORSDOF 4
