REMARK  Name = ZINC23866738
REMARK  9 active torsions:
REMARK  status: ('A' for Active; 'I' for Inactive)
REMARK    1  A    between atoms: C_1  and  C_2
REMARK    2  A    between atoms: C_2  and  C_4
REMARK    3  A    between atoms: C_2  and  O_20
REMARK    4  A    between atoms: N_6  and  C_7
REMARK    5  A    between atoms: C_7  and  C_8
REMARK    6  A    between atoms: N_10  and  C_11
REMARK    7  A    between atoms: O_20  and  C_21
REMARK    8  A    between atoms: C_21  and  C_23
REMARK    9  A    between atoms: C_27  and  N_29
REMARK                            x       y       z     vdW  Elec       q    Type
REMARK                         _______ _______ _______ _____ _____    ______ ____
ROOT
ATOM      1  C   UNL     1       4.785   5.507  -0.754  0.00  0.00    +0.254 C 
ATOM      2  O   UNL     1       3.695   5.884  -1.127  0.00  0.00    -0.272 OA
ATOM      3  N   UNL     1       5.872   6.276  -0.963  0.00  0.00    -0.304 N 
ATOM      4  H   UNL     1       6.861   5.934  -0.624  0.00  0.00    +0.149 HD
ENDROOT
BRANCH   1   6
ATOM      5  C   UNL     1       5.380   4.403   1.385  0.00  0.00    +0.062 C 
ATOM      6  C   UNL     1       4.925   4.178  -0.058  0.00  0.00    +0.259 C 
BRANCH   6   7
ATOM      7  O   UNL     1       3.645   3.493  -0.060  0.00  0.00    -0.449 OA
BRANCH   7   8
ATOM      8  C   UNL     1       3.672   2.146  -0.075  0.00  0.00    +0.340 C 
ATOM      9  O   UNL     1       4.736   1.560  -0.085  0.00  0.00    -0.245 OA
BRANCH   8  10
ATOM     10  C   UNL     1       2.408   1.382  -0.078  0.00  0.00    +0.061 A 
ATOM     11  C   UNL     1       1.183   2.054  -0.066  0.00  0.00    +0.016 A 
ATOM     12  C   UNL     1       0.004   1.339  -0.069  0.00  0.00    +0.022 A 
ATOM     13  C   UNL     1       0.028  -0.044  -0.083  0.00  0.00    +0.062 A 
ATOM     14  C   UNL     1       1.243  -0.723  -0.095  0.00  0.00    +0.044 A 
ATOM     15  C   UNL     1       2.433  -0.013  -0.092  0.00  0.00    +0.039 A 
ATOM     16 CL   UNL     1      -1.461  -0.936  -0.086  0.00  0.00    -0.082 Cl
BRANCH  14  17
ATOM     17  N   UNL     1       1.262  -2.121  -0.109  0.00  0.00    -0.357 N 
ATOM     18  H   UNL     1       2.223  -2.657  -0.118  0.00  0.00    +0.142 HD
ATOM     19  H   UNL     1       0.318  -2.684  -0.110  0.00  0.00    +0.142 HD
ENDBRANCH  14  17
ENDBRANCH   8  10
ENDBRANCH   7   8
ENDBRANCH   6   7
ENDBRANCH   1   6
BRANCH   3  20
ATOM     20  C   UNL     1       5.736   7.569  -1.639  0.00  0.00    +0.200 C 
BRANCH  20  21
ATOM     21  C   UNL     1       7.088   8.225  -1.746  0.00  0.00    +0.234 C 
ATOM     22  O   UNL     1       8.069   7.668  -1.300  0.00  0.00    -0.274 OA
ATOM     23  N   UNL     1       7.208   9.430  -2.336  0.00  0.00    -0.282 N 
ATOM     24  H   UNL     1       6.332   9.902  -2.805  0.00  0.00    +0.155 HD
BRANCH  23  25
ATOM     25  C   UNL     1       8.448  10.083  -2.353  0.00  0.00    +0.072 A 
ATOM     26  C   UNL     1       9.620   9.346  -2.459  0.00  0.00    +0.029 A 
ATOM     27  C   UNL     1      10.842   9.990  -2.480  0.00  0.00    +0.043 A 
ATOM     28  C   UNL     1      10.901  11.370  -2.384  0.00  0.00    +0.161 A 
ATOM     29  C   UNL     1       9.734  12.110  -2.272  0.00  0.00    +0.195 A 
ATOM     30  C   UNL     1       8.507  11.468  -2.256  0.00  0.00    +0.182 A 
ATOM     31  F   UNL     1       7.369  12.188  -2.147  0.00  0.00    -0.200 F 
ATOM     32  F   UNL     1       9.794  13.456  -2.178  0.00  0.00    -0.199 F 
ATOM     33  F   UNL     1      12.098  11.996  -2.400  0.00  0.00    -0.202 F 
ENDBRANCH  23  25
ENDBRANCH  20  21
ENDBRANCH   3  20
TORSDOF 8
