REMARK  Name = ZINC39000937
REMARK  8 active torsions:
REMARK  status: ('A' for Active; 'I' for Inactive)
REMARK    1  A    between atoms: C_1  and  C_2
REMARK    2  A    between atoms: C_2  and  O_3
REMARK    3  A    between atoms: O_3  and  C_4
REMARK    4  A    between atoms: C_4  and  C_6
REMARK    5  A    between atoms: C_8  and  N_18
REMARK    6  A    between atoms: C_11  and  O_16
REMARK    7  A    between atoms: O_16  and  C_17
REMARK    8  A    between atoms: N_21  and  C_22
REMARK                            x       y       z     vdW  Elec       q    Type
REMARK                         _______ _______ _______ _____ _____    ______ ____
ROOT
ATOM      1  C   UNL     1      -2.773  -2.439   0.059  0.00  0.00    +0.234 C 
ATOM      2  C   UNL     1      -3.374  -2.549   1.442  0.00  0.00    +0.054 C 
ATOM      3  C   UNL     1      -3.664  -3.891   1.620  0.00  0.00    +0.021 A 
ATOM      4  C   UNL     1      -4.235  -4.609   2.700  0.00  0.00    +0.057 A 
ATOM      5  C   UNL     1      -4.407  -5.953   2.597  0.00  0.00    +0.121 A 
ATOM      6  C   UNL     1      -4.032  -6.654   1.443  0.00  0.00    +0.047 A 
ATOM      7  C   UNL     1      -3.481  -6.029   0.375  0.00  0.00    +0.029 A 
ATOM      8  C   UNL     1      -3.270  -4.626   0.407  0.00  0.00    +0.045 A 
ATOM      9  N   UNL     1      -2.761  -3.800  -0.488  0.00  0.00    -0.367 N 
ATOM     10  H   UNL     1      -2.432  -4.052  -1.365  0.00  0.00    +0.161 HD
ENDROOT
BRANCH   2  11
ATOM     11  N   UNL     1      -3.586  -1.537   2.329  0.00  0.00    -0.270 N 
ATOM     12  C   UNL     1      -3.411  -0.257   1.946  0.00  0.00    +0.308 C 
ATOM     13  O   UNL     1      -3.167   0.001   0.783  0.00  0.00    -0.252 OA
ATOM     14  N   UNL     1      -3.507   0.737   2.851  0.00  0.00    -0.269 N 
ATOM     15  H   UNL     1      -3.863  -1.738   3.237  0.00  0.00    +0.156 HD
ATOM     16  H   UNL     1      -3.768   0.538   3.764  0.00  0.00    +0.156 HD
BRANCH  14  17
ATOM     17  C   UNL     1      -3.230   2.056   2.474  0.00  0.00    +0.035 A 
ATOM     18  C   UNL     1      -3.569   2.502   1.203  0.00  0.00    +0.025 A 
ATOM     19  C   UNL     1      -3.295   3.804   0.834  0.00  0.00    +0.022 A 
ATOM     20  C   UNL     1      -2.684   4.665   1.729  0.00  0.00    +0.041 A 
ATOM     21  C   UNL     1      -2.345   4.223   2.996  0.00  0.00    +0.022 A 
ATOM     22  C   UNL     1      -2.622   2.923   3.372  0.00  0.00    +0.025 A 
ATOM     23 CL   UNL     1      -2.341   6.301   1.261  0.00  0.00    -0.084 Cl
ENDBRANCH  14  17
ENDBRANCH   2  11
BRANCH   1  24
ATOM     24  C   UNL     1      -1.367  -1.902   0.145  0.00  0.00    +0.336 C 
ATOM     25  O   UNL     1      -0.433  -2.664   0.221  0.00  0.00    -0.248 OA
BRANCH  24  26
ATOM     26  O   UNL     1      -1.153  -0.577   0.136  0.00  0.00    -0.463 OA
BRANCH  26  28
ATOM     27  C   UNL     1       0.248   1.391   0.198  0.00  0.00    +0.048 C 
ATOM     28  C   UNL     1       0.204  -0.139   0.221  0.00  0.00    +0.229 C 
ENDBRANCH  26  28
ENDBRANCH  24  26
ENDBRANCH   1  24
BRANCH   5  29
ATOM     29  O   UNL     1      -4.955  -6.634   3.639  0.00  0.00    -0.495 OA
ATOM     30  C   UNL     1      -5.114  -8.046   3.480  0.00  0.00    +0.277 C 
ENDBRANCH   5  29
TORSDOF 6
