REMARK  Name = ZINC63501973
REMARK  4 active torsions:
REMARK  status: ('A' for Active; 'I' for Inactive)
REMARK    1  A    between atoms: C_1  and  C_2
REMARK    2  A    between atoms: C_2  and  N_3
REMARK    3  A    between atoms: N_14  and  N_15
REMARK    4  A    between atoms: C_16  and  C_18
REMARK                            x       y       z     vdW  Elec       q    Type
REMARK                         _______ _______ _______ _____ _____    ______ ____
ROOT
ATOM      1  N   UNL     1       0.714  -0.467   1.196  0.00  0.00    -0.280 N 
ATOM      2  C   UNL     1       2.053  -0.656   1.147  0.00  0.00    +0.263 A 
ATOM      3  O   UNL     1       2.685  -0.440   0.129  0.00  0.00    -0.267 OA
ATOM      4  C   UNL     1       2.717  -1.132   2.369  0.00  0.00    +0.065 A 
ATOM      5  C   UNL     1       4.092  -1.356   2.420  0.00  0.00    +0.015 A 
ATOM      6  C   UNL     1       4.659  -1.799   3.584  0.00  0.00    +0.001 A 
ATOM      7  C   UNL     1       3.880  -2.026   4.711  0.00  0.00    +0.002 A 
ATOM      8  C   UNL     1       2.530  -1.814   4.688  0.00  0.00    +0.028 A 
ATOM      9  C   UNL     1       1.921  -1.361   3.514  0.00  0.00    +0.080 A 
ATOM     10  N   UNL     1       0.588  -1.137   3.446  0.00  0.00    -0.214 NA
ATOM     11  C   UNL     1       0.021  -0.708   2.346  0.00  0.00    +0.216 A 
ATOM     12  N   UNL     1      -1.335  -0.497   2.349  0.00  0.00    -0.233 N 
ATOM     13  H   UNL     1      -1.778  -0.183   1.545  0.00  0.00    +0.173 HD
ENDROOT
BRANCH  12  14
ATOM     14  N   UNL     1      -2.078  -0.734   3.513  0.00  0.00    -0.229 N 
ATOM     15  C   UNL     1      -3.410  -0.526   3.515  0.00  0.00    +0.279 C 
ATOM     16  O   UNL     1      -3.966  -0.133   2.508  0.00  0.00    -0.267 OA
ATOM     17  H   UNL     1      -1.635  -1.047   4.316  0.00  0.00    +0.173 HD
BRANCH  15  18
ATOM     18  C   UNL     1      -4.195  -0.776   4.744  0.00  0.00    +0.134 A 
ATOM     19  C   UNL     1      -5.570  -0.449   4.788  0.00  0.00    +0.013 A 
ATOM     20  C   UNL     1      -6.235   0.115   3.692  0.00  0.00    +0.011 A 
ATOM     21  C   UNL     1      -7.562   0.410   3.791  0.00  0.00    +0.001 A 
ATOM     22  C   UNL     1      -8.269   0.161   4.966  0.00  0.00    +0.001 A 
ATOM     23  C   UNL     1      -7.654  -0.387   6.051  0.00  0.00    +0.008 A 
ATOM     24  C   UNL     1      -6.289  -0.704   5.984  0.00  0.00    -0.014 A 
ATOM     25  C   UNL     1      -5.597  -1.270   7.069  0.00  0.00    +0.028 A 
ATOM     26  C   UNL     1      -4.267  -1.552   6.928  0.00  0.00    +0.112 A 
ATOM     27  N   UNL     1      -3.616  -1.312   5.804  0.00  0.00    -0.250 NA
ENDBRANCH  15  18
ENDBRANCH  12  14
BRANCH   1  29
ATOM     28  C   UNL     1      -0.030   1.535   0.005  0.00  0.00    +0.027 C 
ATOM     29  C   UNL     1       0.004   0.006   0.005  0.00  0.00    +0.125 C 
ENDBRANCH   1  29
TORSDOF 3
