REMARK  Name = ZINC49422698
REMARK  5 active torsions:
REMARK  status: ('A' for Active; 'I' for Inactive)
REMARK    1  A    between atoms: C_1  and  C_2
REMARK    2  A    between atoms: C_9  and  S_12
REMARK    3  A    between atoms: S_12  and  C_13
REMARK    4  A    between atoms: C_13  and  C_14
REMARK    5  A    between atoms: C_14  and  C_15
REMARK                            x       y       z     vdW  Elec       q    Type
REMARK                         _______ _______ _______ _____ _____    ______ ____
ROOT
ATOM      1  S   UNL     1       0.094  -5.738   2.540  0.00  0.00    -0.087 S 
ENDROOT
BRANCH   1  10
ATOM      2  C   UNL     1      -0.018   1.503   0.010  0.00  0.00    +0.044 C 
ATOM      3  C   UNL     1       0.002  -0.004   0.002  0.00  0.00    -0.048 A 
ATOM      4  C   UNL     1       0.006  -0.686  -1.206  0.00  0.00    +0.005 A 
ATOM      5  C   UNL     1       0.024  -2.065  -1.230  0.00  0.00    +0.028 A 
ATOM      6  C   UNL     1       0.040  -2.776  -0.040  0.00  0.00    +0.067 A 
ATOM      7  C   UNL     1       0.037  -2.091   1.187  0.00  0.00    +0.090 A 
ATOM      8  C   UNL     1       0.023  -0.694   1.194  0.00  0.00    +0.033 A 
ATOM      9  N   UNL     1       0.055  -3.029   2.169  0.00  0.00    -0.222 NA
ATOM     10  C   UNL     1       0.068  -4.226   1.635  0.00  0.00    +0.167 A 
ATOM     11  N   UNL     1       0.060  -4.126   0.273  0.00  0.00    -0.333 N 
ATOM     12  H   UNL     1       0.066  -4.862  -0.358  0.00  0.00    +0.168 HD
ENDBRANCH   1  10
BRANCH   1  13
ATOM     13  C   UNL     1       0.095  -5.211   4.276  0.00  0.00    +0.086 C 
BRANCH  13  14
ATOM     14  C   UNL     1       0.117  -6.443   5.182  0.00  0.00    +0.107 C 
BRANCH  14  15
ATOM     15  C   UNL     1       0.118  -6.005   6.625  0.00  0.00    +0.221 C 
ATOM     16  O   UNL     1       0.103  -4.825   6.900  0.00  0.00    -0.275 OA
ATOM     17  N   UNL     1       0.136  -6.926   7.608  0.00  0.00    -0.240 N 
ATOM     18  C   UNL     1       0.137  -6.535   8.898  0.00  0.00    +0.303 C 
ATOM     19  O   UNL     1       0.122  -5.352   9.174  0.00  0.00    -0.253 OA
ATOM     20  N   UNL     1       0.155  -7.456   9.882  0.00  0.00    -0.313 N 
ATOM     21  H   UNL     1       0.148  -7.871   7.388  0.00  0.00    +0.159 HD
ATOM     22  H   UNL     1       0.167  -8.401   9.661  0.00  0.00    +0.146 HD
ATOM     23  H   UNL     1       0.155  -7.175  10.810  0.00  0.00    +0.146 HD
ENDBRANCH  14  15
ENDBRANCH  13  14
ENDBRANCH   1  13
TORSDOF 4
