REMARK  Name = ZINC46716946
REMARK  10 active torsions:
REMARK  status: ('A' for Active; 'I' for Inactive)
REMARK    1  A    between atoms: C_1  and  C_2
REMARK    2  A    between atoms: C_2  and  O_3
REMARK    3  A    between atoms: O_3  and  C_4
REMARK    4  A    between atoms: C_7  and  C_12
REMARK    5  A    between atoms: C_9  and  O_10
REMARK    6  A    between atoms: O_10  and  C_11
REMARK    7  A    between atoms: C_12  and  N_13
REMARK    8  A    between atoms: C_14  and  C_16
REMARK    9  A    between atoms: N_21  and  S_22
REMARK   10  A    between atoms: S_22  and  C_25
REMARK                            x       y       z     vdW  Elec       q    Type
REMARK                         _______ _______ _______ _____ _____    ______ ____
ROOT
ATOM      1  C   UNL     1      -1.363  -8.363  -3.627  0.00  0.00    +0.165 C 
ATOM      2  C   UNL     1      -1.401  -7.722  -5.030  0.00  0.00    +0.031 C 
ATOM      3  C   UNL     1      -0.743  -8.804  -5.925  0.00  0.00    +0.019 C 
ATOM      4  C   UNL     1      -1.249 -10.108  -5.260  0.00  0.00    +0.110 C 
ATOM      5  N   UNL     1      -1.255  -9.818  -3.811  0.00  0.00    -0.165 NA
ENDROOT
BRANCH   1   7
ATOM      6  N   UNL     1      -0.055  -6.540  -2.586  0.00  0.00    -0.310 N 
ATOM      7  C   UNL     1      -0.167  -7.854  -2.864  0.00  0.00    +0.232 C 
ATOM      8  O   UNL     1       0.694  -8.626  -2.499  0.00  0.00    -0.274 OA
ATOM      9  H   UNL     1      -0.743  -5.922  -2.877  0.00  0.00    +0.149 HD
BRANCH   6  10
ATOM     10  C   UNL     1       1.107  -6.044  -1.844  0.00  0.00    +0.139 C 
BRANCH  10  14
ATOM     11  C   UNL     1       0.777  -1.811  -1.336  0.00  0.00    +0.162 A 
ATOM     12  C   UNL     1       0.243  -2.669  -0.388  0.00  0.00    +0.050 A 
ATOM     13  C   UNL     1       0.352  -4.037  -0.555  0.00  0.00    +0.009 A 
ATOM     14  C   UNL     1       0.992  -4.552  -1.667  0.00  0.00    -0.027 A 
ATOM     15  C   UNL     1       1.526  -3.702  -2.616  0.00  0.00    +0.054 A 
ATOM     16  C   UNL     1       1.416  -2.330  -2.458  0.00  0.00    +0.162 A 
BRANCH  16  17
ATOM     17  O   UNL     1       1.936  -1.492  -3.394  0.00  0.00    -0.491 OA
ATOM     18  C   UNL     1       2.578  -2.095  -4.520  0.00  0.00    +0.277 C 
ENDBRANCH  16  17
BRANCH  11  19
ATOM     19  O   UNL     1       0.671  -0.465  -1.174  0.00  0.00    -0.489 OA
BRANCH  19  21
ATOM     20  C   UNL     1      -0.019   1.526   0.010  0.00  0.00    +0.048 C 
ATOM     21  C   UNL     1       0.002  -0.004   0.002  0.00  0.00    +0.226 C 
ENDBRANCH  19  21
ENDBRANCH  11  19
ENDBRANCH  10  14
ENDBRANCH   6  10
ENDBRANCH   1   7
BRANCH   5  22
ATOM     22  S   UNL     1      -1.157 -10.940  -2.597  0.00  0.00    +0.062 S 
ATOM     23  O   UNL     1      -0.525 -12.085  -3.153  0.00  0.00    -0.153 OA
ATOM     24  O   UNL     1      -0.641 -10.262  -1.459  0.00  0.00    -0.153 OA
BRANCH  22  25
ATOM     25  C   UNL     1      -2.804 -11.419  -2.195  0.00  0.00    +0.109 A 
ATOM     26  C   UNL     1      -3.507 -10.726  -1.227  0.00  0.00    +0.032 A 
ATOM     27  C   UNL     1      -4.799 -11.100  -0.908  0.00  0.00    +0.051 A 
ATOM     28  C   UNL     1      -5.394 -12.170  -1.560  0.00  0.00    +0.162 A 
ATOM     29  C   UNL     1      -4.688 -12.865  -2.535  0.00  0.00    +0.164 A 
ATOM     30  C   UNL     1      -3.393 -12.482  -2.852  0.00  0.00    +0.078 A 
ATOM     31  O   UNL     1      -5.255 -13.913  -3.192  0.00  0.00    -0.485 OA
ATOM     32  C   UNL     1      -6.416 -14.497  -2.591  0.00  0.00    +0.270 C 
ATOM     33  C   UNL     1      -7.359 -13.363  -2.167  0.00  0.00    +0.270 C 
ATOM     34  O   UNL     1      -6.665 -12.528  -1.233  0.00  0.00    -0.485 OA
ENDBRANCH  22  25
ENDBRANCH   5  22
TORSDOF 8
