REMARK  Name = ZINC37561014
REMARK  5 active torsions:
REMARK  status: ('A' for Active; 'I' for Inactive)
REMARK    1  A    between atoms: C_1  and  C_2
REMARK    2  A    between atoms: C_5  and  O_21
REMARK    3  A    between atoms: C_8  and  C_20
REMARK    4  A    between atoms: C_11  and  N_13
REMARK    5  A    between atoms: N_17  and  C_19
REMARK                            x       y       z     vdW  Elec       q    Type
REMARK                         _______ _______ _______ _____ _____    ______ ____
ROOT
ATOM      1  C   UNL     1      -0.889   0.775  -0.120  0.00  0.00    +0.044 C 
ATOM      2  C   UNL     1      -0.724  -0.683   0.223  0.00  0.00    -0.046 A 
ATOM      3  C   UNL     1      -1.083  -1.651  -0.696  0.00  0.00    +0.007 A 
ATOM      4  C   UNL     1      -0.933  -2.988  -0.385  0.00  0.00    +0.046 A 
ATOM      5  C   UNL     1      -0.422  -3.357   0.850  0.00  0.00    +0.122 A 
ATOM      6  C   UNL     1      -0.061  -2.383   1.774  0.00  0.00    +0.018 A 
ATOM      7  C   UNL     1      -0.208  -1.047   1.456  0.00  0.00    -0.033 A 
ATOM      8  C   UNL     1       0.257  -0.191   2.615  0.00  0.00    +0.019 C 
ATOM      9  C   UNL     1       0.298  -1.143   3.829  0.00  0.00    +0.035 C 
ATOM     10  C   UNL     1       0.511  -2.518   3.168  0.00  0.00    +0.106 C 
ATOM     11  C   UNL     1      -0.733   0.948   2.864  0.00  0.00    +0.012 C 
ENDROOT
BRANCH  10  12
ATOM     12  N   UNL     1       1.943  -2.820   3.103  0.00  0.00    -0.321 N 
ATOM     13  C   UNL     1       2.374  -4.147   2.985  0.00  0.00    +0.141 A 
ATOM     14  C   UNL     1       1.547  -5.280   2.913  0.00  0.00    +0.064 A 
ATOM     15  C   UNL     1       2.343  -6.368   2.805  0.00  0.00    +0.110 A 
ATOM     16  N   UNL     1       3.625  -5.946   2.809  0.00  0.00    -0.273 N 
ATOM     17  N   UNL     1       3.621  -4.549   2.916  0.00  0.00    -0.157 NA
ATOM     18  C   UNL     1       4.812  -6.799   2.712  0.00  0.00    +0.172 C 
ATOM     19  H   UNL     1       2.593  -2.101   3.141  0.00  0.00    +0.148 HD
ENDBRANCH  10  12
BRANCH   5  20
ATOM     20  O   UNL     1      -0.274  -4.672   1.158  0.00  0.00    -0.506 OA
ATOM     21  H   UNL     1       0.587  -5.039   0.913  0.00  0.00    +0.292 HD
ENDBRANCH   5  20
TORSDOF 2
