REMARK  Name = ZINC45625316
REMARK  7 active torsions:
REMARK  status: ('A' for Active; 'I' for Inactive)
REMARK    1  A    between atoms: C_1  and  C_2
REMARK    2  A    between atoms: C_2  and  C_4
REMARK    3  A    between atoms: C_2  and  N_7
REMARK    4  A    between atoms: C_4  and  O_5
REMARK    5  A    between atoms: O_5  and  C_6
REMARK    6  A    between atoms: C_8  and  C_10
REMARK    7  A    between atoms: C_12  and  N_17
REMARK                            x       y       z     vdW  Elec       q    Type
REMARK                         _______ _______ _______ _____ _____    ______ ____
ROOT
ATOM      1  C   UNL     1      -3.415  -1.167   1.191  0.00  0.00    +0.053 A 
ATOM      2  C   UNL     1      -4.046  -1.507  -0.007  0.00  0.00    +0.047 A 
ATOM      3  C   UNL     1      -5.340  -1.984   0.010  0.00  0.00    +0.127 A 
ATOM      4  C   UNL     1      -6.013  -2.126   1.211  0.00  0.00    +0.034 A 
ATOM      5  C   UNL     1      -5.396  -1.791   2.401  0.00  0.00    +0.018 A 
ATOM      6  C   UNL     1      -4.098  -1.317   2.400  0.00  0.00    +0.030 A 
ATOM      7 BR   UNL     1      -3.252  -0.866   4.030  0.00  0.00    -0.050 Br
ENDROOT
BRANCH   1   9
ATOM      8  N   UNL     1      -1.372  -0.511   0.012  0.00  0.00    -0.307 N 
ATOM      9  C   UNL     1      -2.029  -0.655   1.181  0.00  0.00    +0.245 C 
ATOM     10  O   UNL     1      -1.480  -0.364   2.226  0.00  0.00    -0.270 OA
ATOM     11  H   UNL     1      -1.810  -0.743  -0.822  0.00  0.00    +0.149 HD
BRANCH   8  13
ATOM     12  C   UNL     1      -0.019   1.526   0.010  0.00  0.00    +0.030 C 
ATOM     13  C   UNL     1       0.002  -0.004   0.002  0.00  0.00    +0.096 C 
BRANCH  13  14
ATOM     14  C   UNL     1       0.718  -0.497  -1.257  0.00  0.00    +0.181 C 
BRANCH  14  15
ATOM     15  O   UNL     1       0.097   0.070  -2.412  0.00  0.00    -0.381 OA
ATOM     16  C   UNL     1       0.693  -0.329  -3.648  0.00  0.00    +0.194 C 
ENDBRANCH  14  15
ENDBRANCH  13  14
ENDBRANCH   8  13
ENDBRANCH   1   9
BRANCH   3  17
ATOM     17  N   UNL     1      -6.010  -2.345  -1.260  0.00  0.00    +0.056 N 
ATOM     18  O   UNL     1      -5.423  -2.221  -2.309  0.00  0.00    -0.126 OA
ATOM     19  O   UNL     1      -7.144  -2.764  -1.247  0.00  0.00    -0.126 OA
ENDBRANCH   3  17
TORSDOF 5
