REMARK  Name = ZINC25679652
REMARK  14 active torsions:
REMARK  status: ('A' for Active; 'I' for Inactive)
REMARK    1  A    between atoms: C_1  and  C_2
REMARK    2  A    between atoms: C_2  and  O_3
REMARK    3  A    between atoms: O_3  and  C_4
REMARK    4  A    between atoms: C_4  and  C_6
REMARK    5  A    between atoms: C_7  and  C_33
REMARK    6  A    between atoms: C_8  and  C_29
REMARK    7  A    between atoms: C_10  and  N_11
REMARK    8  A    between atoms: C_12  and  C_14
REMARK    9  A    between atoms: C_14  and  O_15
REMARK   10  A    between atoms: O_15  and  C_16
REMARK   11  A    between atoms: C_16  and  C_18
REMARK   12  A    between atoms: C_21  and  C_24
REMARK   13  A    between atoms: C_24  and  N_25
REMARK   14  A    between atoms: N_31  and  C_32
REMARK                            x       y       z     vdW  Elec       q    Type
REMARK                         _______ _______ _______ _____ _____    ______ ____
ROOT
ATOM      1  N   UNL     1       4.806   1.562  -0.035  0.00  0.00    -0.277 N 
ATOM      2  C   UNL     1       3.554   2.060  -0.021  0.00  0.00    +0.255 C 
ATOM      3  O   UNL     1       3.379   3.260  -0.013  0.00  0.00    -0.272 OA
ATOM      4  H   UNL     1       4.965   0.473  -0.043  0.00  0.00    +0.155 HD
ENDROOT
BRANCH   1   9
ATOM      5  C   UNL     1       7.252   2.100  -0.056  0.00  0.00    +0.091 A 
ATOM      6  C   UNL     1       8.159   3.149  -0.059  0.00  0.00    -0.015 A 
ATOM      7  C   UNL     1       7.659   4.422  -0.047  0.00  0.00    +0.079 A 
ATOM      8  S   UNL     1       5.897   4.151  -0.040  0.00  0.00    -0.068 S 
ATOM      9  C   UNL     1       5.890   2.418  -0.041  0.00  0.00    +0.087 A 
ATOM     10  C   UNL     1       9.645   2.895  -0.074  0.00  0.00    +0.046 C 
BRANCH   7  11
ATOM     11  C   UNL     1       8.389   5.691  -0.047  0.00  0.00    +0.251 C 
ATOM     12  O   UNL     1       9.606   5.694  -0.059  0.00  0.00    -0.270 OA
ATOM     13  N   UNL     1       7.713   6.857  -0.035  0.00  0.00    -0.314 N 
ATOM     14  C   UNL     1       8.444   8.127  -0.035  0.00  0.00    +0.128 C 
ATOM     15  H   UNL     1       6.613   6.856  -0.024  0.00  0.00    +0.149 HD
ENDBRANCH   7  11
BRANCH   5  16
ATOM     16  C   UNL     1       7.705   0.704  -0.067  0.00  0.00    +0.342 C 
ATOM     17  O   UNL     1       7.883   0.132  -1.125  0.00  0.00    -0.245 OA
BRANCH  16  18
ATOM     18  O   UNL     1       7.924   0.057   1.095  0.00  0.00    -0.461 OA
BRANCH  18  20
ATOM     19  C   UNL     1       8.565  -1.885   2.417  0.00  0.00    +0.048 C 
ATOM     20  C   UNL     1       8.371  -1.321   1.008  0.00  0.00    +0.229 C 
ENDBRANCH  18  20
ENDBRANCH  16  18
ENDBRANCH   5  16
ENDBRANCH   1   9
BRANCH   2  21
ATOM     21  C   UNL     1       2.371   1.126  -0.015  0.00  0.00    +0.328 C 
BRANCH  21  22
ATOM     22  O   UNL     1       1.143   1.900   0.001  0.00  0.00    -0.452 OA
BRANCH  22  23
ATOM     23  C   UNL     1      -0.014   1.210   0.009  0.00  0.00    +0.340 C 
ATOM     24  O   UNL     1       0.002  -0.004   0.002  0.00  0.00    -0.245 OA
BRANCH  23  25
ATOM     25  C   UNL     1      -1.304   1.932   0.019  0.00  0.00    +0.059 A 
ATOM     26  C   UNL     1      -1.326   3.328   0.032  0.00  0.00    +0.015 A 
ATOM     27  C   UNL     1      -2.534   3.995   0.036  0.00  0.00    +0.006 A 
ATOM     28  C   UNL     1      -3.720   3.284   0.037  0.00  0.00    -0.030 A 
ATOM     29  C   UNL     1      -3.705   1.900   0.030  0.00  0.00    +0.006 A 
ATOM     30  C   UNL     1      -2.505   1.220   0.021  0.00  0.00    +0.015 A 
BRANCH  28  31
ATOM     31  C   UNL     1      -5.036   4.019   0.047  0.00  0.00    +0.141 C 
BRANCH  31  32
ATOM     32  N   UNL     1      -5.456   4.250   1.431  0.00  0.00    -0.295 N 
ATOM     33  C   UNL     1      -6.611   4.896   1.686  0.00  0.00    +0.297 C 
ATOM     34  O   UNL     1      -7.305   5.287   0.767  0.00  0.00    -0.253 OA
ATOM     35  N   UNL     1      -6.998   5.108   2.960  0.00  0.00    -0.313 N 
ATOM     36  H   UNL     1      -4.829   3.897   2.263  0.00  0.00    +0.151 HD
ATOM     37  H   UNL     1      -7.941   5.635   3.168  0.00  0.00    +0.146 HD
ATOM     38  H   UNL     1      -6.370   4.755   3.791  0.00  0.00    +0.146 HD
ENDBRANCH  31  32
ENDBRANCH  28  31
ENDBRANCH  23  25
ENDBRANCH  22  23
ENDBRANCH  21  22
ENDBRANCH   2  21
TORSDOF 11
