REMARK  Name = ZINC45538669
REMARK  14 active torsions:
REMARK  status: ('A' for Active; 'I' for Inactive)
REMARK    1  A    between atoms: C_1  and  C_2
REMARK    2  A    between atoms: C_2  and  N_3
REMARK    3  A    between atoms: N_3  and  C_4
REMARK    4  A    between atoms: N_3  and  C_6
REMARK    5  A    between atoms: C_4  and  C_5
REMARK    6  A    between atoms: C_6  and  C_8
REMARK    7  A    between atoms: C_6  and  C_12
REMARK    8  A    between atoms: C_8  and  C_9
REMARK    9  A    between atoms: C_9  and  C_10
REMARK   10  A    between atoms: C_9  and  C_11
REMARK   11  A    between atoms: C_12  and  N_13
REMARK   12  A    between atoms: N_16  and  N_17
REMARK   13  A    between atoms: C_18  and  C_20
REMARK   14  A    between atoms: C_25  and  C_26
REMARK                            x       y       z     vdW  Elec       q    Type
REMARK                         _______ _______ _______ _____ _____    ______ ____
ROOT
ATOM      1  N   UNL     1       0.239  -3.032   0.359  0.00  0.00    -0.300 N 
ATOM      2  C   UNL     1       1.078  -3.773   1.111  0.00  0.00    +0.316 C 
ATOM      3  O   UNL     1       0.640  -4.675   1.799  0.00  0.00    -0.251 OA
ATOM      4  N   UNL     1       2.400  -3.514   1.099  0.00  0.00    -0.218 N 
ATOM      5  H   UNL     1       0.588  -2.313  -0.190  0.00  0.00    +0.150 HD
ATOM      6  H   UNL     1       3.003  -4.048   1.640  0.00  0.00    +0.174 HD
ENDROOT
BRANCH   4   7
ATOM      7  N   UNL     1       2.904  -2.475   0.306  0.00  0.00    -0.229 N 
ATOM      8  C   UNL     1       4.226  -2.216   0.295  0.00  0.00    +0.260 C 
ATOM      9  O   UNL     1       4.982  -2.885   0.973  0.00  0.00    -0.269 OA
ATOM     10  H   UNL     1       2.301  -1.942  -0.235  0.00  0.00    +0.173 HD
BRANCH   8  11
ATOM     11  C   UNL     1       4.758  -1.120  -0.542  0.00  0.00    +0.041 A 
ATOM     12  C   UNL     1       3.913  -0.429  -1.412  0.00  0.00    +0.013 A 
ATOM     13  C   UNL     1       4.415   0.594  -2.190  0.00  0.00    +0.001 A 
ATOM     14  C   UNL     1       5.753   0.935  -2.110  0.00  0.00    +0.000 A 
ATOM     15  C   UNL     1       6.597   0.254  -1.250  0.00  0.00    +0.004 A 
ATOM     16  C   UNL     1       6.106  -0.767  -0.462  0.00  0.00    -0.038 A 
ATOM     17  C   UNL     1       7.025  -1.503   0.478  0.00  0.00    +0.044 C 
ENDBRANCH   8  11
ENDBRANCH   4   7
BRANCH   1  18
ATOM     18  C   UNL     1      -1.198  -3.313   0.371  0.00  0.00    +0.090 C 
BRANCH  18  19
ATOM     19  C   UNL     1      -1.936  -2.234  -0.424  0.00  0.00    -0.051 C 
BRANCH  19  20
ATOM     20  N   UNL     1      -1.936  -0.979   0.339  0.00  0.00    +0.382 N 
ATOM     21  H   UNL     1      -2.522  -0.302  -0.127  0.00  0.00    -0.081 HD
BRANCH  20  23
ATOM     22  C   UNL     1      -2.608   0.104   2.431  0.00  0.00    -0.017 C 
ATOM     23  C   UNL     1      -2.456  -1.227   1.690  0.00  0.00    -0.082 C 
ENDBRANCH  20  23
BRANCH  20  24
ATOM     24  C   UNL     1      -0.565  -0.460   0.429  0.00  0.00    -0.082 C 
ATOM     25  C   UNL     1      -0.046  -0.144  -0.975  0.00  0.00    -0.017 C 
ENDBRANCH  20  24
ENDBRANCH  19  20
BRANCH  19  26
ATOM     26  C   UNL     1      -3.378  -2.680  -0.672  0.00  0.00    -0.011 C 
BRANCH  26  27
ATOM     27  C   UNL     1      -4.114  -1.605  -1.474  0.00  0.00    -0.019 C 
ATOM     28  C   UNL     1      -3.450  -1.446  -2.844  0.00  0.00    +0.007 C 
ATOM     29  C   UNL     1      -5.575  -2.017  -1.661  0.00  0.00    +0.007 C 
ENDBRANCH  26  27
ENDBRANCH  19  26
ENDBRANCH  18  19
ENDBRANCH   1  18
TORSDOF 9
