REMARK  Name = ZINC44687814
REMARK  3 active torsions:
REMARK  status: ('A' for Active; 'I' for Inactive)
REMARK    1  A    between atoms: C_12  and  N_14
REMARK    2  A    between atoms: N_14  and  C_15
REMARK    3  A    between atoms: N_19  and  C_21
REMARK                            x       y       z     vdW  Elec       q    Type
REMARK                         _______ _______ _______ _____ _____    ______ ____
ROOT
ATOM      1  C   UNL     1      -0.017   1.380   0.010  0.00  0.00    +0.025 A 
ATOM      2  C   UNL     1       1.167   2.083   0.002  0.00  0.00    +0.001 A 
ATOM      3  C   UNL     1       2.389   1.422  -0.013  0.00  0.00    +0.041 A 
ATOM      4  C   UNL     1       2.402   0.029  -0.020  0.00  0.00    +0.063 A 
ATOM      5  C   UNL     1       1.214  -0.676  -0.012  0.00  0.00    +0.139 A 
ATOM      6  C   UNL     1       0.002  -0.004   0.002  0.00  0.00    +0.053 A 
ATOM      7 BR   UNL     1      -1.621  -0.975   0.012  0.00  0.00    -0.047 Br
ATOM      8  F   UNL     1       1.234  -2.027  -0.019  0.00  0.00    -0.204 F 
ATOM      9  N   UNL     1       3.436   2.344  -0.019  0.00  0.00    -0.284 N 
ATOM     10  C   UNL     1       2.997   3.614  -0.008  0.00  0.00    +0.239 C 
ATOM     11  O   UNL     1       3.683   4.614  -0.011  0.00  0.00    -0.273 OA
ATOM     12  C   UNL     1       1.484   3.561   0.006  0.00  0.00    +0.173 C 
ATOM     13  H   UNL     1       4.374   2.097  -0.029  0.00  0.00    +0.155 HD
ENDROOT
BRANCH  12  14
ATOM     14  N   UNL     1       0.935   4.209  -1.193  0.00  0.00    -0.301 NA
ATOM     15  H   UNL     1       1.540   4.070  -1.988  0.00  0.00    +0.123 HD
BRANCH  14  16
ATOM     16  C   UNL     1       0.695   5.638  -0.956  0.00  0.00    +0.036 C 
ATOM     17  C   UNL     1      -0.734   5.878  -0.403  0.00  0.00    -0.002 C 
ATOM     18  C   UNL     1      -1.043   7.322  -0.852  0.00  0.00    -0.077 C 
ATOM     19  N   UNL     1      -0.166   7.620  -1.999  0.00  0.00    +0.383 N 
ATOM     20  C   UNL     1       0.650   6.422  -2.292  0.00  0.00    -0.060 C 
ATOM     21  H   UNL     1       0.439   8.395  -1.772  0.00  0.00    -0.081 HD
BRANCH  19  22
ATOM     22  C   UNL     1      -0.983   7.960  -3.171  0.00  0.00    -0.069 C 
ATOM     23  C   UNL     1      -0.630   9.241  -3.931  0.00  0.00    -0.017 C 
ATOM     24  C   UNL     1      -1.892   9.187  -3.067  0.00  0.00    -0.017 C 
ENDBRANCH  19  22
ENDBRANCH  14  16
ENDBRANCH  12  14
TORSDOF 3
