REMARK  Name = ZINC35375022
REMARK  5 active torsions:
REMARK  status: ('A' for Active; 'I' for Inactive)
REMARK    1  A    between atoms: C_4  and  C_7
REMARK    2  A    between atoms: C_7  and  C_8
REMARK    3  A    between atoms: C_8  and  N_9
REMARK    4  A    between atoms: C_10  and  C_12
REMARK    5  A    between atoms: N_25  and  C_26
REMARK                            x       y       z     vdW  Elec       q    Type
REMARK                         _______ _______ _______ _____ _____    ______ ____
ROOT
ATOM      1  C   UNL     1       7.068  -2.880   2.666  0.00  0.00    +0.028 C 
ATOM      2  C   UNL     1       8.210  -2.307   1.775  0.00  0.00    +0.061 C 
ATOM      3  S   UNL     1       9.622  -3.263   2.491  0.00  0.00    -0.174 S 
ATOM      4  C   UNL     1       8.956  -3.409   4.198  0.00  0.00    -0.016 C 
ATOM      5  N   UNL     1       7.532  -3.073   4.044  0.00  0.00    +0.397 N 
ATOM      6  C   UNL     1       9.134  -4.837   4.694  0.00  0.00    +0.017 C 
ATOM      7  C   UNL     1       8.561  -4.961   6.111  0.00  0.00    +0.109 C 
ATOM      8  N   UNL     1       9.167  -3.924   6.957  0.00  0.00    -0.285 N 
ATOM      9  C   UNL     1       9.089  -2.522   6.525  0.00  0.00    +0.109 C 
ATOM     10  C   UNL     1       9.659  -2.412   5.107  0.00  0.00    +0.017 C 
ATOM     11  C   UNL     1       9.785  -4.253   8.109  0.00  0.00    +0.306 C 
ATOM     12  O   UNL     1       9.767  -5.404   8.501  0.00  0.00    -0.252 OA
ATOM     13  N   UNL     1      10.421  -3.307   8.827  0.00  0.00    -0.268 N 
ATOM     14  H   UNL     1       7.350  -2.225   4.560  0.00  0.00    -0.083 HD
ATOM     15  H   UNL     1      10.379  -2.378   8.550  0.00  0.00    +0.156 HD
ATOM     16  H   UNL     1       6.988  -3.814   4.459  0.00  0.00    -0.083 HD
ENDROOT
BRANCH  13  17
ATOM     17  C   UNL     1      11.144  -3.664   9.971  0.00  0.00    +0.055 A 
ATOM     18  C   UNL     1      11.527  -4.984  10.169  0.00  0.00    +0.025 A 
ATOM     19  C   UNL     1      12.240  -5.335  11.298  0.00  0.00    +0.003 A 
ATOM     20  C   UNL     1      12.574  -4.372  12.233  0.00  0.00    +0.021 A 
ATOM     21  C   UNL     1      12.196  -3.055  12.041  0.00  0.00    +0.061 A 
ATOM     22  C   UNL     1      11.486  -2.697  10.909  0.00  0.00    +0.080 A 
ATOM     23 CL   UNL     1      11.017  -1.044  10.663  0.00  0.00    -0.080 Cl
ATOM     24 CL   UNL     1      12.617  -1.851  13.218  0.00  0.00    -0.082 Cl
ENDBRANCH  13  17
BRANCH   1  26
ATOM     25  N   UNL     1       5.293  -1.606   1.506  0.00  0.00    -0.316 N 
ATOM     26  C   UNL     1       5.907  -1.919   2.664  0.00  0.00    +0.200 C 
ATOM     27  O   UNL     1       5.526  -1.427   3.705  0.00  0.00    -0.278 OA
ATOM     28  H   UNL     1       5.599  -2.000   0.673  0.00  0.00    +0.149 HD
BRANCH  25  29
ATOM     29  C   UNL     1       4.165  -0.672   1.504  0.00  0.00    +0.109 C 
BRANCH  29  30
ATOM     30  C   UNL     1       3.655  -0.492   0.072  0.00  0.00    +0.054 C 
BRANCH  30  34
ATOM     31  C   UNL     1       0.364   2.232   0.064  0.00  0.00    +0.000 A 
ATOM     32  C   UNL     1       1.654   2.706  -0.088  0.00  0.00    +0.000 A 
ATOM     33  C   UNL     1       2.719   1.825  -0.086  0.00  0.00    +0.004 A 
ATOM     34  C   UNL     1       2.494   0.469   0.070  0.00  0.00    -0.046 A 
ATOM     35  C   UNL     1       1.204  -0.004   0.223  0.00  0.00    +0.004 A 
ATOM     36  C   UNL     1       0.139   0.877   0.219  0.00  0.00    +0.000 A 
ENDBRANCH  30  34
ENDBRANCH  29  30
ENDBRANCH  25  29
ENDBRANCH   1  26
TORSDOF 5
