REMARK  Name = ZINC62826436
REMARK  5 active torsions:
REMARK  status: ('A' for Active; 'I' for Inactive)
REMARK    1  A    between atoms: C_1  and  C_2
REMARK    2  A    between atoms: C_5  and  C_7
REMARK    3  A    between atoms: C_8  and  C_9
REMARK    4  A    between atoms: N_11  and  C_12
REMARK    5  A    between atoms: C_13  and  C_19
REMARK                            x       y       z     vdW  Elec       q    Type
REMARK                         _______ _______ _______ _____ _____    ______ ____
ROOT
ATOM      1  C   UNL     1       4.003  -3.895   0.554  0.00  0.00    +0.241 C 
ATOM      2  O   UNL     1       3.637  -4.905   1.128  0.00  0.00    -0.270 OA
ATOM      3  N   UNL     1       5.197  -3.870  -0.070  0.00  0.00    -0.280 N 
ATOM      4  H   UNL     1       5.454  -3.096  -0.595  0.00  0.00    +0.155 HD
ENDROOT
BRANCH   3   5
ATOM      5  C   UNL     1       6.061  -4.954   0.038  0.00  0.00    +0.062 A 
ATOM      6  C   UNL     1       7.384  -4.763   0.468  0.00  0.00    +0.085 A 
ATOM      7  C   UNL     1       8.242  -5.862   0.573  0.00  0.00    +0.017 A 
ATOM      8  C   UNL     1       7.787  -7.122   0.254  0.00  0.00    +0.002 A 
ATOM      9  C   UNL     1       6.480  -7.308  -0.171  0.00  0.00    +0.017 A 
ATOM     10  C   UNL     1       5.619  -6.234  -0.274  0.00  0.00    +0.040 A 
ATOM     11 BR   UNL     1       3.837  -6.504  -0.847  0.00  0.00    -0.048 Br
BRANCH   6  12
ATOM     12  C   UNL     1       7.865  -3.414   0.807  0.00  0.00    +0.388 C 
ATOM     13  O   UNL     1       9.044  -3.236   1.082  0.00  0.00    -0.241 OA
ATOM     14  O   UNL     1       7.085  -2.471   0.814  0.00  0.00    -0.241 OA
ENDBRANCH   6  12
ENDBRANCH   3   5
BRANCH   1  16
ATOM     15  C   UNL     1       1.972  -2.774   1.169  0.00  0.00    +0.051 C 
ATOM     16  C   UNL     1       3.174  -2.749   0.541  0.00  0.00    +0.071 C 
BRANCH  15  21
ATOM     17  C   UNL     1       0.344   1.820   0.249  0.00  0.00    +0.086 C 
ATOM     18  C   UNL     1       0.408   0.404   0.758  0.00  0.00    +0.103 A 
ATOM     19  C   UNL     1      -0.550  -0.212   1.486  0.00  0.00    +0.045 A 
ATOM     20  C   UNL     1      -0.098  -1.514   1.751  0.00  0.00    +0.049 A 
ATOM     21  C   UNL     1       1.142  -1.627   1.157  0.00  0.00    +0.128 A 
ATOM     22  O   UNL     1       1.421  -0.451   0.557  0.00  0.00    -0.461 OA
ENDBRANCH  15  21
ENDBRANCH   1  16
TORSDOF 4
