REMARK  Name = ZINC59135610
REMARK  11 active torsions:
REMARK  status: ('A' for Active; 'I' for Inactive)
REMARK    1  A    between atoms: C_1  and  C_2
REMARK    2  A    between atoms: C_2  and  O_3
REMARK    3  A    between atoms: O_3  and  C_4
REMARK    4  A    between atoms: C_6  and  C_22
REMARK    5  A    between atoms: C_8  and  C_19
REMARK    6  A    between atoms: C_9  and  O_10
REMARK    7  A    between atoms: O_10  and  C_11
REMARK    8  A    between atoms: C_11  and  C_12
REMARK    9  A    between atoms: C_15  and  C_18
REMARK   10  A    between atoms: C_19  and  C_20
REMARK   11  A    between atoms: N_28  and  C_31
REMARK                            x       y       z     vdW  Elec       q    Type
REMARK                         _______ _______ _______ _____ _____    ______ ____
ROOT
ATOM      1  C   UNL     1      -1.192  -2.615  -0.524  0.00  0.00    +0.163 A 
ATOM      2  C   UNL     1      -0.160  -3.509  -0.330  0.00  0.00    +0.057 A 
ATOM      3  C   UNL     1      -0.395  -4.705   0.365  0.00  0.00    -0.020 A 
ATOM      4  C   UNL     1      -1.679  -4.983   0.859  0.00  0.00    +0.015 A 
ATOM      5  C   UNL     1      -2.701  -4.085   0.659  0.00  0.00    +0.002 A 
ATOM      6  C   UNL     1      -2.465  -2.898  -0.025  0.00  0.00    +0.166 A 
ENDROOT
BRANCH   3   7
ATOM      7  C   UNL     1       0.695  -5.658   0.574  0.00  0.00    +0.026 C 
ATOM      8  C   UNL     1       0.481  -7.008   0.366  0.00  0.00    +0.102 C 
ATOM      9  C   UNL     1      -0.754  -7.506  -0.278  0.00  0.00    +0.276 C 
ATOM     10  N   UNL     1      -0.894  -8.830  -0.449  0.00  0.00    -0.123 NA
ATOM     11  C   UNL     1       0.024  -9.681  -0.064  0.00  0.00    +0.340 C 
ATOM     12  O   UNL     1      -0.198 -10.993  -0.274  0.00  0.00    -0.250 OA
ATOM     13  N   UNL     1       1.189  -9.316   0.536  0.00  0.00    -0.188 N 
ATOM     14  C   UNL     1       1.477  -8.018   0.770  0.00  0.00    +0.264 C 
ATOM     15  O   UNL     1       2.523  -7.692   1.301  0.00  0.00    -0.269 OA
ATOM     16  O   UNL     1      -1.623  -6.733  -0.645  0.00  0.00    -0.268 OA
BRANCH  13  17
ATOM     17  C   UNL     1       2.109 -10.304   0.912  0.00  0.00    +0.046 A 
ATOM     18  C   UNL     1       2.335 -10.569   2.256  0.00  0.00    +0.027 A 
ATOM     19  C   UNL     1       3.242 -11.543   2.625  0.00  0.00    +0.040 A 
ATOM     20  C   UNL     1       3.927 -12.255   1.655  0.00  0.00    +0.124 A 
ATOM     21  C   UNL     1       3.704 -11.992   0.313  0.00  0.00    +0.040 A 
ATOM     22  C   UNL     1       2.792 -11.024  -0.059  0.00  0.00    +0.027 A 
ATOM     23  F   UNL     1       4.814 -13.207   2.017  0.00  0.00    -0.205 F 
ENDBRANCH  13  17
ENDBRANCH   3   7
BRANCH   1  24
ATOM     24  O   UNL     1      -0.969  -1.454  -1.197  0.00  0.00    -0.489 OA
BRANCH  24  26
ATOM     25  C   UNL     1       0.414   0.117  -2.405  0.00  0.00    +0.048 C 
ATOM     26  C   UNL     1       0.357  -1.229  -1.680  0.00  0.00    +0.226 C 
ENDBRANCH  24  26
ENDBRANCH   1  24
BRANCH   6  27
ATOM     27  O   UNL     1      -3.477  -2.013  -0.213  0.00  0.00    -0.483 OA
BRANCH  27  28
ATOM     28  C   UNL     1      -3.587  -0.944   0.729  0.00  0.00    +0.264 C 
BRANCH  28  29
ATOM     29  C   UNL     1      -4.683  -0.005   0.297  0.00  0.00    -0.010 A 
ATOM     30  C   UNL     1      -4.393   1.060  -0.536  0.00  0.00    +0.007 A 
ATOM     31  C   UNL     1      -5.398   1.922  -0.933  0.00  0.00    +0.004 A 
ATOM     32  C   UNL     1      -6.694   1.718  -0.497  0.00  0.00    -0.050 A 
ATOM     33  C   UNL     1      -6.985   0.653   0.335  0.00  0.00    +0.004 A 
ATOM     34  C   UNL     1      -5.980  -0.211   0.728  0.00  0.00    +0.007 A 
ATOM     35  C   UNL     1      -7.790   2.659  -0.929  0.00  0.00    +0.044 C 
ENDBRANCH  28  29
ENDBRANCH  27  28
ENDBRANCH   6  27
BRANCH   5  36
ATOM     36  C   UNL     1      -4.079  -4.385   1.190  0.00  0.00    +0.065 C 
BRANCH  36  37
ATOM     37  C   UNL     1      -4.919  -4.988   0.094  0.00  0.00    -0.030 C 
ATOM     38  C   UNL     1      -5.428  -6.186   0.242  0.00  0.00    +0.004 C 
ENDBRANCH  36  37
ENDBRANCH   5  36
TORSDOF 9
