REMARK  Name = ZINC33715684
REMARK  6 active torsions:
REMARK  status: ('A' for Active; 'I' for Inactive)
REMARK    1  A    between atoms: C_3  and  C_10
REMARK    2  A    between atoms: C_5  and  C_7
REMARK    3  A    between atoms: C_10  and  O_11
REMARK    4  A    between atoms: O_11  and  C_12
REMARK    5  A    between atoms: C_15  and  C_19
REMARK    6  A    between atoms: N_23  and  C_27
REMARK                            x       y       z     vdW  Elec       q    Type
REMARK                         _______ _______ _______ _____ _____    ______ ____
ROOT
ATOM      1  C   UNL     1       5.145   3.292   1.577  0.00  0.00    +0.139 A 
ATOM      2  C   UNL     1       5.857   3.692   0.452  0.00  0.00    +0.048 A 
ATOM      3  C   UNL     1       7.056   4.354   0.592  0.00  0.00    +0.011 A 
ATOM      4  C   UNL     1       7.559   4.624   1.871  0.00  0.00    -0.022 A 
ATOM      5  C   UNL     1       6.838   4.220   3.001  0.00  0.00    +0.031 A 
ATOM      6  C   UNL     1       5.636   3.563   2.849  0.00  0.00    +0.083 A 
ATOM      7 CL   UNL     1       4.737   3.067   4.249  0.00  0.00    -0.080 Cl
ENDROOT
BRANCH   4   8
ATOM      8  C   UNL     1       8.838   5.329   2.026  0.00  0.00    +0.036 C 
ATOM      9  C   UNL     1       9.566   5.173   3.161  0.00  0.00    +0.099 C 
ATOM     10  C   UNL     1      10.768   5.919   3.561  0.00  0.00    +0.273 C 
ATOM     11  O   UNL     1      11.317   6.809   2.937  0.00  0.00    -0.268 OA
ATOM     12  N   UNL     1      11.139   5.420   4.757  0.00  0.00    -0.189 N 
ATOM     13  C   UNL     1      10.291   4.449   5.128  0.00  0.00    +0.318 C 
ATOM     14  O   UNL     1      10.378   3.818   6.165  0.00  0.00    -0.251 OA
ATOM     15  N   UNL     1       9.329   4.269   4.206  0.00  0.00    -0.264 N 
ATOM     16  H   UNL     1       8.603   3.628   4.255  0.00  0.00    +0.157 HD
BRANCH  12  17
ATOM     17  C   UNL     1      12.247   5.850   5.501  0.00  0.00    +0.046 A 
ATOM     18  C   UNL     1      13.055   6.870   5.018  0.00  0.00    +0.025 A 
ATOM     19  C   UNL     1      14.146   7.293   5.753  0.00  0.00    +0.022 A 
ATOM     20  C   UNL     1      14.433   6.700   6.970  0.00  0.00    +0.041 A 
ATOM     21  C   UNL     1      13.629   5.683   7.453  0.00  0.00    +0.022 A 
ATOM     22  C   UNL     1      12.534   5.261   6.725  0.00  0.00    +0.025 A 
ATOM     23 CL   UNL     1      15.805   7.233   7.891  0.00  0.00    -0.084 Cl
ENDBRANCH  12  17
ENDBRANCH   4   8
BRANCH   1  24
ATOM     24  O   UNL     1       3.963   2.640   1.432  0.00  0.00    -0.486 OA
BRANCH  24  25
ATOM     25  C   UNL     1       3.516   2.394   0.097  0.00  0.00    +0.264 C 
BRANCH  25  28
ATOM     26  C   UNL     1      -0.203   1.724   0.187  0.00  0.00    +0.001 A 
ATOM     27  C   UNL     1       1.014   2.384   0.152  0.00  0.00    +0.007 A 
ATOM     28  C   UNL     1       2.197   1.667   0.135  0.00  0.00    -0.010 A 
ATOM     29  C   UNL     1       2.172   0.288   0.151  0.00  0.00    +0.022 A 
ATOM     30  C   UNL     1       0.948  -0.385   0.186  0.00  0.00    +0.064 A 
ATOM     31  C   UNL     1      -0.243   0.346   0.204  0.00  0.00    +0.015 A 
BRANCH  30  32
ATOM     32  C   UNL     1       0.913  -1.859   0.204  0.00  0.00    +0.387 C 
ATOM     33  O   UNL     1       1.957  -2.496   0.189  0.00  0.00    -0.241 OA
ATOM     34  O   UNL     1      -0.160  -2.445   0.235  0.00  0.00    -0.241 OA
ENDBRANCH  30  32
ENDBRANCH  25  28
ENDBRANCH  24  25
ENDBRANCH   1  24
TORSDOF 6
