REMARK  Name = ZINC44783372
REMARK  7 active torsions:
REMARK  status: ('A' for Active; 'I' for Inactive)
REMARK    1  A    between atoms: C_1  and  C_2
REMARK    2  A    between atoms: C_2  and  C_3
REMARK    3  A    between atoms: C_3  and  C_5
REMARK    4  A    between atoms: C_3  and  N_6
REMARK    5  A    between atoms: C_7  and  C_9
REMARK    6  A    between atoms: C_9  and  C_15
REMARK    7  A    between atoms: N_16  and  O_17
REMARK                            x       y       z     vdW  Elec       q    Type
REMARK                         _______ _______ _______ _____ _____    ______ ____
ROOT
ATOM      1  C   UNL     1      -4.172   0.381   2.570  0.00  0.00    +0.105 C 
ATOM      2  C   UNL     1      -3.744   1.797   2.959  0.00  0.00    +0.024 C 
ATOM      3  C   UNL     1      -4.057   2.759   1.811  0.00  0.00    +0.001 C 
ATOM      4  C   UNL     1      -5.561   2.741   1.527  0.00  0.00    +0.000 C 
ATOM      5  C   UNL     1      -5.989   1.324   1.137  0.00  0.00    +0.001 C 
ATOM      6  C   UNL     1      -5.675   0.363   2.285  0.00  0.00    +0.024 C 
ENDROOT
BRANCH   1   7
ATOM      7  C   UNL     1      -3.863  -0.566   3.701  0.00  0.00    +0.147 C 
ATOM      8  N   UNL     1      -4.799  -1.305   4.198  0.00  0.00    -0.076 NA
ATOM      9  N   UNL     1      -2.583  -0.644   4.203  0.00  0.00    -0.343 N 
ATOM     10  H   UNL     1      -1.866  -0.145   3.783  0.00  0.00    +0.144 HD
ATOM     11  H   UNL     1      -2.400  -1.198   4.978  0.00  0.00    +0.144 HD
BRANCH   8  12
ATOM     12  O   UNL     1      -4.508  -2.195   5.261  0.00  0.00    -0.408 OA
ATOM     13  H   UNL     1      -5.271  -2.704   5.566  0.00  0.00    +0.328 HD
ENDBRANCH   8  12
ENDBRANCH   1   7
BRANCH   1  15
ATOM     14  N   UNL     1      -3.739  -1.207   0.724  0.00  0.00    -0.312 N 
ATOM     15  C   UNL     1      -3.422  -0.049   1.335  0.00  0.00    +0.227 C 
ATOM     16  O   UNL     1      -2.533   0.648   0.892  0.00  0.00    -0.275 OA
ATOM     17  H   UNL     1      -4.399  -1.799   1.118  0.00  0.00    +0.149 HD
BRANCH  14  18
ATOM     18  C   UNL     1      -3.087  -1.572  -0.536  0.00  0.00    +0.070 C 
ATOM     19  C   UNL     1      -3.832  -0.922  -1.704  0.00  0.00    +0.028 C 
BRANCH  18  21
ATOM     20  C   UNL     1      -2.260  -3.738   0.396  0.00  0.00    +0.005 C 
ATOM     21  C   UNL     1      -3.110  -3.093  -0.701  0.00  0.00    +0.018 C 
ENDBRANCH  18  21
ENDBRANCH  14  18
ENDBRANCH   1  15
TORSDOF 5
