REMARK  Name = ZINC64600205
REMARK  10 active torsions:
REMARK  status: ('A' for Active; 'I' for Inactive)
REMARK    1  A    between atoms: C_1  and  S_2
REMARK    2  A    between atoms: S_2  and  C_3
REMARK    3  A    between atoms: C_3  and  C_4
REMARK    4  A    between atoms: C_4  and  C_5
REMARK    5  A    between atoms: C_5  and  C_7
REMARK    6  A    between atoms: C_5  and  N_21
REMARK    7  A    between atoms: N_9  and  C_10
REMARK    8  A    between atoms: C_10  and  C_11
REMARK    9  A    between atoms: C_11  and  C_12
REMARK   10  A    between atoms: C_26  and  O_34
REMARK                            x       y       z     vdW  Elec       q    Type
REMARK                         _______ _______ _______ _____ _____    ______ ____
ROOT
ATOM      1  C   UNL     1      -3.356  -2.382   0.021  0.00  0.00    +0.161 C 
ENDROOT
BRANCH   1   2
ATOM      2  N   UNL     1      -3.989  -1.935  -1.222  0.00  0.00    -0.288 N 
ATOM      3  C   UNL     1      -4.456  -0.675  -1.326  0.00  0.00    +0.308 C 
ATOM      4  O   UNL     1      -4.351   0.091  -0.388  0.00  0.00    -0.252 OA
ATOM      5  N   UNL     1      -5.038  -0.264  -2.470  0.00  0.00    -0.245 N 
ATOM      6  C   UNL     1      -5.187  -1.167  -3.623  0.00  0.00    +0.210 C 
ATOM      7  C   UNL     1      -4.900  -0.399  -4.887  0.00  0.00    +0.206 C 
ATOM      8  N   UNL     1      -5.091   0.880  -4.963  0.00  0.00    -0.214 NA
ATOM      9  C   UNL     1      -5.552   1.606  -3.898  0.00  0.00    +0.089 A 
ATOM     10  C   UNL     1      -5.534   1.041  -2.611  0.00  0.00    +0.064 A 
ATOM     11  C   UNL     1      -5.993   1.759  -1.525  0.00  0.00    +0.026 A 
ATOM     12  C   UNL     1      -6.480   3.042  -1.707  0.00  0.00    +0.002 A 
ATOM     13  C   UNL     1      -6.510   3.605  -2.970  0.00  0.00    +0.002 A 
ATOM     14  C   UNL     1      -6.042   2.898  -4.070  0.00  0.00    +0.030 A 
ATOM     15  H   UNL     1      -4.073  -2.547  -1.971  0.00  0.00    +0.151 HD
BRANCH   7  16
ATOM     16  O   UNL     1      -4.432  -1.059  -5.966  0.00  0.00    -0.494 OA
ATOM     17  H   UNL     1      -4.274  -0.494  -6.735  0.00  0.00    +0.293 HD
ENDBRANCH   7  16
ENDBRANCH   1   2
BRANCH   1  18
ATOM     18  C   UNL     1      -3.480  -3.879   0.138  0.00  0.00    +0.233 C 
ATOM     19  O   UNL     1      -4.041  -4.511  -0.731  0.00  0.00    -0.274 OA
ATOM     20  N   UNL     1      -2.966  -4.516   1.209  0.00  0.00    -0.313 N 
ATOM     21  H   UNL     1      -2.517  -4.011   1.905  0.00  0.00    +0.149 HD
BRANCH  20  22
ATOM     22  C   UNL     1      -3.087  -5.972   1.323  0.00  0.00    +0.108 C 
BRANCH  22  23
ATOM     23  C   UNL     1      -2.425  -6.438   2.622  0.00  0.00    +0.052 C 
BRANCH  23  24
ATOM     24  C   UNL     1      -2.549  -7.936   2.739  0.00  0.00    -0.040 C 
ATOM     25  C   UNL     1      -1.631  -8.858   2.370  0.00  0.00    -0.001 A 
ATOM     26  C   UNL     1      -0.295  -8.749   1.772  0.00  0.00    +0.010 A 
ATOM     27  C   UNL     1       0.401  -9.878   1.510  0.00  0.00    +0.001 A 
ATOM     28  C   UNL     1      -0.121 -11.148   1.794  0.00  0.00    +0.002 A 
ATOM     29  C   UNL     1      -1.340 -11.329   2.343  0.00  0.00    +0.026 A 
ATOM     30  C   UNL     1      -2.159 -10.211   2.661  0.00  0.00    +0.043 A 
ATOM     31  N   UNL     1      -3.356 -10.127   3.188  0.00  0.00    -0.380 N 
ATOM     32  C   UNL     1      -3.721  -8.710   3.298  0.00  0.00    +0.144 C 
ATOM     33  H   UNL     1      -3.907 -10.877   3.464  0.00  0.00    +0.160 HD
ENDBRANCH  23  24
ENDBRANCH  22  23
ENDBRANCH  20  22
ENDBRANCH   1  18
BRANCH   1  34
ATOM     34  C   UNL     1      -1.877  -1.992   0.009  0.00  0.00    +0.042 C 
BRANCH  34  35
ATOM     35  C   UNL     1      -1.752  -0.467   0.016  0.00  0.00    +0.071 C 
BRANCH  35  37
ATOM     36  C   UNL     1      -0.022   1.810   0.012  0.00  0.00    +0.084 C 
ATOM     37  S   UNL     1       0.002  -0.004   0.002  0.00  0.00    -0.164 S 
ENDBRANCH  35  37
ENDBRANCH  34  35
ENDBRANCH   1  34
TORSDOF 9
