REMARK  Name = ZINC12745823
REMARK  10 active torsions:
REMARK  status: ('A' for Active; 'I' for Inactive)
REMARK    1  A    between atoms: C_1  and  C_2
REMARK    2  A    between atoms: C_4  and  N_11
REMARK    3  A    between atoms: C_6  and  C_8
REMARK    4  A    between atoms: C_8  and  C_9
REMARK    5  A    between atoms: C_8  and  C_10
REMARK    6  A    between atoms: N_14  and  C_17
REMARK    7  A    between atoms: C_17  and  C_18
REMARK    8  A    between atoms: N_20  and  C_21
REMARK    9  A    between atoms: N_20  and  C_22
REMARK   10  A    between atoms: C_25  and  N_28
REMARK                            x       y       z     vdW  Elec       q    Type
REMARK                         _______ _______ _______ _____ _____    ______ ____
ROOT
ATOM      1  N   UNL     1      -0.042  -2.766  -2.312  0.00  0.00    -0.319 N 
ATOM      2  C   UNL     1       0.012  -4.236  -2.278  0.00  0.00    +0.088 C 
ATOM      3  C   UNL     1      -1.088  -4.784  -3.193  0.00  0.00    -0.059 C 
ATOM      4  N   UNL     1      -0.942  -4.203  -4.534  0.00  0.00    +0.387 N 
ATOM      5  C   UNL     1      -1.162  -2.752  -4.477  0.00  0.00    -0.059 C 
ATOM      6  C   UNL     1      -0.071  -2.104  -3.626  0.00  0.00    +0.088 C 
ATOM      7  H   UNL     1      -0.013  -4.388  -4.880  0.00  0.00    -0.081 HD
ENDROOT
BRANCH   1  11
ATOM      8  C   UNL     1      -0.175   1.567   0.020  0.00  0.00    +0.063 C 
ATOM      9  C   UNL     1      -0.135   0.060   0.011  0.00  0.00    +0.017 A 
ATOM     10  C   UNL     1      -0.107  -0.632  -1.184  0.00  0.00    +0.064 A 
ATOM     11  C   UNL     1      -0.070  -2.027  -1.141  0.00  0.00    +0.125 A 
ATOM     12  N   UNL     1      -0.063  -2.634   0.042  0.00  0.00    -0.219 NA
ATOM     13  C   UNL     1      -0.090  -1.934   1.157  0.00  0.00    +0.112 A 
ATOM     14  N   UNL     1      -0.120  -0.617   1.151  0.00  0.00    -0.347 N 
ATOM     15  H   UNL     1      -0.135  -0.135   1.993  0.00  0.00    +0.167 HD
BRANCH  13  16
ATOM     16  C   UNL     1      -0.080  -2.660   2.478  0.00  0.00    +0.049 C 
ATOM     17  C   UNL     1       1.356  -2.757   2.997  0.00  0.00    +0.015 C 
ATOM     18  C   UNL     1      -0.936  -1.893   3.488  0.00  0.00    +0.015 C 
ENDBRANCH  13  16
ENDBRANCH   1  11
BRANCH   4  19
ATOM     19  C   UNL     1      -1.928  -4.810  -5.439  0.00  0.00    +0.019 C 
BRANCH  19  20
ATOM     20  C   UNL     1      -1.700  -4.307  -6.841  0.00  0.00    +0.203 C 
ATOM     21  O   UNL     1      -0.805  -3.520  -7.064  0.00  0.00    -0.277 OA
ATOM     22  N   UNL     1      -2.491  -4.732  -7.846  0.00  0.00    -0.276 N 
ATOM     23  C   UNL     1      -3.644  -5.588  -7.559  0.00  0.00    +0.138 C 
BRANCH  22  24
ATOM     24  C   UNL     1      -2.210  -4.355  -9.164  0.00  0.00    +0.036 A 
ATOM     25  C   UNL     1      -1.057  -4.814  -9.788  0.00  0.00    +0.026 A 
ATOM     26  C   UNL     1      -0.783  -4.440 -11.089  0.00  0.00    +0.034 A 
ATOM     27  C   UNL     1      -1.654  -3.610 -11.770  0.00  0.00    +0.126 A 
ATOM     28  C   UNL     1      -2.803  -3.151 -11.151  0.00  0.00    +0.034 A 
ATOM     29  C   UNL     1      -3.086  -3.526  -9.852  0.00  0.00    +0.026 A 
BRANCH  27  30
ATOM     30  N   UNL     1      -1.357  -3.212 -13.164  0.00  0.00    +0.056 N 
ATOM     31  O   UNL     1      -0.353  -3.611 -13.707  0.00  0.00    -0.126 OA
ATOM     32  O   UNL     1      -2.118  -2.486 -13.761  0.00  0.00    -0.126 OA
ENDBRANCH  27  30
ENDBRANCH  22  24
ENDBRANCH  19  20
ENDBRANCH   4  19
TORSDOF 6
