REMARK  Name = ZINC64419165
REMARK  9 active torsions:
REMARK  status: ('A' for Active; 'I' for Inactive)
REMARK    1  A    between atoms: C_1  and  C_2
REMARK    2  A    between atoms: C_2  and  C_3
REMARK    3  A    between atoms: C_2  and  O_13
REMARK    4  A    between atoms: N_5  and  N_6
REMARK    5  A    between atoms: N_6  and  C_7
REMARK    6  A    between atoms: C_7  and  N_9
REMARK    7  A    between atoms: N_9  and  C_10
REMARK    8  A    between atoms: O_13  and  C_14
REMARK    9  A    between atoms: C_19  and  N_20
REMARK                            x       y       z     vdW  Elec       q    Type
REMARK                         _______ _______ _______ _____ _____    ______ ____
ROOT
ATOM      1  C   UNL     1       0.005   1.494   0.268  0.00  0.00    +0.062 C 
ATOM      2  C   UNL     1       0.005  -0.013   0.001  0.00  0.00    +0.257 C 
ENDROOT
BRANCH   2   3
ATOM      3  C   UNL     1       0.627  -0.284  -1.345  0.00  0.00    +0.270 C 
ATOM      4  O   UNL     1      -0.044  -0.757  -2.238  0.00  0.00    -0.270 OA
ATOM      5  N   UNL     1       1.928  -0.002  -1.555  0.00  0.00    -0.232 N 
ATOM      6  H   UNL     1       2.464   0.375  -0.841  0.00  0.00    +0.173 HD
BRANCH   5   7
ATOM      7  N   UNL     1       2.505  -0.255  -2.807  0.00  0.00    -0.246 N 
ATOM      8  H   UNL     1       1.969  -0.633  -3.521  0.00  0.00    +0.172 HD
BRANCH   7   9
ATOM      9  C   UNL     1       3.806   0.027  -3.017  0.00  0.00    +0.147 C 
ATOM     10  S   UNL     1       4.512  -0.282  -4.546  0.00  0.00    -0.017 S 
BRANCH   9  11
ATOM     11  N   UNL     1       4.552   0.552  -2.025  0.00  0.00    -0.323 N 
ATOM     12  H   UNL     1       4.152   0.727  -1.158  0.00  0.00    +0.148 HD
BRANCH  11  13
ATOM     13  C   UNL     1       5.966   0.858  -2.254  0.00  0.00    +0.072 C 
ATOM     14  C   UNL     1       6.960   0.467  -1.158  0.00  0.00    +0.024 C 
ATOM     15  C   UNL     1       6.605   1.939  -1.379  0.00  0.00    +0.024 C 
ENDBRANCH  11  13
ENDBRANCH   9  11
ENDBRANCH   7   9
ENDBRANCH   5   7
ENDBRANCH   2   3
BRANCH   2  16
ATOM     16  O   UNL     1      -1.339  -0.499   0.012  0.00  0.00    -0.478 OA
BRANCH  16  17
ATOM     17  C   UNL     1      -1.869  -0.818   1.222  0.00  0.00    +0.152 A 
ATOM     18  C   UNL     1      -1.155  -0.561   2.384  0.00  0.00    +0.049 A 
ATOM     19  C   UNL     1      -1.696  -0.886   3.612  0.00  0.00    +0.024 A 
ATOM     20  C   UNL     1      -2.950  -1.468   3.685  0.00  0.00    +0.043 A 
ATOM     21  C   UNL     1      -3.663  -1.725   2.528  0.00  0.00    +0.056 A 
ATOM     22  C   UNL     1      -3.128  -1.395   1.298  0.00  0.00    +0.169 A 
ATOM     23 CL   UNL     1      -3.628  -1.876   5.230  0.00  0.00    -0.083 Cl
BRANCH  22  24
ATOM     24  N   UNL     1      -3.895  -1.664   0.060  0.00  0.00    +0.060 N 
ATOM     25  O   UNL     1      -4.992  -2.167   0.127  0.00  0.00    -0.126 OA
ATOM     26  O   UNL     1      -3.424  -1.381  -1.016  0.00  0.00    -0.126 OA
ENDBRANCH  22  24
ENDBRANCH  16  17
ENDBRANCH   2  16
TORSDOF 8
