REMARK  Name = ZINC33626643
REMARK  12 active torsions:
REMARK  status: ('A' for Active; 'I' for Inactive)
REMARK    1  A    between atoms: C_1  and  C_2
REMARK    2  A    between atoms: C_2  and  C_3
REMARK    3  A    between atoms: C_2  and  C_4
REMARK    4  A    between atoms: C_14  and  C_34
REMARK    5  A    between atoms: C_18  and  C_19
REMARK    6  A    between atoms: C_18  and  C_20
REMARK    7  A    between atoms: C_20  and  N_21
REMARK    8  A    between atoms: C_22  and  C_24
REMARK    9  A    between atoms: C_27  and  CA_29
REMARK   10  A    between atoms: CA_29  and  C_31
REMARK   11  A    between atoms: CA_29  and  N_33
REMARK   12  A    between atoms: C_31  and  O_32
REMARK                            x       y       z     vdW  Elec       q    Type
REMARK                         _______ _______ _______ _____ _____    ______ ____
ROOT
ATOM      1  C   UNL     1      -2.270   5.031  -2.347  0.00  0.00    -0.045 A 
ATOM      2  C   UNL     1      -2.239   5.740  -1.161  0.00  0.00    +0.004 A 
ATOM      3  C   UNL     1      -1.727   5.146  -0.024  0.00  0.00    +0.005 A 
ATOM      4  C   UNL     1      -1.243   3.849  -0.068  0.00  0.00    -0.038 A 
ATOM      5  C   UNL     1      -1.273   3.136  -1.246  0.00  0.00    -0.043 A 
ATOM      6  C   UNL     1      -1.792   3.739  -2.388  0.00  0.00    +0.007 A 
ATOM      7  C   UNL     1      -0.774   1.724  -1.381  0.00  0.00    +0.036 C 
ATOM      8  C   UNL     1      -0.016   1.257  -0.136  0.00  0.00    +0.009 C 
ATOM      9  C   UNL     1      -0.786   1.735   1.093  0.00  0.00    +0.007 C 
ATOM     10  C   UNL     1      -0.677   3.245   1.200  0.00  0.00    -0.003 C 
ATOM     11  C   UNL     1      -1.450   3.754   2.413  0.00  0.00    +0.011 C 
ATOM     12  C   UNL     1      -0.930   3.066   3.676  0.00  0.00    +0.001 C 
ATOM     13  C   UNL     1      -1.140   1.561   3.579  0.00  0.00    +0.008 C 
ATOM     14  C   UNL     1      -0.455   0.961   2.349  0.00  0.00    -0.013 C 
ATOM     15  C   UNL     1      -1.007  -0.477   2.192  0.00  0.00    +0.013 C 
ATOM     16  C   UNL     1       0.772   3.719   1.303  0.00  0.00    +0.016 C 
ENDROOT
BRANCH   1  18
ATOM     17  C   UNL     1      -4.287   6.061  -3.359  0.00  0.00    +0.012 C 
ATOM     18  C   UNL     1      -2.826   5.670  -3.594  0.00  0.00    +0.013 C 
ATOM     19  C   UNL     1      -2.012   6.921  -3.932  0.00  0.00    +0.012 C 
ENDBRANCH   1  18
BRANCH  14  20
ATOM     20  C   UNL     1       1.050   0.846   2.591  0.00  0.00    +0.111 C 
BRANCH  20  21
ATOM     21  N   UNL     1       1.294  -0.024   3.744  0.00  0.00    -0.309 N 
ATOM     22  C   UNL     1       2.556  -0.273   4.146  0.00  0.00    +0.266 C 
ATOM     23  O   UNL     1       3.493   0.225   3.550  0.00  0.00    -0.268 OA
ATOM     24  H   UNL     1       0.447  -0.474   4.283  0.00  0.00    +0.149 HD
BRANCH  22  25
ATOM     25  C   UNL     1       2.802  -1.148   5.306  0.00  0.00    +0.163 A 
ATOM     26  C   UNL     1       4.015  -1.490   5.818  0.00  0.00    +0.230 A 
ATOM     27  O   UNL     1       3.784  -2.295   6.868  0.00  0.00    -0.449 OA
ATOM     28  C   UNL     1       2.459  -2.451   6.993  0.00  0.00    +0.184 A 
ATOM     29  N   UNL     1       1.858  -1.769   6.064  0.00  0.00    -0.210 NA
BRANCH  28  30
ATOM     30  CA  UNL     1       1.774  -3.284   8.045  0.00  0.00    +0.039 C 
BRANCH  30  31
ATOM     31  N   UNL     1       2.458  -4.578   8.167  0.00  0.00    +0.387 N 
ATOM     32  H1  UNL     1       1.958  -5.187   8.935  0.00  0.00    -0.089 HD
ATOM     33  H2  UNL     1       3.506  -4.413   8.455  0.00  0.00    -0.089 HD
ATOM     34  H3  UNL     1       2.421  -5.104   7.201  0.00  0.00    -0.089 HD
ENDBRANCH  30  31
BRANCH  30  35
ATOM     35  C   UNL     1       1.825  -2.552   9.388  0.00  0.00    +0.149 C 
BRANCH  35  36
ATOM     36  O   UNL     1       1.075  -3.286  10.359  0.00  0.00    -0.396 OA
ATOM     37  H   UNL     1       0.997  -2.913  11.391  0.00  0.00    +0.209 HD
ENDBRANCH  35  36
ENDBRANCH  30  35
ENDBRANCH  28  30
ENDBRANCH  22  25
ENDBRANCH  20  21
ENDBRANCH  14  20
TORSDOF 8
