REMARK  Name = ZINC27925291
REMARK  5 active torsions:
REMARK  status: ('A' for Active; 'I' for Inactive)
REMARK    1  A    between atoms: C_4  and  C_7
REMARK    2  A    between atoms: C_7  and  S_8
REMARK    3  A    between atoms: S_8  and  N_11
REMARK    4  A    between atoms: N_11  and  C_12
REMARK    5  A    between atoms: C_13  and  C_21
REMARK                            x       y       z     vdW  Elec       q    Type
REMARK                         _______ _______ _______ _____ _____    ______ ____
ROOT
ATOM      1  N   UNL     1      -1.967   6.942  -1.643  0.00  0.00    -0.094 NA
ENDROOT
BRANCH   1   2
ATOM      2  C   UNL     1      -1.623   5.653  -1.276  0.00  0.00    +0.129 A 
ATOM      3  C   UNL     1      -1.272   5.178  -0.019  0.00  0.00    +0.087 A 
ATOM      4  C   UNL     1      -0.952   3.765   0.099  0.00  0.00    -0.018 A 
ATOM      5  C   UNL     1      -1.032   3.059  -1.049  0.00  0.00    -0.004 A 
ATOM      6  S   UNL     1      -1.524   4.239  -2.273  0.00  0.00    -0.074 S 
ATOM      7  C   UNL     1      -0.761   1.597  -1.232  0.00  0.00    +0.043 C 
ATOM      8  C   UNL     1      -0.013   1.086   0.008  0.00  0.00    +0.005 C 
ATOM      9  C   UNL     1      -0.735   1.583   1.264  0.00  0.00    +0.005 C 
ATOM     10  C   UNL     1      -0.551   3.094   1.407  0.00  0.00    +0.037 C 
BRANCH   3  11
ATOM     11  C   UNL     1      -1.229   6.047   1.117  0.00  0.00    +0.102 C 
ATOM     12  N   UNL     1      -1.194   6.737   2.019  0.00  0.00    -0.191 NA
ENDBRANCH   3  11
ENDBRANCH   1   2
BRANCH   1  13
ATOM     13  S   UNL     1      -2.353   7.279  -3.218  0.00  0.00    +0.067 S 
ATOM     14  O   UNL     1      -2.623   8.674  -3.233  0.00  0.00    -0.153 OA
ATOM     15  O   UNL     1      -1.279   6.741  -3.977  0.00  0.00    -0.153 OA
BRANCH  13  16
ATOM     16  C   UNL     1      -3.874   6.344  -3.536  0.00  0.00    +0.225 C 
BRANCH  16  20
ATOM     17  C   UNL     1      -5.141   7.011  -7.560  0.00  0.00    +0.000 A 
ATOM     18  C   UNL     1      -4.285   5.966  -7.270  0.00  0.00    +0.000 A 
ATOM     19  C   UNL     1      -3.874   5.750  -5.967  0.00  0.00    +0.005 A 
ATOM     20  C   UNL     1      -4.321   6.580  -4.955  0.00  0.00    -0.025 A 
ATOM     21  C   UNL     1      -5.182   7.621  -5.245  0.00  0.00    +0.005 A 
ATOM     22  C   UNL     1      -5.588   7.841  -6.548  0.00  0.00    +0.000 A 
ENDBRANCH  16  20
ENDBRANCH  13  16
ENDBRANCH   1  13
TORSDOF 5
