REMARK  Name = ZINC20750692
REMARK  3 active torsions:
REMARK  status: ('A' for Active; 'I' for Inactive)
REMARK    1  A    between atoms: C_4  and  O_7
REMARK    2  A    between atoms: O_7  and  C_8
REMARK    3  A    between atoms: C_21  and  C_24
REMARK                            x       y       z     vdW  Elec       q    Type
REMARK                         _______ _______ _______ _____ _____    ______ ____
ROOT
ATOM      1  C   UNL     1       0.246   6.999  -0.113  0.00  0.00    +0.129 A 
ATOM      2  C   UNL     1      -0.247   6.788   1.167  0.00  0.00    +0.048 A 
ATOM      3  C   UNL     1      -0.783   5.564   1.508  0.00  0.00    +0.027 A 
ATOM      4  C   UNL     1      -0.834   4.534   0.577  0.00  0.00    +0.032 A 
ATOM      5  C   UNL     1      -0.324   4.747  -0.709  0.00  0.00    -0.016 A 
ATOM      6  C   UNL     1       0.204   5.974  -1.047  0.00  0.00    +0.052 A 
ATOM      7  C   UNL     1      -0.360   3.611  -1.655  0.00  0.00    +0.049 C 
ATOM      8  C   UNL     1      -0.400   3.816  -3.126  0.00  0.00    -0.023 C 
ATOM      9  C   UNL     1      -1.078   2.804  -3.677  0.00  0.00    -0.030 C 
ATOM     10  C   UNL     1      -1.576   1.854  -2.586  0.00  0.00    +0.033 C 
ATOM     11  C   UNL     1      -1.658   2.791  -1.374  0.00  0.00    +0.029 C 
ATOM     12  C   UNL     1      -1.453   2.171  -0.004  0.00  0.00    +0.106 C 
ATOM     13  N   UNL     1      -1.399   3.304   0.946  0.00  0.00    -0.336 N 
ATOM     14  H   UNL     1      -1.807   3.190   1.961  0.00  0.00    +0.147 HD
ENDROOT
BRANCH  12  15
ATOM     15  C   UNL     1      -0.157   1.402   0.030  0.00  0.00    -0.009 A 
ATOM     16  C   UNL     1       1.021   2.027   0.410  0.00  0.00    +0.008 A 
ATOM     17  C   UNL     1       2.188   1.278   0.432  0.00  0.00    +0.020 A 
ATOM     18  C   UNL     1       2.138  -0.057   0.078  0.00  0.00    +0.111 A 
ATOM     19  N   UNL     1       0.999  -0.618  -0.278  0.00  0.00    -0.263 NA
ATOM     20  C   UNL     1      -0.129   0.063  -0.311  0.00  0.00    +0.116 A 
ENDBRANCH  12  15
BRANCH   1  21
ATOM     21  O   UNL     1       0.769   8.208  -0.452  0.00  0.00    -0.456 OA
BRANCH  21  25
ATOM     22  C   UNL     1       1.156  11.049   2.514  0.00  0.00    +0.000 A 
ATOM     23  C   UNL     1       2.055  10.001   2.441  0.00  0.00    +0.004 A 
ATOM     24  C   UNL     1       1.928   9.049   1.449  0.00  0.00    +0.046 A 
ATOM     25  C   UNL     1       0.896   9.144   0.525  0.00  0.00    +0.128 A 
ATOM     26  C   UNL     1      -0.002  10.200   0.598  0.00  0.00    +0.046 A 
ATOM     27  C   UNL     1       0.127  11.146   1.596  0.00  0.00    +0.004 A 
ENDBRANCH  21  25
ENDBRANCH   1  21
TORSDOF 3
