REMARK  Name = ZINC45541461
REMARK  12 active torsions:
REMARK  status: ('A' for Active; 'I' for Inactive)
REMARK    1  A    between atoms: C_1  and  C_2
REMARK    2  A    between atoms: C_2  and  C_3
REMARK    3  A    between atoms: C_2  and  C_4
REMARK    4  A    between atoms: N_6  and  C_7
REMARK    5  A    between atoms: C_11  and  C_13
REMARK    6  A    between atoms: C_13  and  N_14
REMARK    7  A    between atoms: N_17  and  C_18
REMARK    8  A    between atoms: C_18  and  C_19
REMARK    9  A    between atoms: C_19  and  C_21
REMARK   10  A    between atoms: C_19  and  N_26
REMARK   11  A    between atoms: N_26  and  C_27
REMARK   12  A    between atoms: N_26  and  C_28
REMARK                            x       y       z     vdW  Elec       q    Type
REMARK                         _______ _______ _______ _____ _____    ______ ____
ROOT
ATOM      1  N   UNL     1       1.736   0.805   7.806  0.00  0.00    -0.295 N 
ATOM      2  C   UNL     1       1.339   1.317   8.987  0.00  0.00    +0.300 C 
ATOM      3  O   UNL     1       0.570   0.693   9.693  0.00  0.00    -0.253 OA
ATOM      4  N   UNL     1       1.794   2.521   9.387  0.00  0.00    -0.301 N 
ATOM      5  H   UNL     1       2.349   1.303   7.243  0.00  0.00    +0.151 HD
ATOM      6  H   UNL     1       2.408   3.019   8.824  0.00  0.00    +0.150 HD
ENDROOT
BRANCH   1   7
ATOM      7  C   UNL     1       1.240  -0.503   7.371  0.00  0.00    +0.141 C 
BRANCH   7  12
ATOM      8  C   UNL     1       1.719  -0.782   3.632  0.00  0.00    +0.034 A 
ATOM      9  C   UNL     1       2.922  -1.471   3.561  0.00  0.00    +0.023 A 
ATOM     10  C   UNL     1       3.574  -1.843   4.720  0.00  0.00    +0.002 A 
ATOM     11  C   UNL     1       3.029  -1.529   5.952  0.00  0.00    +0.005 A 
ATOM     12  C   UNL     1       1.831  -0.843   6.027  0.00  0.00    -0.029 A 
ATOM     13  C   UNL     1       1.178  -0.463   4.870  0.00  0.00    +0.028 A 
BRANCH   8  16
ATOM     14  C   UNL     1       0.384   0.763   2.411  0.00  0.00    +0.220 C 
ATOM     15  O   UNL     1       0.280   1.445   3.409  0.00  0.00    -0.275 OA
ATOM     16  N   UNL     1       1.056  -0.404   2.459  0.00  0.00    -0.285 N 
ATOM     17  H   UNL     1       1.081  -0.982   1.681  0.00  0.00    +0.155 HD
BRANCH  14  19
ATOM     18  C   UNL     1      -1.264   0.184   0.650  0.00  0.00    +0.017 C 
ATOM     19  C   UNL     1      -0.239   1.221   1.117  0.00  0.00    +0.069 C 
ATOM     20  C   UNL     1      -0.937   2.565   1.335  0.00  0.00    +0.017 C 
ENDBRANCH  14  19
ENDBRANCH   8  16
ENDBRANCH   7  12
ENDBRANCH   1   7
BRANCH   4  21
ATOM     21  C   UNL     1       1.363   3.078  10.672  0.00  0.00    +0.095 C 
BRANCH  21  22
ATOM     22  C   UNL     1       1.922   4.493  10.828  0.00  0.00    -0.020 C 
BRANCH  22  23
ATOM     23  C   UNL     1       3.428   4.436  10.877  0.00  0.00    -0.052 A 
ATOM     24  C   UNL     1       4.178   4.732   9.755  0.00  0.00    +0.009 A 
ATOM     25  C   UNL     1       5.530   4.671   9.833  0.00  0.00    +0.045 A 
ATOM     26  S   UNL     1       5.780   4.183  11.532  0.00  0.00    -0.105 S 
ATOM     27  C   UNL     1       4.066   4.099  12.024  0.00  0.00    +0.047 A 
ENDBRANCH  22  23
BRANCH  22  28
ATOM     28  N   UNL     1       1.414   5.086  12.072  0.00  0.00    +0.382 N 
ATOM     29  C   UNL     1       1.873   6.478  12.174  0.00  0.00    -0.096 C 
ATOM     30  C   UNL     1      -0.055   5.054  12.065  0.00  0.00    -0.096 C 
ATOM     31  H   UNL     1       1.758   4.560  12.861  0.00  0.00    -0.082 HD
ENDBRANCH  22  28
ENDBRANCH  21  22
ENDBRANCH   4  21
TORSDOF 8
