REMARK  Name = ZINC25157049
REMARK  7 active torsions:
REMARK  status: ('A' for Active; 'I' for Inactive)
REMARK    1  A    between atoms: C_1  and  C_2
REMARK    2  A    between atoms: C_5  and  C_7
REMARK    3  A    between atoms: C_7  and  C_9
REMARK    4  A    between atoms: C_7  and  N_28
REMARK    5  A    between atoms: C_9  and  N_10
REMARK    6  A    between atoms: C_11  and  C_13
REMARK    7  A    between atoms: C_16  and  N_19
REMARK                            x       y       z     vdW  Elec       q    Type
REMARK                         _______ _______ _______ _____ _____    ______ ____
ROOT
ATOM      1  N   UNL     1       8.307   2.491   0.859  0.00  0.00    -0.309 N 
ATOM      2  C   UNL     1       7.773   3.382   0.002  0.00  0.00    +0.244 C 
ATOM      3  O   UNL     1       8.489   3.985  -0.774  0.00  0.00    -0.270 OA
ATOM      4  H   UNL     1       7.659   1.946   1.561  0.00  0.00    +0.149 HD
ENDROOT
BRANCH   2   5
ATOM      5  C   UNL     1       6.317   3.627   0.004  0.00  0.00    +0.037 A 
ATOM      6  C   UNL     1       5.761   4.551  -0.885  0.00  0.00    +0.015 A 
ATOM      7  C   UNL     1       4.403   4.778  -0.880  0.00  0.00    +0.027 A 
ATOM      8  C   UNL     1       3.584   4.088   0.009  0.00  0.00    +0.048 A 
ATOM      9  C   UNL     1       4.135   3.172   0.899  0.00  0.00    +0.027 A 
ATOM     10  C   UNL     1       5.492   2.936   0.895  0.00  0.00    +0.015 A 
BRANCH   8  11
ATOM     11  N   UNL     1       2.207   4.321   0.012  0.00  0.00    -0.299 N 
ATOM     12  C   UNL     1       1.592   5.537   0.064  0.00  0.00    +0.205 A 
ATOM     13  N   UNL     1       0.300   5.384   0.050  0.00  0.00    -0.235 NA
ATOM     14  C   UNL     1      -0.005   4.062  -0.012  0.00  0.00    +0.089 A 
ATOM     15  C   UNL     1       1.213   3.361  -0.037  0.00  0.00    +0.073 A 
ATOM     16  C   UNL     1       1.212   1.975  -0.100  0.00  0.00    +0.028 A 
ATOM     17  C   UNL     1       0.016   1.290  -0.138  0.00  0.00    +0.002 A 
ATOM     18  C   UNL     1      -1.189   1.978  -0.118  0.00  0.00    +0.002 A 
ATOM     19  C   UNL     1      -1.208   3.353  -0.050  0.00  0.00    +0.030 A 
ENDBRANCH   8  11
ENDBRANCH   2   5
BRANCH   1  20
ATOM     20  C   UNL     1       9.752   2.248   0.857  0.00  0.00    +0.131 C 
BRANCH  20  21
ATOM     21  C   UNL     1      10.094   1.199   1.917  0.00  0.00    +0.140 C 
BRANCH  21  26
ATOM     22  C   UNL     1      14.946   2.149   2.917  0.00  0.00    +0.086 C 
ATOM     23  C   UNL     1      13.700   1.452   2.435  0.00  0.00    +0.102 A 
ATOM     24  C   UNL     1      13.654   0.249   1.834  0.00  0.00    +0.045 A 
ATOM     25  C   UNL     1      12.294  -0.020   1.559  0.00  0.00    +0.046 A 
ATOM     26  C   UNL     1      11.590   1.039   2.000  0.00  0.00    +0.124 A 
ATOM     27  O   UNL     1      12.447   1.925   2.533  0.00  0.00    -0.463 OA
ENDBRANCH  21  26
BRANCH  21  28
ATOM     28  N   UNL     1       9.575   1.634   3.221  0.00  0.00    -0.287 NA
ATOM     29  C   UNL     1      10.087   2.966   3.574  0.00  0.00    +0.113 C 
ATOM     30  C   UNL     1       9.477   3.405   4.908  0.00  0.00    +0.175 C 
ATOM     31  O   UNL     1       9.776   2.427   5.908  0.00  0.00    -0.377 OA
ATOM     32  C   UNL     1       9.291   1.118   5.597  0.00  0.00    +0.175 C 
ATOM     33  C   UNL     1       9.900   0.656   4.270  0.00  0.00    +0.113 C 
ENDBRANCH  21  28
ENDBRANCH  20  21
ENDBRANCH   1  20
TORSDOF 6
