REMARK  Name = ZINC09745460
REMARK  9 active torsions:
REMARK  status: ('A' for Active; 'I' for Inactive)
REMARK    1  A    between atoms: C_1  and  C_2
REMARK    2  A    between atoms: C_2  and  C_4
REMARK    3  A    between atoms: C_2  and  C_19
REMARK    4  A    between atoms: C_4  and  N_5
REMARK    5  A    between atoms: N_5  and  C_6
REMARK    6  A    between atoms: C_9  and  S_15
REMARK    7  A    between atoms: C_11  and  N_12
REMARK    8  A    between atoms: S_15  and  N_18
REMARK    9  A    between atoms: N_27  and  C_28
REMARK                            x       y       z     vdW  Elec       q    Type
REMARK                         _______ _______ _______ _____ _____    ______ ____
ROOT
ATOM      1  N   UNL     1       2.506   8.738  -1.273  0.00  0.00    -0.341 N 
ATOM      2  H   UNL     1       3.163   8.939  -0.589  0.00  0.00    +0.146 HD
ENDROOT
BRANCH   1   3
ATOM      3  C   UNL     1       2.310   9.624  -2.335  0.00  0.00    +0.058 A 
ATOM      4  C   UNL     1       1.457   9.283  -3.377  0.00  0.00    +0.027 A 
ATOM      5  C   UNL     1       1.266  10.161  -4.426  0.00  0.00    +0.030 A 
ATOM      6  C   UNL     1       1.922  11.379  -4.439  0.00  0.00    +0.107 A 
ATOM      7  C   UNL     1       2.772  11.720  -3.404  0.00  0.00    +0.063 A 
ATOM      8  C   UNL     1       2.963  10.849  -2.349  0.00  0.00    +0.149 A 
BRANCH   8   9
ATOM      9  N   UNL     1       3.869  11.219  -1.238  0.00  0.00    +0.058 N 
ATOM     10  O   UNL     1       4.357  12.334  -1.196  0.00  0.00    -0.126 OA
ATOM     11  O   UNL     1       4.125  10.408  -0.365  0.00  0.00    -0.126 OA
ENDBRANCH   8   9
BRANCH   6  12
ATOM     12  S   UNL     1       1.676  12.496  -5.779  0.00  0.00    +0.056 S 
ATOM     13  O   UNL     1       2.823  13.333  -5.826  0.00  0.00    -0.153 OA
ATOM     14  O   UNL     1       1.258  11.713  -6.889  0.00  0.00    -0.153 OA
BRANCH  12  15
ATOM     15  N   UNL     1       0.397  13.467  -5.378  0.00  0.00    -0.204 NA
ATOM     16  H   UNL     1       0.353  14.376  -5.715  0.00  0.00    +0.144 HD
ATOM     17  H   UNL     1      -0.309  13.128  -4.805  0.00  0.00    +0.144 HD
ENDBRANCH  12  15
ENDBRANCH   6  12
ENDBRANCH   1   3
BRANCH   1  18
ATOM     18  C   UNL     1       1.719   7.505  -1.193  0.00  0.00    +0.112 C 
BRANCH  18  20
ATOM     19  C   UNL     1       1.753   7.521   1.305  0.00  0.00    +0.017 C 
ATOM     20  C   UNL     1       2.126   6.721   0.056  0.00  0.00    +0.069 C 
BRANCH  20  21
ATOM     21  C   UNL     1       1.406   5.396   0.074  0.00  0.00    +0.119 A 
ATOM     22  N   UNL     1       0.113   5.251   0.093  0.00  0.00    -0.232 NA
ATOM     23  C   UNL     1      -0.197   3.929   0.105  0.00  0.00    +0.089 A 
ATOM     24  C   UNL     1      -1.403   3.223   0.126  0.00  0.00    +0.030 A 
ATOM     25  C   UNL     1      -1.391   1.857   0.127  0.00  0.00    +0.002 A 
ATOM     26  C   UNL     1      -0.191   1.159   0.120  0.00  0.00    +0.002 A 
ATOM     27  C   UNL     1       1.010   1.835   0.100  0.00  0.00    +0.028 A 
ATOM     28  C   UNL     1       1.018   3.224   0.092  0.00  0.00    +0.074 A 
ATOM     29  N   UNL     1       2.014   4.179   0.073  0.00  0.00    -0.270 N 
BRANCH  29  30
ATOM     30  C   UNL     1       3.457   3.929   0.054  0.00  0.00    +0.449 C 
ATOM     31  F   UNL     1       3.712   2.720  -0.602  0.00  0.00    -0.185 F 
ATOM     32  F   UNL     1       4.102   4.971  -0.620  0.00  0.00    -0.185 F 
ENDBRANCH  29  30
ENDBRANCH  20  21
ENDBRANCH  18  20
ENDBRANCH   1  18
TORSDOF 8
