REMARK  Name = ZINC67391258
REMARK  8 active torsions:
REMARK  status: ('A' for Active; 'I' for Inactive)
REMARK    1  A    between atoms: C_1  and  C_2
REMARK    2  A    between atoms: C_4  and  C_7
REMARK    3  A    between atoms: C_7  and  C_8
REMARK    4  A    between atoms: C_8  and  C_9
REMARK    5  A    between atoms: C_9  and  N_10
REMARK    6  A    between atoms: N_13  and  C_14
REMARK    7  A    between atoms: C_14  and  C_15
REMARK    8  A    between atoms: C_15  and  N_20
REMARK                            x       y       z     vdW  Elec       q    Type
REMARK                         _______ _______ _______ _____ _____    ______ ____
ROOT
ATOM      1  N   UNL     1       2.939  -5.221  -3.126  0.00  0.00    -0.299 N 
ATOM      2  C   UNL     1       3.172  -6.192  -4.031  0.00  0.00    +0.300 C 
ATOM      3  O   UNL     1       2.240  -6.760  -4.567  0.00  0.00    -0.253 OA
ATOM      4  N   UNL     1       4.439  -6.534  -4.342  0.00  0.00    -0.301 N 
ATOM      5  H   UNL     1       3.683  -4.768  -2.699  0.00  0.00    +0.150 HD
ATOM      6  H   UNL     1       5.182  -6.080  -3.915  0.00  0.00    +0.150 HD
ENDROOT
BRANCH   1   7
ATOM      7  C   UNL     1       1.563  -4.849  -2.788  0.00  0.00    +0.106 C 
BRANCH   7   8
ATOM      8  C   UNL     1       1.578  -3.731  -1.744  0.00  0.00    +0.028 C 
BRANCH   8   9
ATOM      9  C   UNL     1       0.141  -3.343  -1.391  0.00  0.00    +0.100 C 
BRANCH   9  13
ATOM     10  C   UNL     1       0.196   1.233   0.646  0.00  0.00    +0.091 C 
ATOM     11  C   UNL     1       0.180  -0.270   0.531  0.00  0.00    +0.169 A 
ATOM     12  N   UNL     1       0.169  -0.962  -0.614  0.00  0.00    -0.196 NA
ATOM     13  C   UNL     1       0.156  -2.242  -0.363  0.00  0.00    +0.227 A 
ATOM     14  O   UNL     1       0.159  -2.409   0.966  0.00  0.00    -0.338 OA
ATOM     15  N   UNL     1       0.180  -1.105   1.529  0.00  0.00    -0.062 NA
ENDBRANCH   9  13
ENDBRANCH   8   9
ENDBRANCH   7   8
ENDBRANCH   1   7
BRANCH   4  16
ATOM     16  C   UNL     1       4.692  -7.589  -5.326  0.00  0.00    +0.094 C 
BRANCH  16  17
ATOM     17  C   UNL     1       6.196  -7.695  -5.585  0.00  0.00    -0.050 C 
ATOM     18  C   UNL     1       6.726  -6.369  -6.168  0.00  0.00    -0.010 C 
ATOM     19  C   UNL     1       7.795  -6.808  -7.199  0.00  0.00    -0.001 C 
ATOM     20  C   UNL     1       7.165  -8.077  -7.825  0.00  0.00    -0.001 C 
ATOM     21  C   UNL     1       6.474  -8.781  -6.639  0.00  0.00    -0.010 C 
BRANCH  17  22
ATOM     22  N   UNL     1       6.900  -8.014  -4.335  0.00  0.00    +0.386 N 
ATOM     23  C   UNL     1       8.344  -7.934  -4.564  0.00  0.00    -0.067 C 
ATOM     24  C   UNL     1       9.083  -7.891  -3.221  0.00  0.00    +0.050 C 
ATOM     25  S   UNL     1       8.736  -9.440  -2.330  0.00  0.00    -0.164 S 
ATOM     26  C   UNL     1       6.923  -9.560  -2.430  0.00  0.00    +0.050 C 
ATOM     27  C   UNL     1       6.507  -9.353  -3.892  0.00  0.00    -0.067 C 
ATOM     28  H   UNL     1       6.640  -7.342  -3.629  0.00  0.00    -0.081 HD
ENDBRANCH  17  22
ENDBRANCH  16  17
ENDBRANCH   4  16
TORSDOF 7
