REMARK  Name = ZINC04373615
REMARK  12 active torsions:
REMARK  status: ('A' for Active; 'I' for Inactive)
REMARK    1  A    between atoms: C_1  and  C_2
REMARK    2  A    between atoms: C_2  and  O_3
REMARK    3  A    between atoms: O_3  and  C_4
REMARK    4  A    between atoms: C_6  and  S_12
REMARK    5  A    between atoms: C_7  and  C_11
REMARK    6  A    between atoms: C_9  and  C_10
REMARK    7  A    between atoms: S_12  and  N_15
REMARK    8  A    between atoms: N_15  and  C_16
REMARK    9  A    between atoms: C_18  and  C_23
REMARK   10  A    between atoms: C_18  and  C_24
REMARK   11  A    between atoms: C_19  and  C_21
REMARK   12  A    between atoms: C_19  and  C_22
REMARK                            x       y       z     vdW  Elec       q    Type
REMARK                         _______ _______ _______ _____ _____    ______ ____
ROOT
ATOM      1  S   UNL     1       0.590   4.641  -4.384  0.00  0.00    +0.059 S 
ATOM      2  O   UNL     1       1.237   4.527  -5.644  0.00  0.00    -0.153 OA
ATOM      3  O   UNL     1      -0.723   5.167  -4.247  0.00  0.00    -0.153 OA
ENDROOT
BRANCH   1   6
ATOM      4  C   UNL     1       1.935   7.480  -1.873  0.00  0.00    +0.125 A 
ATOM      5  C   UNL     1       1.111   6.704  -2.676  0.00  0.00    +0.074 A 
ATOM      6  C   UNL     1       1.636   5.631  -3.368  0.00  0.00    +0.112 A 
ATOM      7  C   UNL     1       2.983   5.335  -3.270  0.00  0.00    -0.024 A 
ATOM      8  C   UNL     1       3.807   6.109  -2.474  0.00  0.00    +0.012 A 
ATOM      9  C   UNL     1       3.286   7.181  -1.775  0.00  0.00    -0.008 A 
ATOM     10  C   UNL     1       4.184   8.025  -0.908  0.00  0.00    +0.047 C 
ATOM     11  C   UNL     1       3.555   4.167  -4.031  0.00  0.00    +0.046 C 
BRANCH   4  12
ATOM     12  O   UNL     1       1.419   8.534  -1.186  0.00  0.00    -0.492 OA
BRANCH  12  14
ATOM     13  C   UNL     1      -0.373   9.998  -0.493  0.00  0.00    +0.048 C 
ATOM     14  C   UNL     1       0.020   8.782  -1.334  0.00  0.00    +0.225 C 
ENDBRANCH  12  14
ENDBRANCH   4  12
ENDBRANCH   1   6
BRANCH   1  15
ATOM     15  N   UNL     1       0.563   3.122  -3.725  0.00  0.00    -0.187 NA
ATOM     16  H   UNL     1       0.913   2.370  -4.228  0.00  0.00    +0.148 HD
BRANCH  15  17
ATOM     17  C   UNL     1       0.008   2.914  -2.382  0.00  0.00    +0.074 C 
ATOM     18  C   UNL     1       0.820   1.837  -1.664  0.00  0.00    +0.007 C 
ATOM     19  C   UNL     1       0.252   1.584  -0.269  0.00  0.00    -0.072 C 
ATOM     20  C   UNL     1      -2.034   2.187  -1.119  0.00  0.00    -0.072 C 
ATOM     21  C   UNL     1      -1.438   2.434  -2.503  0.00  0.00    +0.007 C 
ATOM     22  C   UNL     1      -3.370   1.436  -1.316  0.00  0.00    -0.010 C 
ATOM     23  C   UNL     1      -2.361   3.529  -0.455  0.00  0.00    -0.010 C 
ATOM     24  C   UNL     1       0.643   2.739   0.660  0.00  0.00    -0.010 C 
ATOM     25  C   UNL     1       0.922   0.306   0.282  0.00  0.00    -0.010 C 
ATOM     26  N   UNL     1      -1.212   1.324  -0.228  0.00  0.00    +0.386 N 
ATOM     27  H   UNL     1      -1.534   1.467   0.737  0.00  0.00    -0.084 HD
ATOM     28  H   UNL     1      -1.369   0.346  -0.499  0.00  0.00    -0.084 HD
ENDBRANCH  15  17
ENDBRANCH   1  15
TORSDOF 5
