REMARK  Name = ZINC00177438
REMARK  5 active torsions:
REMARK  status: ('A' for Active; 'I' for Inactive)
REMARK    1  A    between atoms: C_1  and  C_2
REMARK    2  A    between atoms: C_2  and  C_18
REMARK    3  A    between atoms: N_3  and  N_4
REMARK    4  A    between atoms: C_5  and  C_7
REMARK    5  A    between atoms: C_21  and  N_24
REMARK                            x       y       z     vdW  Elec       q    Type
REMARK                         _______ _______ _______ _____ _____    ______ ____
ROOT
ATOM      1  N   UNL     1      -0.006   3.107   2.878  0.00  0.00    -0.204 N 
ATOM      2  C   UNL     1       1.014   3.703   3.528  0.00  0.00    +0.276 C 
ATOM      3  O   UNL     1       2.156   3.354   3.314  0.00  0.00    -0.270 OA
ATOM      4  H   UNL     1      -0.919   3.385   3.050  0.00  0.00    +0.177 HD
ENDROOT
BRANCH   2   5
ATOM      5  C   UNL     1       0.734   4.802   4.521  0.00  0.00    +0.297 C 
ATOM      6  C   UNL     1       0.160   6.024   3.791  0.00  0.00    +0.283 C 
ATOM      7  O   UNL     1      -0.081   7.051   4.759  0.00  0.00    -0.484 OA
ATOM      8  C   UNL     1       0.915   7.292   5.655  0.00  0.00    +0.162 A 
ATOM      9  C   UNL     1       0.912   8.478   6.374  0.00  0.00    +0.049 A 
ATOM     10  C   UNL     1       1.912   8.734   7.292  0.00  0.00    +0.004 A 
ATOM     11  C   UNL     1       2.919   7.809   7.497  0.00  0.00    +0.004 A 
ATOM     12  C   UNL     1       2.929   6.626   6.783  0.00  0.00    +0.049 A 
ATOM     13  C   UNL     1       1.928   6.363   5.859  0.00  0.00    +0.163 A 
ATOM     14  O   UNL     1       1.953   5.195   5.162  0.00  0.00    -0.472 OA
ENDBRANCH   2   5
BRANCH   1  17
ATOM     15  C   UNL     1      -0.468   0.384   0.377  0.00  0.00    +0.068 C 
ATOM     16  C   UNL     1      -0.715   1.585   1.252  0.00  0.00    +0.063 C 
ATOM     17  N   UNL     1       0.254   2.085   1.956  0.00  0.00    -0.184 NA
BRANCH  16  18
ATOM     18  C   UNL     1      -2.058   2.193   1.308  0.00  0.00    -0.002 A 
ATOM     19  C   UNL     1      -3.196   1.383   1.292  0.00  0.00    +0.012 A 
ATOM     20  C   UNL     1      -4.448   1.958   1.349  0.00  0.00    +0.033 A 
ATOM     21  C   UNL     1      -4.579   3.334   1.414  0.00  0.00    +0.126 A 
ATOM     22  C   UNL     1      -3.456   4.143   1.426  0.00  0.00    +0.033 A 
ATOM     23  C   UNL     1      -2.197   3.581   1.373  0.00  0.00    +0.012 A 
BRANCH  21  24
ATOM     24  N   UNL     1      -5.926   3.944   1.470  0.00  0.00    +0.056 N 
ATOM     25  O   UNL     1      -6.045   5.155   1.527  0.00  0.00    -0.126 OA
ATOM     26  O   UNL     1      -6.917   3.235   1.460  0.00  0.00    -0.126 OA
ENDBRANCH  21  24
ENDBRANCH  16  18
ENDBRANCH   1  17
TORSDOF 4
