REMARK  Name = ZINC20058394
REMARK  4 active torsions:
REMARK  status: ('A' for Active; 'I' for Inactive)
REMARK    1  A    between atoms: C_1  and  C_2
REMARK    2  A    between atoms: C_8  and  C_15
REMARK    3  A    between atoms: C_9  and  C_13
REMARK    4  A    between atoms: C_10  and  N_12
REMARK                            x       y       z     vdW  Elec       q    Type
REMARK                         _______ _______ _______ _____ _____    ______ ____
ROOT
ATOM      1  C   UNL     1      -0.164   5.635  -0.119  0.00  0.00    +0.008 C 
ATOM      2  C   UNL     1      -0.154   4.127  -0.377  0.00  0.00    -0.009 C 
ATOM      3  C   UNL     1      -1.242   3.451   0.466  0.00  0.00    +0.010 C 
ATOM      4  C   UNL     1      -1.367   1.997   0.017  0.00  0.00    +0.056 C 
ATOM      5  C   UNL     1      -0.016   1.326   0.009  0.00  0.00    +0.047 A 
ATOM      6  C   UNL     1       1.157   2.040   0.002  0.00  0.00    -0.016 A 
ATOM      7  C   UNL     1       2.382   1.352  -0.024  0.00  0.00    +0.014 A 
ATOM      8  C   UNL     1       2.364  -0.059  -0.035  0.00  0.00    +0.100 A 
ATOM      9  C   UNL     1       1.118  -0.708  -0.019  0.00  0.00    +0.135 A 
ATOM     10  N   UNL     1       0.002  -0.004   0.002  0.00  0.00    -0.236 NA
ATOM     11  C   UNL     1       1.198   3.544   0.028  0.00  0.00    +0.041 C 
ENDROOT
BRANCH   7  12
ATOM     12  C   UNL     1       3.658   2.088  -0.038  0.00  0.00    +0.022 A 
ATOM     13  C   UNL     1       4.616   2.139  -1.019  0.00  0.00    +0.017 A 
ATOM     14  C   UNL     1       5.739   2.903  -0.807  0.00  0.00    +0.023 A 
ATOM     15  C   UNL     1       5.866   3.584   0.364  0.00  0.00    +0.055 A 
ATOM     16  S   UNL     1       4.356   3.153   1.214  0.00  0.00    -0.081 S 
ATOM     17 BR   UNL     1       7.276   4.705   0.941  0.00  0.00    -0.043 Br
ENDBRANCH   7  12
BRANCH   9  18
ATOM     18  N   UNL     1       1.061  -2.091  -0.024  0.00  0.00    -0.342 N 
ATOM     19  H   UNL     1       0.086  -2.601  -0.011  0.00  0.00    +0.144 HD
ATOM     20  H   UNL     1       1.990  -2.680  -0.041  0.00  0.00    +0.144 HD
ENDBRANCH   9  18
BRANCH   8  21
ATOM     21  C   UNL     1       3.583  -0.810  -0.063  0.00  0.00    +0.103 C 
ATOM     22  N   UNL     1       4.551  -1.406  -0.085  0.00  0.00    -0.191 NA
ENDBRANCH   8  21
TORSDOF 3
