REMARK  Name = ZINC65252308
REMARK  9 active torsions:
REMARK  status: ('A' for Active; 'I' for Inactive)
REMARK    1  A    between atoms: C_1  and  C_2
REMARK    2  A    between atoms: C_2  and  C_3
REMARK    3  A    between atoms: C_3  and  C_4
REMARK    4  A    between atoms: C_4  and  C_5
REMARK    5  A    between atoms: C_4  and  N_6
REMARK    6  A    between atoms: C_7  and  C_9
REMARK    7  A    between atoms: N_13  and  C_15
REMARK    8  A    between atoms: C_15  and  C_16
REMARK    9  A    between atoms: N_18  and  C_19
REMARK                            x       y       z     vdW  Elec       q    Type
REMARK                         _______ _______ _______ _____ _____    ______ ____
ROOT
ATOM      1  C   UNL     1       0.343  -4.238  -2.611  0.00  0.00    +0.058 C 
ATOM      2  C   UNL     1      -0.749  -4.304  -3.683  0.00  0.00    +0.009 C 
ATOM      3  C   UNL     1      -0.152  -4.874  -4.973  0.00  0.00    -0.018 C 
ATOM      4  C   UNL     1       0.459  -6.246  -4.682  0.00  0.00    -0.078 C 
ATOM      5  N   UNL     1       1.514  -6.112  -3.670  0.00  0.00    +0.386 N 
ATOM      6  C   UNL     1       0.936  -5.634  -2.409  0.00  0.00    -0.065 C 
ATOM      7  H   UNL     1       2.207  -5.453  -3.993  0.00  0.00    -0.081 HD
ENDROOT
BRANCH   1   9
ATOM      8  N   UNL     1      -0.834  -2.537  -1.256  0.00  0.00    -0.313 N 
ATOM      9  C   UNL     1      -0.252  -3.751  -1.315  0.00  0.00    +0.215 C 
ATOM     10  O   UNL     1      -0.206  -4.451  -0.326  0.00  0.00    -0.276 OA
ATOM     11  H   UNL     1      -0.871  -1.977  -2.047  0.00  0.00    +0.149 HD
BRANCH   8  12
ATOM     12  C   UNL     1      -1.413  -2.063   0.004  0.00  0.00    +0.070 C 
ATOM     13  C   UNL     1      -2.841  -2.594   0.141  0.00  0.00    +0.028 C 
BRANCH  12  14
ATOM     14  C   UNL     1      -1.433  -0.534   0.013  0.00  0.00    +0.022 C 
BRANCH  14  16
ATOM     15  C   UNL     1      -0.019   1.526   0.010  0.00  0.00    +0.004 C 
ATOM     16  C   UNL     1       0.002  -0.004   0.002  0.00  0.00    -0.002 C 
ENDBRANCH  14  16
ENDBRANCH  12  14
ENDBRANCH   8  12
ENDBRANCH   1   9
BRANCH   5  17
ATOM     17  C   UNL     1       2.150  -7.418  -3.452  0.00  0.00    +0.019 C 
BRANCH  17  18
ATOM     18  C   UNL     1       2.857  -7.849  -4.711  0.00  0.00    +0.197 C 
ATOM     19  O   UNL     1       2.834  -7.139  -5.694  0.00  0.00    -0.278 OA
ATOM     20  N   UNL     1       3.516  -9.025  -4.745  0.00  0.00    -0.306 N 
ATOM     21  H   UNL     1       3.535  -9.593  -3.960  0.00  0.00    +0.149 HD
BRANCH  20  22
ATOM     22  C   UNL     1       4.203  -9.444  -5.969  0.00  0.00    +0.159 C 
ATOM     23  C   UNL     1       5.319 -10.431  -5.620  0.00  0.00    +0.032 C 
ATOM     24  C   UNL     1       6.398 -10.423  -6.688  0.00  0.00    +0.004 C 
ATOM     25  C   UNL     1       5.936 -10.964  -8.029  0.00  0.00    +0.019 C 
ATOM     26  C   UNL     1       4.895 -10.038  -8.661  0.00  0.00    +0.104 C 
ATOM     27  N   UNL     1       3.564 -10.409  -8.152  0.00  0.00    -0.314 N 
ATOM     28  C   UNL     1       3.222 -10.135  -6.893  0.00  0.00    +0.233 C 
ATOM     29  O   UNL     1       2.121 -10.441  -6.485  0.00  0.00    -0.274 OA
ATOM     30  H   UNL     1       2.932 -10.855  -8.737  0.00  0.00    +0.149 HD
ENDBRANCH  20  22
ENDBRANCH  17  18
ENDBRANCH   5  17
TORSDOF 7
