REMARK  Name = ZINC40882256
REMARK  4 active torsions:
REMARK  status: ('A' for Active; 'I' for Inactive)
REMARK    1  A    between atoms: C_5  and  O_7
REMARK    2  A    between atoms: O_7  and  C_8
REMARK    3  A    between atoms: C_11  and  C_14
REMARK    4  A    between atoms: C_14  and  O_15
REMARK                            x       y       z     vdW  Elec       q    Type
REMARK                         _______ _______ _______ _____ _____    ______ ____
ROOT
ATOM      1  C   UNL     1       0.052  -2.695   0.090  0.00  0.00    +0.240 A 
ATOM      2  C   UNL     1       0.030  -4.084   0.197  0.00  0.00    +0.071 A 
ATOM      3  C   UNL     1      -1.203  -4.707   0.310  0.00  0.00    +0.033 A 
ATOM      4  C   UNL     1      -2.339  -3.909   0.309  0.00  0.00    +0.089 A 
ATOM      5  N   UNL     1      -2.224  -2.600   0.203  0.00  0.00    -0.148 NA
ATOM      6  N   UNL     1      -1.085  -2.018   0.104  0.00  0.00    -0.111 NA
ENDROOT
BRANCH   1   7
ATOM      7  O   UNL     1       1.235  -2.039  -0.022  0.00  0.00    -0.436 OA
BRANCH   7  12
ATOM      8  C   UNL     1       1.156   1.379  -1.265  0.00  0.00    +0.004 A 
ATOM      9  C   UNL     1       1.165   2.086  -0.076  0.00  0.00    +0.001 A 
ATOM     10  C   UNL     1       1.196   1.413   1.131  0.00  0.00    +0.018 A 
ATOM     11  C   UNL     1       1.220   0.031   1.152  0.00  0.00    +0.056 A 
ATOM     12  C   UNL     1       1.211  -0.680  -0.040  0.00  0.00    +0.143 A 
ATOM     13  C   UNL     1       1.179  -0.002  -1.250  0.00  0.00    +0.047 A 
ATOM     14  I   UNL     1       1.269  -0.989   2.981  0.00  0.00    -0.040 I 
ENDBRANCH   7  12
ENDBRANCH   1   7
BRANCH   4  15
ATOM     15  C   UNL     1      -3.702  -4.540   0.428  0.00  0.00    +0.213 C 
BRANCH  15  16
ATOM     16  O   UNL     1      -3.564  -5.958   0.528  0.00  0.00    -0.389 OA
ATOM     17  H   UNL     1      -4.404  -6.431   0.608  0.00  0.00    +0.210 HD
ENDBRANCH  15  16
ENDBRANCH   4  15
TORSDOF 4
