REMARK  Name = ZINC64410757
REMARK  3 active torsions:
REMARK  status: ('A' for Active; 'I' for Inactive)
REMARK    1  A    between atoms: C_8  and  C_11
REMARK    2  A    between atoms: N_16  and  C_19
REMARK    3  A    between atoms: C_19  and  C_20
REMARK                            x       y       z     vdW  Elec       q    Type
REMARK                         _______ _______ _______ _____ _____    ______ ____
ROOT
ATOM      1  C   UNL     1       2.654  -3.605  -2.400  0.00  0.00    +0.247 C 
ATOM      2  O   UNL     1       3.274  -3.350  -3.411  0.00  0.00    -0.273 OA
ATOM      3  N   UNL     1       2.064  -4.808  -2.256  0.00  0.00    -0.297 N 
ATOM      4  C   UNL     1       1.303  -5.135  -1.040  0.00  0.00    +0.123 C 
ATOM      5  C   UNL     1       1.810  -6.474  -0.494  0.00  0.00    +0.103 C 
ATOM      6  N   UNL     1       1.749  -7.487  -1.556  0.00  0.00    -0.296 NA
ATOM      7  C   UNL     1       2.636  -7.140  -2.675  0.00  0.00    +0.103 C 
ATOM      8  C   UNL     1       2.158  -5.826  -3.313  0.00  0.00    +0.123 C 
ENDROOT
BRANCH   1  16
ATOM      9  C   UNL     1      -0.321   1.339  -1.639  0.00  0.00    +0.002 A 
ATOM     10  C   UNL     1       0.808   2.077  -1.944  0.00  0.00    +0.001 A 
ATOM     11  C   UNL     1       2.034   1.436  -1.998  0.00  0.00    +0.016 A 
ATOM     12  C   UNL     1       2.113   0.084  -1.750  0.00  0.00    +0.031 A 
ATOM     13  C   UNL     1       0.990  -0.689  -1.440  0.00  0.00    +0.042 A 
ATOM     14  C   UNL     1      -0.241  -0.011  -1.392  0.00  0.00    +0.024 A 
ATOM     15  N   UNL     1       1.176  -2.051  -1.207  0.00  0.00    -0.324 N 
ATOM     16  C   UNL     1       2.545  -2.576  -1.304  0.00  0.00    +0.221 C 
ATOM     17  S   UNL     1       3.480  -1.052  -1.730  0.00  0.00    -0.092 S 
ATOM     18  H   UNL     1       0.430  -2.631  -0.988  0.00  0.00    +0.148 HD
ENDBRANCH   1  16
BRANCH   6  19
ATOM     19  C   UNL     1       2.062  -8.821  -1.029  0.00  0.00    +0.131 C 
BRANCH  19  20
ATOM     20  C   UNL     1       0.847  -9.373  -0.280  0.00  0.00    +0.188 C 
ATOM     21  N   UNL     1      -0.352  -9.270  -1.121  0.00  0.00    -0.362 N 
ATOM     22  C   UNL     1      -1.201  -8.505  -0.498  0.00  0.00    +0.060 A 
ATOM     23  C   UNL     1      -2.555  -8.038  -0.830  0.00  0.00    +0.027 A 
ATOM     24  C   UNL     1      -3.209  -7.232   0.030  0.00  0.00    +0.002 A 
ATOM     25  C   UNL     1      -2.649  -6.809   1.249  0.00  0.00    +0.002 A 
ATOM     26  C   UNL     1      -1.415  -7.179   1.649  0.00  0.00    +0.027 A 
ATOM     27  C   UNL     1      -0.609  -8.058   0.792  0.00  0.00    +0.060 A 
ATOM     28  N   UNL     1       0.584  -8.564   0.917  0.00  0.00    -0.362 N 
ATOM     29  H   UNL     1      -0.487  -9.695  -1.983  0.00  0.00    +0.162 HD
ATOM     30  H   UNL     1       1.188  -8.432   1.664  0.00  0.00    +0.162 HD
ENDBRANCH  19  20
ENDBRANCH   6  19
TORSDOF 3
