REMARK  Name = ZINC23702310
REMARK  7 active torsions:
REMARK  status: ('A' for Active; 'I' for Inactive)
REMARK    1  A    between atoms: C_1  and  C_2
REMARK    2  A    between atoms: C_2  and  C_4
REMARK    3  A    between atoms: C_2  and  S_11
REMARK    4  A    between atoms: S_11  and  C_12
REMARK    5  A    between atoms: C_13  and  C_20
REMARK    6  A    between atoms: C_14  and  N_19
REMARK    7  A    between atoms: C_16  and  N_18
REMARK                            x       y       z     vdW  Elec       q    Type
REMARK                         _______ _______ _______ _____ _____    ______ ____
ROOT
ATOM      1  C   UNL     1      -0.180   3.799   0.175  0.00  0.00    +0.119 A 
ATOM      2  C   UNL     1       1.074   3.170   0.277  0.00  0.00    +0.104 A 
ATOM      3  C   UNL     1       1.132   1.760   0.240  0.00  0.00    +0.048 A 
ATOM      4  C   UNL     1      -0.059   1.056   0.105  0.00  0.00    +0.067 A 
ATOM      5  C   UNL     1      -1.256   1.753   0.005  0.00  0.00    +0.119 A 
ATOM      6  N   UNL     1      -1.284   3.079   0.049  0.00  0.00    -0.225 NA
ENDROOT
BRANCH   5   7
ATOM      7  N   UNL     1      -2.443   1.052  -0.136  0.00  0.00    -0.343 N 
ATOM      8  H   UNL     1      -3.396   1.594  -0.216  0.00  0.00    +0.144 HD
ATOM      9  H   UNL     1      -2.431  -0.048  -0.168  0.00  0.00    +0.144 HD
ENDBRANCH   5   7
BRANCH   3  10
ATOM     10  N   UNL     1       2.345   1.096   0.337  0.00  0.00    -0.357 N 
ATOM     11  H   UNL     1       2.373  -0.004   0.307  0.00  0.00    +0.142 HD
ATOM     12  H   UNL     1       3.278   1.667   0.445  0.00  0.00    +0.142 HD
ENDBRANCH   3  10
BRANCH   2  13
ATOM     13  C   UNL     1       2.270   3.945   0.414  0.00  0.00    +0.104 C 
ATOM     14  N   UNL     1       3.218   4.560   0.523  0.00  0.00    -0.191 NA
ENDBRANCH   2  13
BRANCH   1  15
ATOM     15  S   UNL     1      -0.281   5.557   0.218  0.00  0.00    -0.097 S 
BRANCH  15  17
ATOM     16  C   UNL     1      -2.521   5.267  -1.319  0.00  0.00    +0.024 C 
ATOM     17  C   UNL     1      -2.071   5.772   0.053  0.00  0.00    +0.081 C 
BRANCH  17  18
ATOM     18  C   UNL     1      -2.416   7.233   0.188  0.00  0.00    -0.016 A 
ATOM     19  C   UNL     1      -1.479   8.197  -0.134  0.00  0.00    +0.006 A 
ATOM     20  C   UNL     1      -1.795   9.537  -0.010  0.00  0.00    +0.000 A 
ATOM     21  C   UNL     1      -3.048   9.914   0.436  0.00  0.00    +0.001 A 
ATOM     22  C   UNL     1      -3.986   8.951   0.758  0.00  0.00    +0.020 A 
ATOM     23  C   UNL     1      -3.672   7.610   0.629  0.00  0.00    +0.045 A 
ATOM     24 CL   UNL     1      -4.851   6.399   1.026  0.00  0.00    -0.083 Cl
ENDBRANCH  17  18
ENDBRANCH  15  17
ENDBRANCH   1  15
TORSDOF 6
