REMARK  Name = ZINC47777850
REMARK  8 active torsions:
REMARK  status: ('A' for Active; 'I' for Inactive)
REMARK    1  A    between atoms: C_1  and  C_2
REMARK    2  A    between atoms: C_2  and  C_4
REMARK    3  A    between atoms: C_2  and  N_10
REMARK    4  A    between atoms: C_4  and  N_5
REMARK    5  A    between atoms: N_13  and  C_14
REMARK    6  A    between atoms: C_14  and  C_15
REMARK    7  A    between atoms: C_15  and  C_17
REMARK    8  A    between atoms: C_15  and  N_22
REMARK                            x       y       z     vdW  Elec       q    Type
REMARK                         _______ _______ _______ _____ _____    ______ ____
ROOT
ATOM      1  N   UNL     1      -1.004  -1.497  -0.322  0.00  0.00    -0.295 N 
ATOM      2  C   UNL     1      -1.767  -1.596  -1.429  0.00  0.00    +0.300 C 
ATOM      3  O   UNL     1      -1.244  -1.645  -2.526  0.00  0.00    -0.253 OA
ATOM      4  N   UNL     1      -3.110  -1.641  -1.320  0.00  0.00    -0.301 N 
ATOM      5  H   UNL     1      -1.421  -1.458   0.552  0.00  0.00    +0.151 HD
ATOM      6  H   UNL     1      -3.527  -1.602  -0.445  0.00  0.00    +0.150 HD
ENDROOT
BRANCH   1   8
ATOM      7  C   UNL     1       0.898  -0.006  -0.697  0.00  0.00    +0.030 C 
ATOM      8  C   UNL     1       0.455  -1.448  -0.441  0.00  0.00    +0.093 C 
BRANCH   8   9
ATOM      9  C   UNL     1       1.089  -1.953   0.857  0.00  0.00    +0.165 C 
BRANCH   9  10
ATOM     10  N   UNL     1       0.763  -3.369   1.041  0.00  0.00    -0.270 N 
ATOM     11  C   UNL     1       1.648  -4.370   1.231  0.00  0.00    +0.108 A 
ATOM     12  C   UNL     1       0.948  -5.521   1.357  0.00  0.00    +0.041 A 
ATOM     13  C   UNL     1      -0.411  -5.214   1.240  0.00  0.00    +0.134 A 
ATOM     14  N   UNL     1      -0.524  -3.923   1.056  0.00  0.00    -0.180 NA
ENDBRANCH   9  10
ENDBRANCH   8   9
ENDBRANCH   1   8
BRANCH   4  15
ATOM     15  C   UNL     1      -3.939  -1.749  -2.523  0.00  0.00    +0.098 C 
BRANCH  15  16
ATOM     16  C   UNL     1      -5.405  -1.913  -2.119  0.00  0.00    +0.016 C 
BRANCH  16  17
ATOM     17  N   UNL     1      -5.544  -3.085  -1.244  0.00  0.00    +0.387 N 
ATOM     18  C   UNL     1      -4.993  -4.266  -1.921  0.00  0.00    -0.078 C 
ATOM     19  C   UNL     1      -5.062  -5.473  -0.984  0.00  0.00    -0.019 C 
ATOM     20  C   UNL     1      -6.522  -5.736  -0.603  0.00  0.00    -0.004 C 
ATOM     21  C   UNL     1      -7.108  -4.473   0.034  0.00  0.00    -0.019 C 
ATOM     22  C   UNL     1      -6.964  -3.302  -0.941  0.00  0.00    -0.078 C 
ATOM     23  H   UNL     1      -5.038  -2.925  -0.386  0.00  0.00    -0.081 HD
ENDBRANCH  16  17
BRANCH  16  24
ATOM     24  C   UNL     1      -6.248  -2.104  -3.353  0.00  0.00    +0.093 A 
ATOM     25  C   UNL     1      -7.104  -1.203  -3.868  0.00  0.00    +0.043 A 
ATOM     26  C   UNL     1      -7.678  -1.794  -5.018  0.00  0.00    +0.041 A 
ATOM     27  C   UNL     1      -7.138  -3.020  -5.136  0.00  0.00    +0.195 A 
ATOM     28  O   UNL     1      -6.269  -3.200  -4.128  0.00  0.00    -0.469 OA
ENDBRANCH  16  24
ENDBRANCH  15  16
ENDBRANCH   4  15
TORSDOF 7
