REMARK  Name = ZINC64650077
REMARK  5 active torsions:
REMARK  status: ('A' for Active; 'I' for Inactive)
REMARK    1  A    between atoms: C_1  and  C_2
REMARK    2  A    between atoms: C_2  and  C_3
REMARK    3  A    between atoms: C_3  and  N_4
REMARK    4  A    between atoms: C_7  and  C_15
REMARK    5  A    between atoms: C_18  and  C_21
REMARK                            x       y       z     vdW  Elec       q    Type
REMARK                         _______ _______ _______ _____ _____    ______ ____
ROOT
ATOM      1  C   UNL     1      -3.766  -2.191   3.120  0.00  0.00    +0.168 C 
ATOM      2  N   UNL     1      -4.040  -0.945   2.905  0.00  0.00    -0.067 NA
ATOM      3  O   UNL     1      -5.344  -0.629   3.354  0.00  0.00    -0.367 OA
ATOM      4  C   UNL     1      -5.894  -1.839   3.896  0.00  0.00    +0.318 C 
ATOM      5  N   UNL     1      -4.831  -2.840   3.718  0.00  0.00    -0.288 N 
ATOM      6  H   UNL     1      -4.868  -3.775   3.974  0.00  0.00    +0.151 HD
ENDROOT
BRANCH   1  10
ATOM      7  N   UNL     1       0.762  -1.976   1.234  0.00  0.00    -0.265 N 
ATOM      8  C   UNL     1      -0.272  -2.705   1.839  0.00  0.00    +0.079 A 
ATOM      9  C   UNL     1      -1.468  -2.094   2.165  0.00  0.00    +0.038 A 
ATOM     10  C   UNL     1      -2.483  -2.838   2.768  0.00  0.00    +0.020 A 
ATOM     11  C   UNL     1      -2.287  -4.193   3.037  0.00  0.00    +0.015 A 
ATOM     12  C   UNL     1      -1.092  -4.798   2.708  0.00  0.00    +0.048 A 
ATOM     13  C   UNL     1      -0.082  -4.061   2.109  0.00  0.00    +0.143 A 
ATOM     14  O   UNL     1       1.099  -4.649   1.779  0.00  0.00    -0.481 OA
ATOM     15  C   UNL     1       1.760  -4.152   0.613  0.00  0.00    +0.325 C 
ATOM     16  C   UNL     1       1.773  -2.645   0.638  0.00  0.00    +0.258 C 
ATOM     17  O   UNL     1       2.691  -2.035   0.130  0.00  0.00    -0.272 OA
BRANCH   7  18
ATOM     18  C   UNL     1       0.742  -0.511   1.242  0.00  0.00    +0.113 C 
BRANCH  18  20
ATOM     19  C   UNL     1      -0.019   1.526   0.010  0.00  0.00    +0.005 C 
ATOM     20  C   UNL     1       0.002  -0.004   0.002  0.00  0.00    +0.016 C 
ENDBRANCH  18  20
ENDBRANCH   7  18
ENDBRANCH   1  10
BRANCH   4  21
ATOM     21  C   UNL     1      -7.146  -2.251   3.119  0.00  0.00    +0.165 C 
ATOM     22  C   UNL     1      -6.799  -2.512   1.671  0.00  0.00    +0.012 C 
ATOM     23  C   UNL     1      -7.524  -1.628   0.947  0.00  0.00    -0.002 A 
ATOM     24  C   UNL     1      -7.631  -1.376  -0.495  0.00  0.00    +0.029 A 
ATOM     25  C   UNL     1      -8.461  -0.400  -0.931  0.00  0.00    +0.042 A 
ATOM     26  C   UNL     1      -9.219   0.375  -0.040  0.00  0.00    +0.022 A 
ATOM     27  C   UNL     1      -9.173   0.202   1.298  0.00  0.00    +0.027 A 
ATOM     28  C   UNL     1      -8.334  -0.797   1.865  0.00  0.00    +0.043 A 
ATOM     29  N   UNL     1      -8.120  -1.153   3.110  0.00  0.00    -0.373 N 
ATOM     30 CL   UNL     1      -8.591  -0.098  -2.635  0.00  0.00    -0.084 Cl
ATOM     31  H   UNL     1      -8.534  -0.757   3.893  0.00  0.00    +0.160 HD
ENDBRANCH   4  21
TORSDOF 4
