REMARK  Name = ZINC37376178
REMARK  9 active torsions:
REMARK  status: ('A' for Active; 'I' for Inactive)
REMARK    1  A    between atoms: C_1  and  C_2
REMARK    2  A    between atoms: C_2  and  C_3
REMARK    3  A    between atoms: C_2  and  C_4
REMARK    4  A    between atoms: C_7  and  C_10
REMARK    5  A    between atoms: C_12  and  N_35
REMARK    6  A    between atoms: N_13  and  C_28
REMARK    7  A    between atoms: N_22  and  C_25
REMARK    8  A    between atoms: C_25  and  C_26
REMARK    9  A    between atoms: C_25  and  C_27
REMARK                            x       y       z     vdW  Elec       q    Type
REMARK                         _______ _______ _______ _____ _____    ______ ____
ROOT
ATOM      1  C   UNL     1      -5.492  -1.758   0.075  0.00  0.00    +0.089 A 
ATOM      2  C   UNL     1      -6.200  -1.948  -1.132  0.00  0.00    +0.086 A 
ATOM      3  C   UNL     1      -5.947  -1.726  -2.481  0.00  0.00    +0.131 A 
ATOM      4  N   UNL     1      -7.037  -2.118  -3.168  0.00  0.00    -0.216 N 
ATOM      5  N   UNL     1      -8.011  -2.597  -2.284  0.00  0.00    -0.144 NA
ATOM      6  C   UNL     1      -7.558  -2.517  -1.052  0.00  0.00    +0.189 A 
ATOM      7  N   UNL     1      -8.041  -2.821   0.168  0.00  0.00    -0.193 NA
ATOM      8  C   UNL     1      -7.311  -2.611   1.244  0.00  0.00    +0.220 A 
ATOM      9  N   UNL     1      -6.081  -2.107   1.211  0.00  0.00    -0.214 NA
ATOM     10  N   UNL     1      -7.851  -2.940   2.475  0.00  0.00    -0.303 N 
ATOM     11  C   UNL     1      -7.090  -2.724   3.716  0.00  0.00    +0.089 C 
ATOM     12  C   UNL     1      -7.978  -1.960   4.703  0.00  0.00    -0.059 C 
ATOM     13  N   UNL     1      -9.242  -2.685   4.885  0.00  0.00    +0.383 N 
ATOM     14  C   UNL     1      -9.989  -2.712   3.621  0.00  0.00    -0.059 C 
ATOM     15  C   UNL     1      -9.203  -3.508   2.580  0.00  0.00    +0.089 C 
ATOM     16  H   UNL     1      -9.047  -3.630   5.179  0.00  0.00    -0.081 HD
ENDROOT
BRANCH   4  17
ATOM     17  C   UNL     1      -7.177  -2.055  -4.560  0.00  0.00    +0.068 A 
ATOM     18  C   UNL     1      -6.599  -1.010  -5.270  0.00  0.00    +0.030 A 
ATOM     19  C   UNL     1      -6.738  -0.950  -6.643  0.00  0.00    +0.040 A 
ATOM     20  C   UNL     1      -7.452  -1.930  -7.311  0.00  0.00    +0.124 A 
ATOM     21  C   UNL     1      -8.029  -2.972  -6.605  0.00  0.00    +0.040 A 
ATOM     22  C   UNL     1      -7.888  -3.040  -5.233  0.00  0.00    +0.030 A 
ATOM     23  F   UNL     1      -7.586  -1.869  -8.654  0.00  0.00    -0.205 F 
ENDBRANCH   4  17
BRANCH   1  27
ATOM     24  C   UNL     1      -1.565  -0.133   0.065  0.00  0.00    -0.045 A 
ATOM     25  C   UNL     1      -1.845  -1.254   0.825  0.00  0.00    +0.004 A 
ATOM     26  C   UNL     1      -3.117  -1.787   0.833  0.00  0.00    +0.010 A 
ATOM     27  C   UNL     1      -4.124  -1.192   0.072  0.00  0.00    +0.001 A 
ATOM     28  C   UNL     1      -3.836  -0.061  -0.693  0.00  0.00    +0.010 A 
ATOM     29  C   UNL     1      -2.560   0.465  -0.688  0.00  0.00    +0.004 A 
BRANCH  24  31
ATOM     30  C   UNL     1       0.215   0.848   1.486  0.00  0.00    +0.012 C 
ATOM     31  C   UNL     1      -0.173   0.444   0.062  0.00  0.00    +0.013 C 
ATOM     32  C   UNL     1       0.812  -0.605  -0.457  0.00  0.00    +0.012 C 
ENDBRANCH  24  31
ENDBRANCH   1  27
BRANCH  13  33
ATOM     33  C   UNL     1     -10.047  -2.012   5.913  0.00  0.00    -0.075 C 
ATOM     34  C   UNL     1     -11.365  -2.766   6.104  0.00  0.00    -0.014 C 
ATOM     35  C   UNL     1      -9.275  -1.992   7.234  0.00  0.00    -0.014 C 
ENDBRANCH  13  33
BRANCH   3  36
ATOM     36  N   UNL     1      -4.788  -1.199  -3.019  0.00  0.00    -0.342 N 
ATOM     37  H   UNL     1      -4.000  -1.093  -2.463  0.00  0.00    +0.144 HD
ATOM     38  H   UNL     1      -4.762  -0.936  -3.952  0.00  0.00    +0.144 HD
ENDBRANCH   3  36
TORSDOF 5
