REMARK  Name = ZINC08935759
REMARK  9 active torsions:
REMARK  status: ('A' for Active; 'I' for Inactive)
REMARK    1  A    between atoms: C_1  and  C_2
REMARK    2  A    between atoms: C_2  and  C_3
REMARK    3  A    between atoms: C_3  and  C_31
REMARK    4  A    between atoms: N_6  and  N_10
REMARK    5  A    between atoms: C_11  and  C_13
REMARK    6  A    between atoms: C_13  and  S_14
REMARK    7  A    between atoms: S_14  and  C_15
REMARK    8  A    between atoms: C_17  and  C_24
REMARK    9  A    between atoms: C_27  and  C_30
REMARK                            x       y       z     vdW  Elec       q    Type
REMARK                         _______ _______ _______ _____ _____    ______ ____
ROOT
ATOM      1  S   UNL     1      -5.636  -0.108   6.208  0.00  0.00    -0.096 S 
ENDROOT
BRANCH   1   2
ATOM      2  C   UNL     1      -6.977  -1.196   6.558  0.00  0.00    +0.109 A 
ATOM      3  C   UNL     1      -7.985  -0.819   7.487  0.00  0.00    +0.047 A 
ATOM      4  C   UNL     1      -8.128   0.412   8.257  0.00  0.00    +0.001 A 
ATOM      5  C   UNL     1      -9.192   0.545   9.083  0.00  0.00    +0.056 A 
ATOM      6  S   UNL     1     -10.079  -0.987   8.867  0.00  0.00    -0.076 S 
ATOM      7  C   UNL     1      -9.011  -1.765   7.684  0.00  0.00    +0.113 A 
ATOM      8  N   UNL     1      -9.012  -2.921   7.048  0.00  0.00    -0.228 NA
ATOM      9  C   UNL     1      -8.046  -3.218   6.201  0.00  0.00    +0.223 A 
ATOM     10  N   UNL     1      -7.056  -2.376   5.964  0.00  0.00    -0.229 NA
BRANCH   4  11
ATOM     11  C   UNL     1      -7.122   1.496   8.142  0.00  0.00    -0.017 A 
ATOM     12  C   UNL     1      -6.433   1.934   9.272  0.00  0.00    +0.009 A 
ATOM     13  C   UNL     1      -5.495   2.939   9.158  0.00  0.00    +0.004 A 
ATOM     14  C   UNL     1      -5.246   3.520   7.927  0.00  0.00    -0.050 A 
ATOM     15  C   UNL     1      -5.930   3.092   6.803  0.00  0.00    +0.004 A 
ATOM     16  C   UNL     1      -6.867   2.084   6.904  0.00  0.00    +0.009 A 
ATOM     17  C   UNL     1      -4.225   4.622   7.810  0.00  0.00    +0.044 C 
ENDBRANCH   4  11
ENDBRANCH   1   2
BRANCH   1  18
ATOM     18  C   UNL     1      -4.723  -1.111   5.009  0.00  0.00    +0.173 C 
BRANCH  18  20
ATOM     19  N   UNL     1      -2.661  -0.916   3.657  0.00  0.00    -0.223 N 
ATOM     20  C   UNL     1      -3.498  -0.360   4.555  0.00  0.00    +0.240 C 
ATOM     21  O   UNL     1      -3.265   0.744   4.999  0.00  0.00    -0.273 OA
ATOM     22  H   UNL     1      -2.848  -1.800   3.302  0.00  0.00    +0.174 HD
BRANCH  19  26
ATOM     23  C   UNL     1      -0.020   1.002   2.021  0.00  0.00    +0.111 C 
ATOM     24  C   UNL     1      -1.403   0.380   2.034  0.00  0.00    +0.263 C 
ATOM     25  O   UNL     1      -2.229   0.415   1.147  0.00  0.00    -0.271 OA
ATOM     26  N   UNL     1      -1.522  -0.218   3.235  0.00  0.00    -0.137 N 
ATOM     27  C   UNL     1      -0.419  -0.063   3.975  0.00  0.00    +0.326 C 
ATOM     28  O   UNL     1      -0.288  -0.514   5.097  0.00  0.00    -0.251 OA
ATOM     29  N   UNL     1       0.530   0.648   3.341  0.00  0.00    -0.284 N 
ATOM     30  C   UNL     1       0.831   0.398   0.902  0.00  0.00    +0.041 C 
ATOM     31  H   UNL     1       1.407   0.883   3.685  0.00  0.00    +0.151 HD
BRANCH  23  33
ATOM     32  C   UNL     1       1.295   3.123   1.911  0.00  0.00    +0.006 C 
ATOM     33  C   UNL     1      -0.111   2.521   1.865  0.00  0.00    +0.032 C 
ENDBRANCH  23  33
ENDBRANCH  19  26
ENDBRANCH  18  20
ENDBRANCH   1  18
TORSDOF 6
