REMARK  Name = ZINC65736216
REMARK  6 active torsions:
REMARK  status: ('A' for Active; 'I' for Inactive)
REMARK    1  A    between atoms: C_1  and  C_2
REMARK    2  A    between atoms: C_5  and  N_9
REMARK    3  A    between atoms: C_6  and  C_8
REMARK    4  A    between atoms: N_9  and  C_10
REMARK    5  A    between atoms: C_11  and  C_13
REMARK    6  A    between atoms: C_16  and  C_21
REMARK                            x       y       z     vdW  Elec       q    Type
REMARK                         _______ _______ _______ _____ _____    ______ ____
ROOT
ATOM      1  C   UNL     1      -0.910  -6.323   0.122  0.00  0.00    +0.101 A 
ATOM      2  C   UNL     1      -0.793  -6.921   1.381  0.00  0.00    +0.020 A 
ATOM      3  C   UNL     1      -0.690  -8.300   1.467  0.00  0.00    +0.030 A 
ATOM      4  C   UNL     1      -0.706  -9.068   0.310  0.00  0.00    +0.085 A 
ATOM      5  N   UNL     1      -0.821  -8.477  -0.919  0.00  0.00    -0.319 N 
ATOM      6  H   UNL     1      -0.830  -9.030  -1.717  0.00  0.00    +0.169 HD
ATOM      7  C   UNL     1      -0.928  -7.140  -1.035  0.00  0.00    +0.261 A 
ATOM      8  O   UNL     1      -1.036  -6.632  -2.138  0.00  0.00    -0.267 OA
ENDROOT
BRANCH   4   9
ATOM      9  C   UNL     1      -0.597 -10.525   0.407  0.00  0.00    +0.151 A 
ATOM     10  C   UNL     1      -0.593 -11.402  -0.643  0.00  0.00    +0.051 A 
ATOM     11  C   UNL     1      -0.471 -12.688  -0.093  0.00  0.00    +0.042 A 
ATOM     12  C   UNL     1      -0.407 -12.543   1.249  0.00  0.00    +0.196 A 
ATOM     13  O   UNL     1      -0.478 -11.238   1.546  0.00  0.00    -0.461 OA
ENDBRANCH   4   9
BRANCH   1  16
ATOM     14  N   UNL     1       0.083  -4.096   0.091  0.00  0.00    -0.270 N 
ATOM     15  C   UNL     1       1.404  -4.720   0.200  0.00  0.00    +0.138 C 
ATOM     16  C   UNL     1      -1.020  -4.865   0.001  0.00  0.00    +0.256 C 
ATOM     17  O   UNL     1      -2.108  -4.349  -0.181  0.00  0.00    -0.269 OA
BRANCH  14  22
ATOM     18  C   UNL     1      -0.390   1.556   0.050  0.00  0.00    +0.044 C 
ATOM     19  C   UNL     1      -0.264   0.055   0.061  0.00  0.00    -0.050 A 
ATOM     20  C   UNL     1      -0.108  -0.633  -1.129  0.00  0.00    +0.005 A 
ATOM     21  C   UNL     1       0.007  -2.009  -1.122  0.00  0.00    +0.024 A 
ATOM     22  C   UNL     1      -0.033  -2.702   0.081  0.00  0.00    +0.039 A 
ATOM     23  C   UNL     1      -0.190  -2.009   1.274  0.00  0.00    -0.029 A 
ATOM     24  C   UNL     1      -0.300  -0.632   1.261  0.00  0.00    +0.008 A 
ATOM     25  C   UNL     1      -0.235  -2.756   2.581  0.00  0.00    +0.045 C 
ENDBRANCH  14  22
ENDBRANCH   1  16
TORSDOF 3
