REMARK  Name = ZINC12791205
REMARK  5 active torsions:
REMARK  status: ('A' for Active; 'I' for Inactive)
REMARK    1  A    between atoms: C_1  and  C_2
REMARK    2  A    between atoms: C_7  and  C_9
REMARK    3  A    between atoms: C_7  and  C_10
REMARK    4  A    between atoms: N_13  and  C_17
REMARK    5  A    between atoms: C_17  and  N_18
REMARK                            x       y       z     vdW  Elec       q    Type
REMARK                         _______ _______ _______ _____ _____    ______ ____
ROOT
ATOM      1  C   UNL     1      -0.019   1.528   0.010  0.00  0.00    +0.007 C 
ATOM      2  C   UNL     1       0.002  -0.004   0.002  0.00  0.00    -0.011 C 
ATOM      3  C   UNL     1      -1.435  -0.529   0.021  0.00  0.00    +0.038 C 
ATOM      4  C   UNL     1      -1.427  -2.050  -0.036  0.00  0.00    +0.113 C 
ATOM      5  C   UNL     1      -0.575  -2.676   1.049  0.00  0.00    +0.041 C 
ATOM      6  C   UNL     1       0.782  -2.031   1.270  0.00  0.00    -0.032 C 
ATOM      7  C   UNL     1       0.719  -0.508   1.253  0.00  0.00    +0.009 C 
ATOM      8  C   UNL     1       1.296  -2.464   2.661  0.00  0.00    +0.011 C 
ATOM      9  C   UNL     1       1.795  -2.526   0.234  0.00  0.00    +0.011 C 
ATOM     10  C   UNL     1      -1.044  -2.534  -1.413  0.00  0.00    +0.248 C 
ATOM     11  O   UNL     1      -0.058  -2.253  -2.060  0.00  0.00    -0.273 OA
ATOM     12  N   UNL     1      -2.050  -3.344  -1.810  0.00  0.00    -0.204 N 
ATOM     13  C   UNL     1      -3.063  -3.331  -0.937  0.00  0.00    +0.311 C 
ATOM     14  O   UNL     1      -4.088  -3.969  -1.082  0.00  0.00    -0.252 OA
ATOM     15  N   UNL     1      -2.817  -2.537   0.119  0.00  0.00    -0.285 N 
ATOM     16  H   UNL     1      -3.418  -2.318   0.845  0.00  0.00    +0.151 HD
ENDROOT
BRANCH  12  17
ATOM     17  C   UNL     1      -2.031  -4.134  -3.043  0.00  0.00    +0.268 C 
BRANCH  17  18
ATOM     18  N   UNL     1      -1.448  -5.450  -2.771  0.00  0.00    -0.192 N 
ATOM     19  C   UNL     1      -0.186  -5.727  -3.175  0.00  0.00    +0.279 A 
ATOM     20  O   UNL     1       0.485  -4.901  -3.766  0.00  0.00    -0.265 OA
ATOM     21  C   UNL     1       0.343  -7.066  -2.872  0.00  0.00    +0.068 A 
ATOM     22  C   UNL     1       1.630  -7.447  -3.246  0.00  0.00    +0.015 A 
ATOM     23  C   UNL     1       2.081  -8.712  -2.939  0.00  0.00    +0.001 A 
ATOM     24  C   UNL     1       1.264  -9.607  -2.262  0.00  0.00    +0.002 A 
ATOM     25  C   UNL     1      -0.011  -9.251  -1.883  0.00  0.00    +0.030 A 
ATOM     26  C   UNL     1      -0.491  -7.973  -2.183  0.00  0.00    +0.100 A 
ATOM     27  N   UNL     1      -1.742  -7.588  -1.825  0.00  0.00    -0.131 NA
ATOM     28  N   UNL     1      -2.193  -6.416  -2.089  0.00  0.00    -0.061 NA
ENDBRANCH  17  18
ENDBRANCH  12  17
TORSDOF 2
