REMARK  Name = ZINC15970193
REMARK  6 active torsions:
REMARK  status: ('A' for Active; 'I' for Inactive)
REMARK    1  A    between atoms: C_1  and  C_2
REMARK    2  A    between atoms: C_2  and  C_3
REMARK    3  A    between atoms: C_3  and  C_4
REMARK    4  A    between atoms: C_4  and  N_5
REMARK    5  A    between atoms: C_10  and  C_28
REMARK    6  A    between atoms: C_28  and  C_29
REMARK                            x       y       z     vdW  Elec       q    Type
REMARK                         _______ _______ _______ _____ _____    ______ ____
ROOT
ATOM      1  N   UNL     1       1.471  -2.526   2.420  0.00  0.00    -0.242 N 
ATOM      2  C   UNL     1       2.791  -2.744   2.436  0.00  0.00    +0.227 C 
ATOM      3  O   UNL     1       3.542  -2.568   1.500  0.00  0.00    -0.275 OA
ATOM      4  C   UNL     1       3.201  -3.243   3.802  0.00  0.00    +0.107 C 
ATOM      5  C   UNL     1       4.073  -2.175   4.496  0.00  0.00    +0.072 C 
ATOM      6  N   UNL     1       3.104  -1.273   5.174  0.00  0.00    -0.295 NA
ATOM      7  C   UNL     1       2.061  -2.182   5.683  0.00  0.00    +0.136 C 
ATOM      8  C   UNL     1       1.863  -3.265   4.593  0.00  0.00    +0.122 C 
ATOM      9  C   UNL     1       0.852  -2.782   3.578  0.00  0.00    +0.228 C 
ATOM     10  O   UNL     1      -0.336  -2.650   3.781  0.00  0.00    -0.275 OA
ATOM     11  C   UNL     1       0.783  -1.448   5.975  0.00  0.00    +0.005 A 
ATOM     12  C   UNL     1      -0.074  -0.693   5.205  0.00  0.00    +0.008 A 
ATOM     13  C   UNL     1      -1.200  -0.127   5.774  0.00  0.00    +0.002 A 
ATOM     14  C   UNL     1      -1.464  -0.321   7.118  0.00  0.00    +0.022 A 
ATOM     15  C   UNL     1      -0.609  -1.077   7.894  0.00  0.00    +0.062 A 
ATOM     16  C   UNL     1       0.528  -1.651   7.327  0.00  0.00    +0.057 A 
ATOM     17  N   UNL     1       1.528  -2.445   7.894  0.00  0.00    -0.282 N 
ATOM     18  C   UNL     1       2.466  -2.800   6.994  0.00  0.00    +0.243 C 
ATOM     19  O   UNL     1       3.445  -3.485   7.200  0.00  0.00    -0.273 OA
ATOM     20 CL   UNL     1      -0.950  -1.313   9.579  0.00  0.00    -0.082 Cl
ATOM     21  H   UNL     1       3.546  -0.770   5.929  0.00  0.00    +0.124 HD
ATOM     22  H   UNL     1       1.546  -2.710   8.827  0.00  0.00    +0.155 HD
ENDROOT
BRANCH   1  23
ATOM     23  C   UNL     1       0.763  -2.041   1.233  0.00  0.00    +0.116 C 
BRANCH  23  24
ATOM     24  C   UNL     1       0.742  -0.511   1.242  0.00  0.00    +0.019 C 
BRANCH  24  26
ATOM     25  C   UNL     1      -0.019   1.526   0.010  0.00  0.00    +0.004 C 
ATOM     26  C   UNL     1       0.002  -0.004   0.002  0.00  0.00    -0.002 C 
ENDBRANCH  24  26
ENDBRANCH  23  24
ENDBRANCH   1  23
BRANCH   5  27
ATOM     27  C   UNL     1       4.890  -1.400   3.460  0.00  0.00    +0.056 C 
BRANCH  27  28
ATOM     28  C   UNL     1       5.822  -0.449   4.165  0.00  0.00    -0.021 A 
ATOM     29  C   UNL     1       5.589   0.846   4.433  0.00  0.00    +0.087 A 
ATOM     30  N   UNL     1       6.663   1.388   5.085  0.00  0.00    -0.360 N 
ATOM     31  H   UNL     1       6.728   2.309   5.381  0.00  0.00    +0.165 HD
ATOM     32  C   UNL     1       7.638   0.431   5.256  0.00  0.00    +0.047 A 
ATOM     33  C   UNL     1       7.152  -0.763   4.693  0.00  0.00    +0.003 A 
ATOM     34  C   UNL     1       7.935  -1.918   4.726  0.00  0.00    +0.010 A 
ATOM     35  C   UNL     1       9.170  -1.884   5.309  0.00  0.00    +0.001 A 
ATOM     36  C   UNL     1       9.653  -0.710   5.870  0.00  0.00    +0.002 A 
ATOM     37  C   UNL     1       8.901   0.445   5.840  0.00  0.00    +0.026 A 
ENDBRANCH  27  28
ENDBRANCH   5  27
TORSDOF 5
