REMARK  Name = ZINC04543373
REMARK  4 active torsions:
REMARK  status: ('A' for Active; 'I' for Inactive)
REMARK    1  A    between atoms: C_1  and  C_2
REMARK    2  A    between atoms: C_14  and  C_17
REMARK    3  A    between atoms: C_17  and  C_25
REMARK    4  A    between atoms: C_18  and  C_19
REMARK                            x       y       z     vdW  Elec       q    Type
REMARK                         _______ _______ _______ _____ _____    ______ ____
ROOT
ATOM      1  C   UNL     1      -1.577   1.415   0.801  0.00  0.00    +0.008 C 
ATOM      2  C   UNL     1      -0.602   0.975  -0.292  0.00  0.00    -0.009 C 
ATOM      3  C   UNL     1       0.678   1.812  -0.207  0.00  0.00    +0.008 C 
ATOM      4  C   UNL     1       1.749   1.219  -1.123  0.00  0.00    +0.037 C 
ATOM      5  C   UNL     1       1.163   1.049  -2.520  0.00  0.00    -0.023 A 
ATOM      6  C   UNL     1      -0.174   1.042  -2.714  0.00  0.00    -0.004 A 
ATOM      7  S   UNL     1      -0.382   0.822  -4.462  0.00  0.00    -0.078 S 
ATOM      8  C   UNL     1       1.266   0.740  -4.919  0.00  0.00    +0.080 A 
ATOM      9  C   UNL     1       1.974   0.888  -3.717  0.00  0.00    +0.068 A 
ATOM     10  C   UNL     1       3.453   0.857  -3.785  0.00  0.00    +0.248 C 
ATOM     11  O   UNL     1       4.134   0.856  -2.776  0.00  0.00    -0.270 OA
ATOM     12  N   UNL     1       4.014   0.830  -5.012  0.00  0.00    -0.289 N 
ATOM     13  C   UNL     1       3.268   1.063  -6.244  0.00  0.00    +0.186 C 
ATOM     14  N   UNL     1       1.883   0.570  -6.132  0.00  0.00    -0.316 N 
ATOM     15  C   UNL     1      -1.240   1.188  -1.673  0.00  0.00    +0.046 C 
ATOM     16  H   UNL     1       4.964   0.646  -5.078  0.00  0.00    +0.151 HD
ATOM     17  H   UNL     1       1.431   0.147  -6.878  0.00  0.00    +0.149 HD
ENDROOT
BRANCH  13  18
ATOM     18  C   UNL     1       3.243   2.542  -6.534  0.00  0.00    -0.034 C 
ATOM     19  C   UNL     1       3.764   3.005  -7.662  0.00  0.00    +0.010 C 
ATOM     20  C   UNL     1       2.626   3.494  -5.542  0.00  0.00    +0.042 C 
BRANCH  19  21
ATOM     21  C   UNL     1       3.891   4.462  -7.874  0.00  0.00    -0.025 A 
ATOM     22  C   UNL     1       3.617   5.015  -9.125  0.00  0.00    +0.008 A 
ATOM     23  C   UNL     1       3.731   6.377  -9.315  0.00  0.00    +0.001 A 
ATOM     24  C   UNL     1       4.128   7.192  -8.270  0.00  0.00    +0.000 A 
ATOM     25  C   UNL     1       4.408   6.650  -7.029  0.00  0.00    +0.001 A 
ATOM     26  C   UNL     1       4.291   5.291  -6.824  0.00  0.00    +0.008 A 
ENDBRANCH  19  21
ENDBRANCH  13  18
TORSDOF 2
