REMARK  Name = ZINC47451440
REMARK  8 active torsions:
REMARK  status: ('A' for Active; 'I' for Inactive)
REMARK    1  A    between atoms: C_1  and  C_2
REMARK    2  A    between atoms: C_2  and  C_3
REMARK    3  A    between atoms: C_2  and  C_4
REMARK    4  A    between atoms: C_2  and  C_5
REMARK    5  A    between atoms: N_7  and  C_8
REMARK    6  A    between atoms: C_8  and  C_9
REMARK    7  A    between atoms: N_11  and  N_12
REMARK    8  A    between atoms: C_13  and  C_15
REMARK                            x       y       z     vdW  Elec       q    Type
REMARK                         _______ _______ _______ _____ _____    ______ ____
ROOT
ATOM      1  C   UNL     1       1.553  -3.792  -2.673  0.00  0.00    +0.246 C 
ATOM      2  O   UNL     1       1.044  -4.410  -1.762  0.00  0.00    -0.273 OA
ATOM      3  N   UNL     1       2.136  -4.452  -3.693  0.00  0.00    -0.233 N 
ATOM      4  H   UNL     1       2.542  -3.957  -4.422  0.00  0.00    +0.173 HD
ENDROOT
BRANCH   3   5
ATOM      5  N   UNL     1       2.155  -5.853  -3.701  0.00  0.00    -0.234 N 
ATOM      6  C   UNL     1       2.738  -6.513  -4.721  0.00  0.00    +0.232 C 
ATOM      7  O   UNL     1       3.246  -5.895  -5.632  0.00  0.00    -0.274 OA
ATOM      8  H   UNL     1       1.748  -6.347  -2.972  0.00  0.00    +0.173 HD
BRANCH   6   9
ATOM      9  C   UNL     1       2.758  -8.020  -4.729  0.00  0.00    +0.076 C 
ATOM     10  C   UNL     1       3.563  -8.544  -3.522  0.00  0.00    +0.013 C 
ATOM     11  C   UNL     1       4.307  -9.787  -4.072  0.00  0.00    +0.001 C 
ATOM     12  C   UNL     1       4.692  -9.347  -5.506  0.00  0.00    +0.001 C 
ATOM     13  C   UNL     1       3.476  -8.530  -5.991  0.00  0.00    +0.013 C 
ENDBRANCH   6   9
ENDBRANCH   3   5
BRANCH   1  14
ATOM     14  C   UNL     1       1.532  -2.285  -2.665  0.00  0.00    +0.201 C 
BRANCH  14  17
ATOM     15  C   UNL     1       0.707  -0.490  -1.238  0.00  0.00    +0.219 C 
ATOM     16  O   UNL     1       1.150   0.308  -2.036  0.00  0.00    -0.275 OA
ATOM     17  N   UNL     1       0.847  -1.812  -1.460  0.00  0.00    -0.306 N 
ATOM     18  H   UNL     1       0.493  -2.451  -0.821  0.00  0.00    +0.149 HD
BRANCH  15  20
ATOM     19  C   UNL     1      -0.019   1.526   0.010  0.00  0.00    +0.020 C 
ATOM     20  C   UNL     1       0.002  -0.004   0.002  0.00  0.00    +0.039 C 
ATOM     21  C   UNL     1       0.742  -0.511   1.242  0.00  0.00    +0.020 C 
ATOM     22  C   UNL     1      -1.433  -0.534   0.013  0.00  0.00    +0.020 C 
ENDBRANCH  15  20
ENDBRANCH  14  17
ENDBRANCH   1  14
TORSDOF 5
