REMARK  Name = ZINC42946595
REMARK  7 active torsions:
REMARK  status: ('A' for Active; 'I' for Inactive)
REMARK    1  A    between atoms: C_6  and  C_7
REMARK    2  A    between atoms: C_7  and  C_9
REMARK    3  A    between atoms: C_7  and  N_11
REMARK    4  A    between atoms: C_9  and  N_10
REMARK    5  A    between atoms: N_11  and  C_12
REMARK    6  A    between atoms: N_11  and  C_16
REMARK    7  A    between atoms: C_12  and  C_13
REMARK                            x       y       z     vdW  Elec       q    Type
REMARK                         _______ _______ _______ _____ _____    ______ ____
ROOT
ATOM      1  C   UNL     1      -1.392  -1.232  -0.347  0.00  0.00    +0.070 C 
ENDROOT
BRANCH   1   7
ATOM      2  C   UNL     1      -1.290  -2.361  -2.579  0.00  0.00    +0.006 A 
ATOM      3  C   UNL     1      -1.886  -3.048  -3.620  0.00  0.00    +0.020 A 
ATOM      4  C   UNL     1      -3.234  -3.353  -3.566  0.00  0.00    +0.041 A 
ATOM      5  C   UNL     1      -3.985  -2.972  -2.469  0.00  0.00    +0.020 A 
ATOM      6  C   UNL     1      -3.389  -2.285  -1.428  0.00  0.00    +0.006 A 
ATOM      7  C   UNL     1      -2.042  -1.980  -1.483  0.00  0.00    -0.032 A 
ATOM      8 CL   UNL     1      -3.982  -4.215  -4.874  0.00  0.00    -0.084 Cl
ENDBRANCH   1   7
BRANCH   1   9
ATOM      9  C   UNL     1      -2.223   0.008  -0.012  0.00  0.00    -0.063 C 
BRANCH   9  10
ATOM     10  N   UNL     1      -1.634   0.693   1.147  0.00  0.00    +0.379 N 
ATOM     11  H   UNL     1      -2.153   1.537   1.337  0.00  0.00    -0.090 HD
ATOM     12  H   UNL     1      -1.673   0.086   1.952  0.00  0.00    -0.090 HD
ATOM     13  H   UNL     1      -0.673   0.926   0.947  0.00  0.00    -0.090 HD
ENDBRANCH   9  10
ENDBRANCH   1   9
BRANCH   1  14
ATOM     14  N   UNL     1      -1.314  -2.104   0.832  0.00  0.00    -0.286 NA
BRANCH  14  15
ATOM     15  C   UNL     1      -2.619  -2.711   1.125  0.00  0.00    +0.058 C 
ATOM     16  C   UNL     1      -3.587  -1.642   1.676  0.00  0.00    +0.019 C 
ATOM     17  C   UNL     1      -4.409  -2.393   2.753  0.00  0.00    +0.002 C 
ATOM     18  C   UNL     1      -3.352  -3.319   3.405  0.00  0.00    +0.002 C 
ATOM     19  C   UNL     1      -2.470  -3.777   2.225  0.00  0.00    +0.019 C 
ENDBRANCH  14  15
BRANCH  14  20
ATOM     20  C   UNL     1      -0.282  -3.134   0.658  0.00  0.00    +0.181 C 
BRANCH  20  21
ATOM     21  C   UNL     1       1.079  -2.522   0.867  0.00  0.00    +0.225 C 
ATOM     22  O   UNL     1       1.177  -1.370   1.233  0.00  0.00    -0.275 OA
ATOM     23  N   UNL     1       2.189  -3.255   0.646  0.00  0.00    -0.328 N 
ATOM     24  H   UNL     1       2.111  -4.176   0.353  0.00  0.00    +0.145 HD
ATOM     25  H   UNL     1       3.065  -2.860   0.780  0.00  0.00    +0.145 HD
ENDBRANCH  20  21
ENDBRANCH  14  20
ENDBRANCH   1  14
TORSDOF 7
