REMARK  Name = ZINC00647912
REMARK  12 active torsions:
REMARK  status: ('A' for Active; 'I' for Inactive)
REMARK    1  A    between atoms: C_1  and  C_2
REMARK    2  A    between atoms: C_3  and  C_36
REMARK    3  A    between atoms: C_4  and  C_19
REMARK    4  A    between atoms: C_5  and  C_18
REMARK    5  A    between atoms: C_6  and  C_17
REMARK    6  A    between atoms: C_7  and  C_8
REMARK    7  A    between atoms: C_8  and  O_9
REMARK    8  A    between atoms: O_9  and  C_10
REMARK    9  A    between atoms: C_21  and  C_34
REMARK   10  A    between atoms: C_22  and  N_33
REMARK   11  A    between atoms: C_29  and  C_31
REMARK   12  A    between atoms: C_29  and  C_32
REMARK                            x       y       z     vdW  Elec       q    Type
REMARK                         _______ _______ _______ _____ _____    ______ ____
ROOT
ATOM      1  C   UNL     1      -2.778   4.945   2.104  0.00  0.00    +0.044 C 
ATOM      2  C   UNL     1      -2.049   3.634   2.250  0.00  0.00    -0.041 A 
ATOM      3  C   UNL     1      -1.612   2.957   1.127  0.00  0.00    -0.043 A 
ATOM      4  C   UNL     1      -0.944   1.754   1.261  0.00  0.00    -0.028 A 
ATOM      5  C   UNL     1      -0.716   1.227   2.519  0.00  0.00    -0.043 A 
ATOM      6  C   UNL     1      -1.147   1.907   3.642  0.00  0.00    -0.041 A 
ATOM      7  C   UNL     1      -1.816   3.109   3.508  0.00  0.00    -0.004 A 
ATOM      8  C   UNL     1      -0.894   1.335   5.013  0.00  0.00    +0.044 C 
ATOM      9  C   UNL     1       0.008  -0.087   2.665  0.00  0.00    +0.044 C 
ATOM     10  C   UNL     1      -1.866   3.529  -0.244  0.00  0.00    +0.044 C 
ENDROOT
BRANCH   4  11
ATOM     11  C   UNL     1      -0.468   1.016   0.037  0.00  0.00    +0.101 C 
ATOM     12  C   UNL     1      -1.629   0.790  -0.891  0.00  0.00    +0.098 C 
ATOM     13  C   UNL     1      -1.794   1.572  -1.986  0.00  0.00    +0.198 C 
ATOM     14  O   UNL     1      -0.936   2.565  -2.271  0.00  0.00    -0.445 OA
ATOM     15  C   UNL     1       0.309   2.541  -1.760  0.00  0.00    +0.115 C 
ATOM     16  C   UNL     1       0.599   1.829  -0.655  0.00  0.00    +0.046 C 
ATOM     17  C   UNL     1       1.898   1.819  -0.111  0.00  0.00    +0.164 C 
ATOM     18  O   UNL     1       2.125   1.151   0.878  0.00  0.00    -0.292 OA
ATOM     19  C   UNL     1       3.009   2.620  -0.732  0.00  0.00    +0.086 C 
ATOM     20  C   UNL     1       2.405   3.837  -1.442  0.00  0.00    -0.021 C 
ATOM     21  C   UNL     1       1.379   3.343  -2.462  0.00  0.00    +0.081 C 
ATOM     22  C   UNL     1       1.718   4.741  -0.417  0.00  0.00    +0.012 C 
ATOM     23  C   UNL     1       3.512   4.617  -2.155  0.00  0.00    +0.012 C 
BRANCH  13  24
ATOM     24  N   UNL     1      -2.860   1.345  -2.820  0.00  0.00    -0.328 N 
ATOM     25  H   UNL     1      -2.987   1.899  -3.606  0.00  0.00    +0.145 HD
ATOM     26  H   UNL     1      -3.486   0.630  -2.624  0.00  0.00    +0.145 HD
ENDBRANCH  13  24
BRANCH  12  27
ATOM     27  C   UNL     1      -2.566  -0.257  -0.617  0.00  0.00    +0.101 C 
ATOM     28  N   UNL     1      -3.310  -1.088  -0.400  0.00  0.00    -0.191 NA
ENDBRANCH  12  27
ENDBRANCH   4  11
BRANCH   7  29
ATOM     29  C   UNL     1      -2.292   3.848   4.732  0.00  0.00    +0.265 C 
BRANCH  29  30
ATOM     30  O   UNL     1      -3.616   3.421   5.061  0.00  0.00    -0.487 OA
BRANCH  30  31
ATOM     31  C   UNL     1      -4.197   3.994   6.148  0.00  0.00    +0.121 A 
ATOM     32  C   UNL     1      -3.504   4.943   6.886  0.00  0.00    +0.048 A 
ATOM     33  C   UNL     1      -4.098   5.529   7.987  0.00  0.00    +0.042 A 
ATOM     34  C   UNL     1      -5.380   5.161   8.361  0.00  0.00    +0.124 A 
ATOM     35  C   UNL     1      -6.070   4.210   7.629  0.00  0.00    +0.042 A 
ATOM     36  C   UNL     1      -5.481   3.627   6.524  0.00  0.00    +0.048 A 
ATOM     37  F   UNL     1      -5.957   5.731   9.441  0.00  0.00    -0.205 F 
ENDBRANCH  30  31
ENDBRANCH  29  30
ENDBRANCH   7  29
TORSDOF 6
