REMARK  Name = ZINC20712980
REMARK  4 active torsions:
REMARK  status: ('A' for Active; 'I' for Inactive)
REMARK    1  A    between atoms: C_4  and  O_7
REMARK    2  A    between atoms: O_7  and  C_8
REMARK    3  A    between atoms: C_21  and  C_24
REMARK    4  A    between atoms: C_29  and  N_30
REMARK                            x       y       z     vdW  Elec       q    Type
REMARK                         _______ _______ _______ _____ _____    ______ ____
ROOT
ATOM      1  C   UNL     1      -1.173   3.403   0.131  0.00  0.00    +0.129 A 
ATOM      2  C   UNL     1       0.040   4.075   0.127  0.00  0.00    +0.048 A 
ATOM      3  C   UNL     1       0.070   5.450   0.233  0.00  0.00    +0.027 A 
ATOM      4  C   UNL     1      -1.112   6.173   0.344  0.00  0.00    +0.032 A 
ATOM      5  C   UNL     1      -2.333   5.489   0.362  0.00  0.00    -0.016 A 
ATOM      6  C   UNL     1      -2.357   4.116   0.243  0.00  0.00    +0.052 A 
ATOM      7  C   UNL     1      -3.563   6.293   0.527  0.00  0.00    +0.049 C 
ATOM      8  C   UNL     1      -4.881   5.824   0.029  0.00  0.00    -0.023 C 
ATOM      9  C   UNL     1      -5.605   6.882  -0.315  0.00  0.00    -0.030 C 
ATOM     10  C   UNL     1      -4.796   8.162  -0.101  0.00  0.00    +0.033 C 
ATOM     11  C   UNL     1      -3.357   7.643  -0.224  0.00  0.00    +0.029 C 
ATOM     12  C   UNL     1      -2.270   8.373   0.544  0.00  0.00    +0.107 C 
ATOM     13  N   UNL     1      -1.056   7.572   0.414  0.00  0.00    -0.336 N 
ATOM     14  H   UNL     1      -0.074   8.066   0.368  0.00  0.00    +0.147 HD
ENDROOT
BRANCH  12  15
ATOM     15  C   UNL     1      -2.641   8.476   2.001  0.00  0.00    +0.003 A 
ATOM     16  C   UNL     1      -2.098   7.595   2.917  0.00  0.00    +0.008 A 
ATOM     17  C   UNL     1      -2.435   7.693   4.254  0.00  0.00    +0.000 A 
ATOM     18  C   UNL     1      -3.324   8.665   4.673  0.00  0.00    +0.002 A 
ATOM     19  C   UNL     1      -3.870   9.543   3.757  0.00  0.00    +0.033 A 
ATOM     20  C   UNL     1      -3.529   9.449   2.420  0.00  0.00    +0.131 A 
BRANCH  20  21
ATOM     21  N   UNL     1      -4.115  10.389   1.438  0.00  0.00    +0.057 N 
ATOM     22  O   UNL     1      -4.898  11.246   1.808  0.00  0.00    -0.126 OA
ATOM     23  O   UNL     1      -3.815  10.305   0.261  0.00  0.00    -0.126 OA
ENDBRANCH  20  21
ENDBRANCH  12  15
BRANCH   1  24
ATOM     24  O   UNL     1      -1.202   2.048   0.019  0.00  0.00    -0.456 OA
BRANCH  24  28
ATOM     25  C   UNL     1       2.387   0.015   0.065  0.00  0.00    +0.000 A 
ATOM     26  C   UNL     1       1.949   0.668   1.202  0.00  0.00    +0.004 A 
ATOM     27  C   UNL     1       0.749   1.351   1.189  0.00  0.00    +0.046 A 
ATOM     28  C   UNL     1      -0.018   1.381   0.033  0.00  0.00    +0.128 A 
ATOM     29  C   UNL     1       0.424   0.726  -1.107  0.00  0.00    +0.046 A 
ATOM     30  C   UNL     1       1.625   0.044  -1.088  0.00  0.00    +0.004 A 
ENDBRANCH  24  28
ENDBRANCH   1  24
TORSDOF 4
