REMARK  Name = ZINC39918019
REMARK  7 active torsions:
REMARK  status: ('A' for Active; 'I' for Inactive)
REMARK    1  A    between atoms: C_1  and  C_2
REMARK    2  A    between atoms: C_6  and  N_26
REMARK    3  A    between atoms: C_7  and  N_8
REMARK    4  A    between atoms: C_9  and  C_11
REMARK    5  A    between atoms: N_16  and  C_18
REMARK    6  A    between atoms: C_23  and  O_24
REMARK    7  A    between atoms: O_24  and  C_25
REMARK                            x       y       z     vdW  Elec       q    Type
REMARK                         _______ _______ _______ _____ _____    ______ ____
ROOT
ATOM      1  N   UNL     1      -0.198  -0.037   2.421  0.00  0.00    -0.283 N 
ATOM      2  C   UNL     1      -0.389  -0.727   3.563  0.00  0.00    +0.222 C 
ATOM      3  O   UNL     1      -0.555  -1.928   3.526  0.00  0.00    -0.275 OA
ATOM      4  H   UNL     1      -0.113   0.929   2.447  0.00  0.00    +0.155 HD
ENDROOT
BRANCH   1  11
ATOM      5  C   UNL     1       1.721  -2.121   2.155  0.00  0.00    +0.046 C 
ATOM      6  C   UNL     1       0.799  -1.737   1.026  0.00  0.00    -0.027 A 
ATOM      7  C   UNL     1       0.867  -2.408  -0.180  0.00  0.00    +0.005 A 
ATOM      8  C   UNL     1       0.021  -2.057  -1.216  0.00  0.00    +0.003 A 
ATOM      9  C   UNL     1      -0.895  -1.034  -1.049  0.00  0.00    +0.034 A 
ATOM     10  C   UNL     1      -0.968  -0.360   0.155  0.00  0.00    +0.148 A 
ATOM     11  C   UNL     1      -0.123  -0.714   1.199  0.00  0.00    +0.067 A 
BRANCH  10  12
ATOM     12  N   UNL     1      -1.948   0.734   0.333  0.00  0.00    +0.058 N 
ATOM     13  O   UNL     1      -2.751   0.975  -0.539  0.00  0.00    -0.126 OA
ATOM     14  O   UNL     1      -1.946   1.389   1.349  0.00  0.00    -0.126 OA
ENDBRANCH  10  12
ENDBRANCH   1  11
BRANCH   2  15
ATOM     15  C   UNL     1      -0.394  -0.006   4.887  0.00  0.00    +0.102 C 
ATOM     16  C   UNL     1      -1.582   0.980   4.975  0.00  0.00    +0.110 C 
ATOM     17  C   UNL     1      -2.678   0.181   5.647  0.00  0.00    +0.221 C 
ATOM     18  O   UNL     1      -3.852   0.483   5.655  0.00  0.00    -0.275 OA
ATOM     19  N   UNL     1      -2.160  -0.912   6.232  0.00  0.00    -0.267 N 
ATOM     20  C   UNL     1      -0.705  -0.980   6.045  0.00  0.00    +0.127 C 
BRANCH  19  21
ATOM     21  C   UNL     1      -2.912  -1.866   6.932  0.00  0.00    +0.078 A 
ATOM     22  C   UNL     1      -3.439  -2.962   6.265  0.00  0.00    +0.027 A 
ATOM     23  C   UNL     1      -4.180  -3.901   6.958  0.00  0.00    +0.002 A 
ATOM     24  C   UNL     1      -4.398  -3.751   8.315  0.00  0.00    +0.004 A 
ATOM     25  C   UNL     1      -3.876  -2.661   8.986  0.00  0.00    +0.047 A 
ATOM     26  C   UNL     1      -3.127  -1.718   8.301  0.00  0.00    +0.141 A 
BRANCH  26  27
ATOM     27  O   UNL     1      -2.607  -0.649   8.961  0.00  0.00    -0.493 OA
ATOM     28  C   UNL     1      -2.868  -0.563  10.363  0.00  0.00    +0.277 C 
ENDBRANCH  26  27
ENDBRANCH  19  21
ENDBRANCH   2  15
TORSDOF 5
