REMARK  Name = ZINC65474326
REMARK  5 active torsions:
REMARK  status: ('A' for Active; 'I' for Inactive)
REMARK    1  A    between atoms: C_1  and  C_2
REMARK    2  A    between atoms: C_5  and  C_27
REMARK    3  A    between atoms: N_13  and  C_14
REMARK    4  A    between atoms: C_14  and  C_15
REMARK    5  A    between atoms: N_17  and  C_18
REMARK                            x       y       z     vdW  Elec       q    Type
REMARK                         _______ _______ _______ _____ _____    ______ ____
ROOT
ATOM      1  C   UNL     1      -0.066   0.801  -0.095  0.00  0.00    +0.028 C 
ATOM      2  C   UNL     1       0.250  -0.664   0.210  0.00  0.00    +0.072 C 
ATOM      3  C   UNL     1       1.096  -1.260  -0.923  0.00  0.00    +0.039 C 
ATOM      4  C   UNL     1       1.341  -2.740  -0.631  0.00  0.00    +0.108 C 
ATOM      5  C   UNL     1       1.878  -2.921   0.764  0.00  0.00    -0.014 A 
ATOM      6  C   UNL     1       2.558  -4.087   1.074  0.00  0.00    +0.006 A 
ATOM      7  C   UNL     1       3.061  -4.283   2.346  0.00  0.00    +0.000 A 
ATOM      8  C   UNL     1       2.888  -3.315   3.318  0.00  0.00    +0.002 A 
ATOM      9  C   UNL     1       2.213  -2.150   3.017  0.00  0.00    +0.023 A 
ATOM     10  C   UNL     1       1.706  -1.949   1.738  0.00  0.00    +0.034 A 
ATOM     11  N   UNL     1       1.031  -0.757   1.451  0.00  0.00    -0.318 N 
ENDROOT
BRANCH   4  12
ATOM     12  C   UNL     1       2.339  -3.285  -1.620  0.00  0.00    +0.218 C 
ATOM     13  O   UNL     1       3.170  -2.549  -2.110  0.00  0.00    -0.275 OA
ATOM     14  N   UNL     1       2.309  -4.589  -1.959  0.00  0.00    -0.329 N 
ATOM     15  H   UNL     1       1.606  -5.163  -1.618  0.00  0.00    +0.145 HD
ATOM     16  H   UNL     1       2.991  -4.953  -2.544  0.00  0.00    +0.145 HD
ENDBRANCH   4  12
BRANCH  11  17
ATOM     17  C   UNL     1       1.102   0.379   2.373  0.00  0.00    +0.201 C 
BRANCH  17  18
ATOM     18  C   UNL     1      -0.021   0.285   3.374  0.00  0.00    +0.231 C 
ATOM     19  O   UNL     1      -0.803  -0.640   3.323  0.00  0.00    -0.274 OA
ATOM     20  N   UNL     1      -0.155   1.229   4.326  0.00  0.00    -0.303 N 
ATOM     21  H   UNL     1       0.471   1.969   4.367  0.00  0.00    +0.149 HD
BRANCH  20  22
ATOM     22  C   UNL     1      -1.246   1.138   5.300  0.00  0.00    +0.159 C 
ATOM     23  C   UNL     1      -1.423   2.486   6.002  0.00  0.00    +0.032 C 
ATOM     24  C   UNL     1      -0.083   3.175   6.188  0.00  0.00    +0.004 C 
ATOM     25  C   UNL     1       0.845   2.459   7.153  0.00  0.00    +0.019 C 
ATOM     26  C   UNL     1       1.288   1.110   6.584  0.00  0.00    +0.104 C 
ATOM     27  N   UNL     1       0.282   0.096   6.938  0.00  0.00    -0.314 N 
ATOM     28  C   UNL     1      -0.914   0.089   6.340  0.00  0.00    +0.233 C 
ATOM     29  O   UNL     1      -1.736  -0.753   6.633  0.00  0.00    -0.274 OA
ATOM     30  H   UNL     1       0.488  -0.574   7.608  0.00  0.00    +0.149 HD
ENDBRANCH  20  22
ENDBRANCH  17  18
ENDBRANCH  11  17
TORSDOF 4
