REMARK  Name = ZINC12517060
REMARK  7 active torsions:
REMARK  status: ('A' for Active; 'I' for Inactive)
REMARK    1  A    between atoms: C_1  and  C_2
REMARK    2  A    between atoms: C_2  and  C_3
REMARK    3  A    between atoms: C_3  and  C_5
REMARK    4  A    between atoms: C_3  and  N_14
REMARK    5  A    between atoms: C_10  and  C_13
REMARK    6  A    between atoms: N_14  and  C_15
REMARK    7  A    between atoms: C_24  and  C_27
REMARK                            x       y       z     vdW  Elec       q    Type
REMARK                         _______ _______ _______ _____ _____    ______ ____
ROOT
ATOM      1  N   UNL     1      -4.802   1.753   0.035  0.00  0.00    -0.333 N 
ATOM      2  H   UNL     1      -4.774   0.853  -0.325  0.00  0.00    +0.147 HD
ENDROOT
BRANCH   1   3
ATOM      3  C   UNL     1      -5.998   2.261   0.556  0.00  0.00    +0.030 A 
ATOM      4  C   UNL     1      -6.038   3.550   1.071  0.00  0.00    +0.026 A 
ATOM      5  C   UNL     1      -7.217   4.056   1.586  0.00  0.00    +0.049 A 
ATOM      6  C   UNL     1      -8.361   3.277   1.589  0.00  0.00    +0.143 A 
ATOM      7  C   UNL     1      -8.324   1.983   1.073  0.00  0.00    +0.077 A 
ATOM      8  C   UNL     1      -7.144   1.478   0.552  0.00  0.00    +0.050 A 
ATOM      9  N   UNL     1      -9.491   1.206   1.084  0.00  0.00    -0.279 N 
ATOM     10  C   UNL     1     -10.680   1.813   1.293  0.00  0.00    +0.258 C 
ATOM     11  O   UNL     1     -11.699   1.157   1.336  0.00  0.00    -0.271 OA
ATOM     12  C   UNL     1     -10.734   3.309   1.470  0.00  0.00    +0.256 C 
ATOM     13  O   UNL     1      -9.529   3.764   2.091  0.00  0.00    -0.478 OA
ATOM     14  C   UNL     1     -10.887   3.979   0.103  0.00  0.00    +0.062 C 
ATOM     15  H   UNL     1      -9.446   0.247   0.945  0.00  0.00    +0.155 HD
ENDBRANCH   1   3
BRANCH   1  16
ATOM     16  C   UNL     1      -3.594   2.581   0.034  0.00  0.00    +0.157 C 
BRANCH  16  17
ATOM     17  C   UNL     1      -2.376   1.692   0.023  0.00  0.00    +0.239 C 
ATOM     18  O   UNL     1      -2.506   0.487   0.017  0.00  0.00    -0.273 OA
ATOM     19  N   UNL     1      -1.144   2.238   0.020  0.00  0.00    -0.266 N 
ATOM     20  C   UNL     1      -0.017   1.416   0.010  0.00  0.00    +0.168 A 
ATOM     21  C   UNL     1       0.002  -0.004   0.002  0.00  0.00    +0.091 A 
ATOM     22  C   UNL     1       1.319  -0.312  -0.012  0.00  0.00    +0.136 A 
ATOM     23  O   UNL     1       1.985   0.851  -0.012  0.00  0.00    -0.358 OA
ATOM     24  N   UNL     1       1.233   1.798  -0.000  0.00  0.00    -0.063 NA
ATOM     25  C   UNL     1       1.920  -1.694  -0.026  0.00  0.00    +0.089 C 
ATOM     26  H   UNL     1      -1.041   3.203   0.025  0.00  0.00    +0.156 HD
ENDBRANCH  16  17
BRANCH  16  28
ATOM     27  C   UNL     1      -4.754   4.458  -1.138  0.00  0.00    +0.006 C 
ATOM     28  C   UNL     1      -3.587   3.471  -1.211  0.00  0.00    +0.028 C 
ENDBRANCH  16  28
ENDBRANCH   1  16
TORSDOF 4
