REMARK  Name = ZINC36790139
REMARK  8 active torsions:
REMARK  status: ('A' for Active; 'I' for Inactive)
REMARK    1  A    between atoms: C_1  and  C_2
REMARK    2  A    between atoms: C_2  and  C_3
REMARK    3  A    between atoms: C_3  and  C_4
REMARK    4  A    between atoms: C_4  and  C_6
REMARK    5  A    between atoms: C_4  and  N_7
REMARK    6  A    between atoms: N_7  and  C_8
REMARK    7  A    between atoms: N_7  and  C_9
REMARK    8  A    between atoms: C_14  and  N_15
REMARK                            x       y       z     vdW  Elec       q    Type
REMARK                         _______ _______ _______ _____ _____    ______ ____
ROOT
ATOM      1  C   UNL     1       0.347  -3.341   1.204  0.00  0.00    +0.053 A 
ATOM      2  C   UNL     1       1.598  -2.743   1.247  0.00  0.00    +0.052 A 
ATOM      3  C   UNL     1       2.740  -3.526   1.204  0.00  0.00    +0.078 A 
ATOM      4  C   UNL     1       2.634  -4.913   1.116  0.00  0.00    +0.144 A 
ATOM      5  C   UNL     1       1.386  -5.511   1.073  0.00  0.00    +0.072 A 
ATOM      6  C   UNL     1       0.241  -4.729   1.122  0.00  0.00    +0.049 A 
ATOM      7  O   UNL     1       3.765  -5.669   1.072  0.00  0.00    -0.481 OA
ATOM      8  C   UNL     1       4.898  -5.093   0.418  0.00  0.00    +0.325 C 
ATOM      9  C   UNL     1       5.088  -3.674   0.890  0.00  0.00    +0.255 C 
ATOM     10  O   UNL     1       6.202  -3.196   0.949  0.00  0.00    -0.272 OA
ATOM     11  N   UNL     1       4.014  -2.937   1.248  0.00  0.00    -0.280 N 
ATOM     12  H   UNL     1       4.121  -2.016   1.530  0.00  0.00    +0.155 HD
ENDROOT
BRANCH   6  13
ATOM     13  N   UNL     1      -1.023  -5.333   1.085  0.00  0.00    -0.356 N 
ATOM     14  H   UNL     1      -1.823  -4.786   1.115  0.00  0.00    +0.142 HD
ATOM     15  H   UNL     1      -1.097  -6.299   1.028  0.00  0.00    +0.142 HD
ENDBRANCH   6  13
BRANCH   1  16
ATOM     16  N   UNL     1      -0.810  -2.550   1.248  0.00  0.00    -0.329 N 
ATOM     17  C   UNL     1      -1.417  -2.212   2.538  0.00  0.00    +0.129 C 
BRANCH  16  18
ATOM     18  C   UNL     1      -1.413  -2.063   0.004  0.00  0.00    +0.070 C 
ATOM     19  C   UNL     1      -2.844  -2.592  -0.110  0.00  0.00    +0.028 C 
BRANCH  18  20
ATOM     20  C   UNL     1      -1.433  -0.534   0.013  0.00  0.00    +0.022 C 
BRANCH  20  22
ATOM     21  C   UNL     1      -0.019   1.526   0.010  0.00  0.00    +0.004 C 
ATOM     22  C   UNL     1       0.002  -0.004   0.002  0.00  0.00    -0.002 C 
ENDBRANCH  20  22
ENDBRANCH  18  20
ENDBRANCH  16  18
ENDBRANCH   1  16
TORSDOF 5
