REMARK  Name = ZINC13468696
REMARK  8 active torsions:
REMARK  status: ('A' for Active; 'I' for Inactive)
REMARK    1  A    between atoms: C_1  and  C_2
REMARK    2  A    between atoms: C_5  and  O_27
REMARK    3  A    between atoms: C_6  and  C_8
REMARK    4  A    between atoms: C_8  and  C_10
REMARK    5  A    between atoms: C_8  and  N_11
REMARK    6  A    between atoms: C_12  and  C_14
REMARK    7  A    between atoms: C_21  and  C_23
REMARK    8  A    between atoms: O_27  and  C_28
REMARK                            x       y       z     vdW  Elec       q    Type
REMARK                         _______ _______ _______ _____ _____    ______ ____
ROOT
ATOM      1  N   UNL     1      -2.824   1.626  -2.975  0.00  0.00    -0.308 N 
ATOM      2  C   UNL     1      -2.068   1.128  -1.977  0.00  0.00    +0.218 C 
ATOM      3  O   UNL     1      -2.426   0.132  -1.384  0.00  0.00    -0.275 OA
ATOM      4  H   UNL     1      -2.538   2.423  -3.449  0.00  0.00    +0.149 HD
ENDROOT
BRANCH   2   5
ATOM      5  C   UNL     1      -0.778   1.808  -1.597  0.00  0.00    +0.096 C 
ATOM      6  C   UNL     1       0.208   0.789  -0.942  0.00  0.00    +0.025 C 
ATOM      7  C   UNL     1      -0.308   0.776   0.544  0.00  0.00    +0.016 C 
ATOM      8  C   UNL     1      -0.116   2.327   0.720  0.00  0.00    +0.027 C 
ATOM      9  C   UNL     1      -1.003   2.877  -0.442  0.00  0.00    +0.121 C 
ATOM     10  C   UNL     1       1.318   2.474   0.196  0.00  0.00    -0.027 C 
ATOM     11  C   UNL     1       1.504   1.587  -0.762  0.00  0.00    -0.027 C 
BRANCH   9  12
ATOM     12  C   UNL     1      -2.451   2.922  -0.027  0.00  0.00    +0.360 C 
ATOM     13  O   UNL     1      -2.854   2.184   0.841  0.00  0.00    -0.246 OA
ATOM     14  O   UNL     1      -3.293   3.781  -0.622  0.00  0.00    -0.246 OA
ENDBRANCH   9  12
ENDBRANCH   2   5
BRANCH   1  15
ATOM     15  C   UNL     1      -4.078   0.965  -3.345  0.00  0.00    +0.104 C 
ATOM     16  C   UNL     1      -5.215   1.504  -2.474  0.00  0.00    +0.033 C 
BRANCH  15  22
ATOM     17  C   UNL     1      -3.598   3.857  -7.399  0.00  0.00    +0.044 C 
ATOM     18  C   UNL     1      -4.154   2.624  -6.736  0.00  0.00    -0.050 A 
ATOM     19  C   UNL     1      -4.943   1.747  -7.458  0.00  0.00    +0.007 A 
ATOM     20  C   UNL     1      -5.453   0.616  -6.852  0.00  0.00    +0.046 A 
ATOM     21  C   UNL     1      -5.174   0.359  -5.517  0.00  0.00    +0.125 A 
ATOM     22  C   UNL     1      -4.383   1.240  -4.795  0.00  0.00    +0.014 A 
ATOM     23  C   UNL     1      -3.879   2.373  -5.404  0.00  0.00    +0.012 A 
BRANCH  21  24
ATOM     24  O   UNL     1      -5.676  -0.753  -4.918  0.00  0.00    -0.495 OA
ATOM     25  C   UNL     1      -6.482  -1.615  -5.723  0.00  0.00    +0.277 C 
ENDBRANCH  21  24
ENDBRANCH  15  22
ENDBRANCH   1  15
TORSDOF 5
