REMARK  Name = ZINC14944215
REMARK  6 active torsions:
REMARK  status: ('A' for Active; 'I' for Inactive)
REMARK    1  A    between atoms: C_1  and  C_2
REMARK    2  A    between atoms: C_3  and  C_40
REMARK    3  A    between atoms: N_7  and  S_8
REMARK    4  A    between atoms: S_8  and  C_11
REMARK    5  A    between atoms: C_28  and  C_31
REMARK    6  A    between atoms: C_35  and  C_37
REMARK                            x       y       z     vdW  Elec       q    Type
REMARK                         _______ _______ _______ _____ _____    ______ ____
ROOT
ATOM      1  C   UNL     1       2.231  -5.669  -0.162  0.00  0.00    +0.113 A 
ATOM      2  C   UNL     1       2.867  -5.966  -1.354  0.00  0.00    +0.031 A 
ATOM      3  C   UNL     1       3.901  -6.885  -1.369  0.00  0.00    +0.025 A 
ATOM      4  C   UNL     1       4.280  -7.502  -0.192  0.00  0.00    +0.031 A 
ATOM      5  C   UNL     1       3.628  -7.232   1.005  0.00  0.00    -0.021 A 
ATOM      6  C   UNL     1       2.612  -6.290   1.012  0.00  0.00    +0.034 A 
ATOM      7  C   UNL     1       3.973  -7.963   2.265  0.00  0.00    +0.029 C 
ATOM      8  C   UNL     1       3.007  -9.185   2.396  0.00  0.00    -0.003 C 
ATOM      9  C   UNL     1       3.108  -9.901   1.014  0.00  0.00    +0.004 C 
ATOM     10  C   UNL     1       4.529 -10.510   0.994  0.00  0.00    +0.004 C 
ATOM     11  C   UNL     1       5.151 -10.112   2.367  0.00  0.00    -0.005 C 
ATOM     12  C   UNL     1       3.866 -10.139   3.301  0.00  0.00    +0.008 C 
ATOM     13  C   UNL     1       5.375  -8.574   2.287  0.00  0.00    +0.024 C 
ATOM     14  C   UNL     1       6.202  -8.276   1.050  0.00  0.00    +0.105 C 
ATOM     15  N   UNL     1       5.354  -8.405  -0.148  0.00  0.00    -0.336 N 
ATOM     16  H   UNL     1       5.523  -9.060  -0.844  0.00  0.00    +0.147 HD
ENDROOT
BRANCH  14  17
ATOM     17  C   UNL     1       7.349  -9.250   0.965  0.00  0.00    -0.026 A 
ATOM     18  C   UNL     1       7.315 -10.278   0.038  0.00  0.00    +0.005 A 
ATOM     19  C   UNL     1       8.363 -11.177  -0.047  0.00  0.00    +0.001 A 
ATOM     20  C   UNL     1       9.450 -11.055   0.793  0.00  0.00    +0.015 A 
ATOM     21  C   UNL     1       9.492 -10.020   1.730  0.00  0.00    +0.063 A 
ATOM     22  C   UNL     1       8.432  -9.113   1.806  0.00  0.00    +0.020 A 
BRANCH  21  23
ATOM     23  C   UNL     1      10.652  -9.883   2.632  0.00  0.00    +0.387 C 
ATOM     24  O   UNL     1      11.580 -10.677   2.560  0.00  0.00    -0.241 OA
ATOM     25  O   UNL     1      10.685  -8.977   3.452  0.00  0.00    -0.241 OA
ENDBRANCH  21  23
ENDBRANCH  14  17
BRANCH   1  26
ATOM     26  S   UNL     1       0.928  -4.483  -0.140  0.00  0.00    +0.103 S 
ATOM     27  O   UNL     1       0.132  -4.777   1.000  0.00  0.00    -0.146 OA
ATOM     28  O   UNL     1       0.392  -4.445  -1.455  0.00  0.00    -0.146 OA
BRANCH  26  35
ATOM     29  C   UNL     1       0.156   1.656   0.607  0.00  0.00    +0.067 C 
ATOM     30  C   UNL     1       0.174   0.163   0.408  0.00  0.00    +0.055 A 
ATOM     31  C   UNL     1      -0.881  -0.608   0.193  0.00  0.00    +0.125 A 
ATOM     32  O   UNL     1      -0.471  -1.892   0.063  0.00  0.00    -0.427 OA
ATOM     33  C   UNL     1       0.869  -1.935   0.198  0.00  0.00    +0.319 A 
ATOM     34  N   UNL     1       1.302  -0.652   0.412  0.00  0.00    -0.309 N 
ATOM     35  N   UNL     1       1.618  -3.003   0.133  0.00  0.00    -0.073 NA
ATOM     36  C   UNL     1      -2.309  -0.133   0.106  0.00  0.00    +0.088 C 
ATOM     37  H   UNL     1       2.220  -0.366   0.542  0.00  0.00    +0.170 HD
ENDBRANCH  26  35
ENDBRANCH   1  26
TORSDOF 4
