REMARK  Name = ZINC65882880
REMARK  9 active torsions:
REMARK  status: ('A' for Active; 'I' for Inactive)
REMARK    1  A    between atoms: C_1  and  C_2
REMARK    2  A    between atoms: C_2  and  C_3
REMARK    3  A    between atoms: C_2  and  N_21
REMARK    4  A    between atoms: N_5  and  C_6
REMARK    5  A    between atoms: C_9  and  C_12
REMARK    6  A    between atoms: C_14  and  C_17
REMARK    7  A    between atoms: C_17  and  C_18
REMARK    8  A    between atoms: C_17  and  C_19
REMARK    9  A    between atoms: C_17  and  C_20
REMARK                            x       y       z     vdW  Elec       q    Type
REMARK                         _______ _______ _______ _____ _____    ______ ____
ROOT
ATOM      1  C   UNL     1       0.864  -0.701   3.614  0.00  0.00    +0.033 A 
ATOM      2  C   UNL     1       2.014  -1.477   3.527  0.00  0.00    +0.024 A 
ATOM      3  C   UNL     1       2.594  -1.982   4.671  0.00  0.00    +0.013 A 
ATOM      4  C   UNL     1       2.027  -1.714   5.916  0.00  0.00    +0.023 A 
ATOM      5  C   UNL     1       0.873  -0.936   6.001  0.00  0.00    +0.013 A 
ATOM      6  C   UNL     1       0.300  -0.428   4.855  0.00  0.00    +0.024 A 
ENDROOT
BRANCH   4   7
ATOM      7  C   UNL     1       2.649  -2.257   7.148  0.00  0.00    +0.202 A 
ATOM      8  N   UNL     1       2.196  -2.074   8.402  0.00  0.00    -0.191 NA
ATOM      9  C   UNL     1       2.973  -2.684   9.250  0.00  0.00    +0.233 A 
ATOM     10  O   UNL     1       3.959  -3.283   8.569  0.00  0.00    -0.337 OA
ATOM     11  N   UNL     1       3.728  -2.998   7.197  0.00  0.00    -0.056 NA
BRANCH   9  12
ATOM     12  C   UNL     1       2.795  -2.711  10.746  0.00  0.00    +0.041 C 
ATOM     13  C   UNL     1       1.445  -3.344  11.088  0.00  0.00    +0.020 C 
ATOM     14  C   UNL     1       3.919  -3.534  11.379  0.00  0.00    +0.020 C 
ATOM     15  C   UNL     1       2.841  -1.282  11.291  0.00  0.00    +0.020 C 
ENDBRANCH   9  12
ENDBRANCH   4   7
BRANCH   1  18
ATOM     16  C   UNL     1       0.294  -0.913   1.316  0.00  0.00    +0.237 C 
ATOM     17  O   UNL     1       0.890  -1.969   1.277  0.00  0.00    -0.273 OA
ATOM     18  N   UNL     1       0.278  -0.191   2.453  0.00  0.00    -0.284 N 
ATOM     19  H   UNL     1      -0.141   0.684   2.466  0.00  0.00    +0.155 HD
BRANCH  16  21
ATOM     20  C   UNL     1       0.154   0.944  -0.321  0.00  0.00    +0.038 C 
ATOM     21  C   UNL     1      -0.427  -0.410   0.092  0.00  0.00    +0.158 C 
BRANCH  21  22
ATOM     22  N   UNL     1      -0.260  -1.368  -1.003  0.00  0.00    -0.289 N 
ATOM     23  C   UNL     1      -1.171  -1.425  -1.994  0.00  0.00    +0.298 C 
ATOM     24  O   UNL     1      -2.132  -0.681  -1.979  0.00  0.00    -0.253 OA
ATOM     25  N   UNL     1      -1.017  -2.307  -3.001  0.00  0.00    -0.313 N 
ATOM     26  H   UNL     1       0.508  -1.962  -1.015  0.00  0.00    +0.151 HD
ATOM     27  H   UNL     1      -0.250  -2.901  -3.013  0.00  0.00    +0.146 HD
ATOM     28  H   UNL     1      -1.673  -2.348  -3.715  0.00  0.00    +0.146 HD
ENDBRANCH  21  22
ENDBRANCH  16  21
ENDBRANCH   1  18
TORSDOF 5
