REMARK  Name = ZINC40962622
REMARK  8 active torsions:
REMARK  status: ('A' for Active; 'I' for Inactive)
REMARK    1  A    between atoms: C_1  and  C_2
REMARK    2  A    between atoms: C_2  and  O_3
REMARK    3  A    between atoms: O_3  and  C_4
REMARK    4  A    between atoms: C_8  and  C_10
REMARK    5  A    between atoms: C_12  and  C_21
REMARK    6  A    between atoms: C_13  and  C_20
REMARK    7  A    between atoms: N_23  and  C_24
REMARK    8  A    between atoms: C_27  and  C_30
REMARK                            x       y       z     vdW  Elec       q    Type
REMARK                         _______ _______ _______ _____ _____    ______ ____
ROOT
ATOM      1  C   UNL     1      -4.334  -4.352  -0.036  0.00  0.00    +0.177 C 
ATOM      2  C   UNL     1      -4.507  -5.239  -1.240  0.00  0.00    +0.060 C 
ATOM      3  C   UNL     1      -4.522  -6.578  -1.167  0.00  0.00    +0.018 C 
ATOM      4  N   UNL     1      -4.391  -7.247   0.025  0.00  0.00    -0.287 N 
ATOM      5  C   UNL     1      -4.505  -6.503   1.191  0.00  0.00    +0.218 A 
ATOM      6  N   UNL     1      -4.485  -5.147   1.179  0.00  0.00    -0.221 N 
ATOM      7  N   UNL     1      -4.628  -4.736   2.503  0.00  0.00    -0.156 NA
ATOM      8  C   UNL     1      -4.719  -5.824   3.228  0.00  0.00    +0.247 A 
ATOM      9  N   UNL     1      -4.643  -6.893   2.429  0.00  0.00    -0.201 NA
ATOM     10  C   UNL     1      -4.689  -7.375  -2.435  0.00  0.00    +0.061 C 
ATOM     11  H   UNL     1      -4.226  -8.203   0.051  0.00  0.00    +0.155 HD
ENDROOT
BRANCH   1  16
ATOM     12  C   UNL     1      -1.564  -1.783  -0.127  0.00  0.00    +0.121 A 
ATOM     13  C   UNL     1      -0.438  -2.594  -0.113  0.00  0.00    +0.045 A 
ATOM     14  C   UNL     1      -0.578  -3.968  -0.074  0.00  0.00    +0.004 A 
ATOM     15  C   UNL     1      -1.838  -4.535  -0.049  0.00  0.00    +0.006 A 
ATOM     16  C   UNL     1      -2.962  -3.730  -0.063  0.00  0.00    -0.015 A 
ATOM     17  C   UNL     1      -2.827  -2.355  -0.096  0.00  0.00    +0.051 A 
BRANCH  12  18
ATOM     18  O   UNL     1      -1.429  -0.432  -0.164  0.00  0.00    -0.492 OA
BRANCH  18  20
ATOM     19  C   UNL     1      -0.147   1.616  -0.234  0.00  0.00    +0.048 C 
ATOM     20  C   UNL     1      -0.098   0.087  -0.194  0.00  0.00    +0.225 C 
ENDBRANCH  18  20
ENDBRANCH  12  18
ENDBRANCH   1  16
BRANCH   2  21
ATOM     21  C   UNL     1      -4.662  -4.631  -2.509  0.00  0.00    +0.248 C 
ATOM     22  O   UNL     1      -5.744  -4.185  -2.842  0.00  0.00    -0.270 OA
ATOM     23  N   UNL     1      -3.610  -4.547  -3.348  0.00  0.00    -0.282 N 
ATOM     24  H   UNL     1      -2.771  -4.976  -3.119  0.00  0.00    +0.155 HD
BRANCH  23  25
ATOM     25  C   UNL     1      -3.729  -3.840  -4.549  0.00  0.00    +0.034 A 
ATOM     26  C   UNL     1      -4.653  -2.809  -4.661  0.00  0.00    +0.023 A 
ATOM     27  C   UNL     1      -4.768  -2.113  -5.848  0.00  0.00    +0.005 A 
ATOM     28  C   UNL     1      -3.965  -2.442  -6.925  0.00  0.00    -0.050 A 
ATOM     29  C   UNL     1      -3.045  -3.469  -6.817  0.00  0.00    +0.005 A 
ATOM     30  C   UNL     1      -2.921  -4.165  -5.630  0.00  0.00    +0.023 A 
ATOM     31  C   UNL     1      -4.093  -1.681  -8.219  0.00  0.00    +0.044 C 
ENDBRANCH  23  25
ENDBRANCH   2  21
TORSDOF 5
