REMARK  Name = ZINC05649062
REMARK  15 active torsions:
REMARK  status: ('A' for Active; 'I' for Inactive)
REMARK    1  A    between atoms: C_1  and  C_2
REMARK    2  A    between atoms: C_2  and  C_3
REMARK    3  A    between atoms: C_2  and  C_4
REMARK    4  A    between atoms: C_8  and  O_12
REMARK    5  A    between atoms: C_9  and  O_10
REMARK    6  A    between atoms: O_10  and  C_11
REMARK    7  A    between atoms: O_12  and  C_13
REMARK    8  A    between atoms: C_18  and  C_35
REMARK    9  A    between atoms: C_18  and  C_36
REMARK   10  A    between atoms: C_23  and  N_25
REMARK   11  A    between atoms: C_26  and  C_28
REMARK   12  A    between atoms: C_28  and  N_73
REMARK   13  A    between atoms: C_29  and  C_30
REMARK   14  A    between atoms: C_29  and  C_31
REMARK   15  A    between atoms: C_29  and  N_73
REMARK                            x       y       z     vdW  Elec       q    Type
REMARK                         _______ _______ _______ _____ _____    ______ ____
ROOT
ATOM      1  C   UNL     1       2.402  -0.005  -0.051  0.00  0.00    +0.001 A 
ATOM      2  C   UNL     1       1.204  -0.691  -0.026  0.00  0.00    +0.013 A 
ATOM      3  C   UNL     1       0.002  -0.004   0.002  0.00  0.00    -0.015 A 
ATOM      4  C   UNL     1      -0.017   1.384   0.010  0.00  0.00    +0.020 A 
ATOM      5  C   UNL     1       1.184   2.070   0.002  0.00  0.00    +0.166 A 
ATOM      6  C   UNL     1       2.396   1.376  -0.038  0.00  0.00    +0.165 A 
ATOM      7  C   UNL     1      -1.343   2.089   0.052  0.00  0.00    +0.103 C 
ATOM      8  C   UNL     1      -1.320   3.513  -0.431  0.00  0.00    +0.023 C 
ATOM      9  C   UNL     1      -0.888   3.493  -1.906  0.00  0.00    +0.002 C 
ATOM     10  C   UNL     1      -1.914   2.742  -2.748  0.00  0.00    +0.007 C 
ATOM     11  C   UNL     1      -2.130   1.297  -2.245  0.00  0.00    -0.027 C 
ATOM     12  C   UNL     1      -2.407   1.331  -0.781  0.00  0.00    +0.059 C 
ATOM     13  C   UNL     1      -2.506   0.081   0.087  0.00  0.00    +0.206 C 
ATOM     14  C   UNL     1      -1.275  -0.803   0.016  0.00  0.00    +0.144 C 
ATOM     15  O   UNL     1      -2.575   0.690   1.434  0.00  0.00    -0.458 OA
ATOM     16  C   UNL     1      -1.891   1.863   1.448  0.00  0.00    +0.319 C 
ATOM     17  O   UNL     1      -1.739   2.604   2.389  0.00  0.00    -0.250 OA
ATOM     18  C   UNL     1      -3.388   0.756  -2.969  0.00  0.00    +0.011 C 
ATOM     19  C   UNL     1      -0.947   0.446  -2.692  0.00  0.00    +0.011 C 
ENDROOT
BRANCH  14  20
ATOM     20  N   UNL     1      -1.258  -1.682   1.197  0.00  0.00    -0.306 N 
ATOM     21  C   UNL     1      -0.645  -2.880   1.136  0.00  0.00    +0.197 C 
ATOM     22  O   UNL     1      -0.106  -3.235   0.109  0.00  0.00    -0.278 OA
ATOM     23  H   UNL     1      -1.689  -1.398   2.018  0.00  0.00    +0.149 HD
BRANCH  21  24
ATOM     24  C   UNL     1      -0.628  -3.780   2.345  0.00  0.00    +0.015 C 
BRANCH  24  25
ATOM     25  N   UNL     1       0.101  -5.019   2.016  0.00  0.00    +0.386 N 
ATOM     26  H   UNL     1       1.062  -4.784   1.742  0.00  0.00    -0.085 HD
ATOM     27  H   UNL     1      -0.371  -5.492   1.236  0.00  0.00    -0.085 HD
BRANCH  25  28
ATOM     28  C   UNL     1       0.133  -5.920   3.183  0.00  0.00    -0.078 C 
ATOM     29  C   UNL     1      -1.147  -6.757   3.218  0.00  0.00    -0.014 C 
ATOM     30  C   UNL     1       1.345  -6.847   3.068  0.00  0.00    -0.014 C 
ENDBRANCH  25  28
ENDBRANCH  24  25
ENDBRANCH  21  24
ENDBRANCH  14  20
BRANCH   1  32
ATOM     31  C   UNL     1       3.817  -1.649   1.150  0.00  0.00    +0.012 C 
ATOM     32  C   UNL     1       3.705  -0.760  -0.090  0.00  0.00    +0.017 C 
ATOM     33  C   UNL     1       3.753  -1.630  -1.348  0.00  0.00    +0.012 C 
ENDBRANCH   1  32
BRANCH   6  34
ATOM     34  O   UNL     1       3.567   2.067  -0.063  0.00  0.00    -0.491 OA
ATOM     35  C   UNL     1       4.091   2.410  -1.347  0.00  0.00    +0.277 C 
ENDBRANCH   6  34
BRANCH   5  36
ATOM     36  O   UNL     1       1.247   3.427   0.055  0.00  0.00    -0.491 OA
ATOM     37  C   UNL     1       1.315   4.023   1.352  0.00  0.00    +0.277 C 
ENDBRANCH   5  36
TORSDOF 7
