REMARK  Name = ZINC20569103
REMARK  12 active torsions:
REMARK  status: ('A' for Active; 'I' for Inactive)
REMARK    1  A    between atoms: C_1  and  C_2
REMARK    2  A    between atoms: C_3  and  C_24
REMARK    3  A    between atoms: C_12  and  N_20
REMARK    4  A    between atoms: C_13  and  C_14
REMARK    5  A    between atoms: C_14  and  O_16
REMARK    6  A    between atoms: O_16  and  C_17
REMARK    7  A    between atoms: C_17  and  C_18
REMARK    8  A    between atoms: C_17  and  C_19
REMARK    9  A    between atoms: C_24  and  O_26
REMARK   10  A    between atoms: O_26  and  C_27
REMARK   11  A    between atoms: C_27  and  C_28
REMARK   12  A    between atoms: C_27  and  C_29
REMARK                            x       y       z     vdW  Elec       q    Type
REMARK                         _______ _______ _______ _____ _____    ______ ____
ROOT
ATOM      1  C   UNL     1      -3.054   6.603   2.524  0.00  0.00    +0.087 C 
ATOM      2  C   UNL     1      -2.797   5.658   1.379  0.00  0.00    +0.117 C 
ATOM      3  C   UNL     1      -2.796   4.320   1.503  0.00  0.00    +0.100 C 
ATOM      4  C   UNL     1      -2.498   3.780   0.121  0.00  0.00    +0.164 C 
ATOM      5  C   UNL     1      -3.652   2.957  -0.373  0.00  0.00    -0.000 A 
ATOM      6  C   UNL     1      -4.823   3.583  -0.763  0.00  0.00    +0.007 A 
ATOM      7  C   UNL     1      -5.894   2.836  -1.214  0.00  0.00    +0.000 A 
ATOM      8  C   UNL     1      -5.803   1.457  -1.279  0.00  0.00    +0.002 A 
ATOM      9  C   UNL     1      -4.637   0.825  -0.894  0.00  0.00    +0.023 A 
ATOM     10  C   UNL     1      -3.558   1.574  -0.441  0.00  0.00    +0.037 A 
ATOM     11  N   UNL     1      -2.379   0.929  -0.056  0.00  0.00    -0.302 N 
ATOM     12  C   UNL     1      -1.209   1.633   0.045  0.00  0.00    +0.097 C 
ATOM     13  C   UNL     1      -1.220   3.003   0.134  0.00  0.00    +0.098 C 
ATOM     14  C   UNL     1      -2.351   5.032  -0.718  0.00  0.00    +0.332 C 
ATOM     15  O   UNL     1      -2.108   5.094  -1.900  0.00  0.00    -0.249 OA
ATOM     16  O   UNL     1      -2.546   6.059   0.126  0.00  0.00    -0.429 OA
ATOM     17  H   UNL     1      -2.390  -0.148   0.168  0.00  0.00    +0.153 HD
ENDROOT
BRANCH  12  18
ATOM     18  N   UNL     1      -0.013   0.962   0.065  0.00  0.00    -0.346 N 
ATOM     19  H   UNL     1       0.930   1.521   0.145  0.00  0.00    +0.143 HD
ATOM     20  H   UNL     1       0.002  -0.136  -0.001  0.00  0.00    +0.143 HD
ENDBRANCH  12  18
BRANCH  13  21
ATOM     21  C   UNL     1      -0.004   3.690   0.234  0.00  0.00    +0.340 C 
ATOM     22  O   UNL     1       1.048   3.085   0.124  0.00  0.00    -0.245 OA
BRANCH  21  23
ATOM     23  O   UNL     1       0.002   5.023   0.451  0.00  0.00    -0.459 OA
BRANCH  23  24
ATOM     24  C   UNL     1       1.278   5.660   0.541  0.00  0.00    +0.171 C 
ATOM     25  C   UNL     1       1.720   6.119  -0.850  0.00  0.00    +0.052 C 
ATOM     26  C   UNL     1       1.179   6.871   1.471  0.00  0.00    +0.052 C 
ENDBRANCH  23  24
ENDBRANCH  21  23
ENDBRANCH  13  21
BRANCH   3  27
ATOM     27  C   UNL     1      -3.025   3.570   2.684  0.00  0.00    +0.340 C 
ATOM     28  O   UNL     1      -3.254   4.141   3.733  0.00  0.00    -0.245 OA
BRANCH  27  29
ATOM     29  O   UNL     1      -2.990   2.222   2.644  0.00  0.00    -0.459 OA
BRANCH  29  30
ATOM     30  C   UNL     1      -3.230   1.530   3.871  0.00  0.00    +0.171 C 
ATOM     31  C   UNL     1      -3.879   0.176   3.575  0.00  0.00    +0.052 C 
ATOM     32  C   UNL     1      -1.904   1.311   4.602  0.00  0.00    +0.052 C 
ENDBRANCH  29  30
ENDBRANCH  27  29
ENDBRANCH   3  27
TORSDOF 7
