REMARK  Name = ZINC31027274
REMARK  4 active torsions:
REMARK  status: ('A' for Active; 'I' for Inactive)
REMARK    1  A    between atoms: C_9  and  C_12
REMARK    2  A    between atoms: C_12  and  N_13
REMARK    3  A    between atoms: N_16  and  N_17
REMARK    4  A    between atoms: C_18  and  C_20
REMARK                            x       y       z     vdW  Elec       q    Type
REMARK                         _______ _______ _______ _____ _____    ______ ____
ROOT
ATOM      1  N   UNL     1      -0.011   0.966   0.007  0.00  0.00    -0.295 N 
ATOM      2  C   UNL     1       1.147   1.655   0.000  0.00  0.00    +0.316 C 
ATOM      3  O   UNL     1       1.130   2.871   0.007  0.00  0.00    -0.251 OA
ATOM      4  N   UNL     1       2.323   0.998  -0.015  0.00  0.00    -0.218 N 
ATOM      5  H   UNL     1       0.004  -0.134   0.006  0.00  0.00    +0.150 HD
ATOM      6  H   UNL     1       3.268   1.560  -0.021  0.00  0.00    +0.174 HD
ENDROOT
BRANCH   4   7
ATOM      7  N   UNL     1       2.342  -0.403  -0.022  0.00  0.00    -0.228 N 
ATOM      8  C   UNL     1       3.518  -1.061  -0.037  0.00  0.00    +0.276 C 
ATOM      9  O   UNL     1       4.564  -0.438  -0.044  0.00  0.00    -0.267 OA
ATOM     10  H   UNL     1       1.397  -0.966  -0.017  0.00  0.00    +0.173 HD
BRANCH   8  11
ATOM     11  C   UNL     1       3.538  -2.528  -0.045  0.00  0.00    +0.104 A 
ATOM     12  C   UNL     1       4.661  -3.327  -0.060  0.00  0.00    +0.047 A 
ATOM     13  C   UNL     1       4.221  -4.655  -0.063  0.00  0.00    +0.036 A 
ATOM     14  C   UNL     1       2.866  -4.643  -0.050  0.00  0.00    +0.098 A 
ATOM     15  N   UNL     1       2.439  -3.356  -0.033  0.00  0.00    -0.356 N 
ATOM     16  H   UNL     1       1.427  -2.927  -0.013  0.00  0.00    +0.166 HD
ATOM     17 BR   UNL     1       5.321  -6.193  -0.083  0.00  0.00    -0.049 Br
ENDBRANCH   8  11
ENDBRANCH   4   7
BRANCH   1  18
ATOM     18  C   UNL     1      -1.290   1.681   0.017  0.00  0.00    +0.153 C 
BRANCH  18  27
ATOM     19  C   UNL     1      -5.686  -2.412  -2.100  0.00  0.00    +0.004 A 
ATOM     20  C   UNL     1      -4.458  -2.708  -2.662  0.00  0.00    +0.004 A 
ATOM     21  C   UNL     1      -3.348  -1.949  -2.343  0.00  0.00    +0.049 A 
ATOM     22  C   UNL     1      -3.464  -0.888  -1.457  0.00  0.00    +0.163 A 
ATOM     23  C   UNL     1      -4.697  -0.592  -0.891  0.00  0.00    +0.162 A 
ATOM     24  C   UNL     1      -5.808  -1.357  -1.216  0.00  0.00    +0.049 A 
ATOM     25  O   UNL     1      -4.832   0.442  -0.016  0.00  0.00    -0.485 OA
ATOM     26  C   UNL     1      -3.781   1.415  -0.003  0.00  0.00    +0.275 C 
ATOM     27  C   UNL     1      -2.439   0.671   0.017  0.00  0.00    +0.228 C 
ATOM     28  O   UNL     1      -2.362  -0.147  -1.155  0.00  0.00    -0.480 OA
ENDBRANCH  18  27
ENDBRANCH   1  18
TORSDOF 4
