REMARK  Name = ZINC21369555
REMARK  12 active torsions:
REMARK  status: ('A' for Active; 'I' for Inactive)
REMARK    1  A    between atoms: C_1  and  C_2
REMARK    2  A    between atoms: C_5  and  N_9
REMARK    3  A    between atoms: C_6  and  C_8
REMARK    4  A    between atoms: C_13  and  C_15
REMARK    5  A    between atoms: C_15  and  O_16
REMARK    6  A    between atoms: O_16  and  C_17
REMARK    7  A    between atoms: C_17  and  C_19
REMARK    8  A    between atoms: C_21  and  S_26
REMARK    9  A    between atoms: C_24  and  C_25
REMARK   10  A    between atoms: S_26  and  N_29
REMARK   11  A    between atoms: N_29  and  C_30
REMARK   12  A    between atoms: C_30  and  C_31
REMARK                            x       y       z     vdW  Elec       q    Type
REMARK                         _______ _______ _______ _____ _____    ______ ____
ROOT
ATOM      1  C   UNL     1       5.168   2.341  -0.246  0.00  0.00    +0.340 C 
ATOM      2  O   UNL     1       5.253   3.453   0.235  0.00  0.00    -0.245 OA
ENDROOT
BRANCH   1   3
ATOM      3  C   UNL     1       6.348   1.720  -0.882  0.00  0.00    +0.064 A 
ATOM      4  C   UNL     1       6.292   0.396  -1.323  0.00  0.00    +0.043 A 
ATOM      5  C   UNL     1       7.396  -0.176  -1.921  0.00  0.00    +0.106 A 
ATOM      6  C   UNL     1       8.560   0.556  -2.075  0.00  0.00    +0.029 A 
ATOM      7  C   UNL     1       8.624   1.867  -1.636  0.00  0.00    +0.006 A 
ATOM      8  C   UNL     1       7.526   2.453  -1.041  0.00  0.00    -0.036 A 
ATOM      9  C   UNL     1       7.598   3.880  -0.564  0.00  0.00    +0.044 C 
BRANCH   5  10
ATOM     10  S   UNL     1       7.325  -1.844  -2.483  0.00  0.00    +0.059 S 
ATOM     11  O   UNL     1       5.954  -2.136  -2.716  0.00  0.00    -0.153 OA
ATOM     12  O   UNL     1       8.315  -1.974  -3.494  0.00  0.00    -0.153 OA
BRANCH  10  13
ATOM     13  N   UNL     1       7.806  -2.806  -1.224  0.00  0.00    -0.183 NA
ATOM     14  H   UNL     1       8.808  -3.260  -1.246  0.00  0.00    +0.148 HD
BRANCH  13  15
ATOM     15  C   UNL     1       7.000  -2.871  -0.002  0.00  0.00    +0.180 C 
BRANCH  15  16
ATOM     16  C   UNL     1       7.428  -4.059   0.820  0.00  0.00    +0.120 A 
ATOM     17  C   UNL     1       8.385  -4.058   1.766  0.00  0.00    +0.046 A 
ATOM     18  C   UNL     1       8.457  -5.373   2.278  0.00  0.00    +0.041 A 
ATOM     19  C   UNL     1       7.540  -6.101   1.614  0.00  0.00    +0.195 A 
ATOM     20  O   UNL     1       6.917  -5.298   0.736  0.00  0.00    -0.466 OA
ENDBRANCH  15  16
ENDBRANCH  13  15
ENDBRANCH  10  13
ENDBRANCH   5  10
ENDBRANCH   1   3
BRANCH   1  21
ATOM     21  O   UNL     1       3.999   1.673  -0.199  0.00  0.00    -0.452 OA
BRANCH  21  22
ATOM     22  C   UNL     1       2.882   2.345   0.442  0.00  0.00    +0.328 C 
BRANCH  22  27
ATOM     23  N   UNL     1      -1.743   1.492   1.435  0.00  0.00    -0.269 N 
ATOM     24  C   UNL     1      -0.579   1.072   0.901  0.00  0.00    +0.310 C 
ATOM     25  O   UNL     1      -0.509  -0.025   0.381  0.00  0.00    -0.252 OA
ATOM     26  N   UNL     1       0.506   1.870   0.938  0.00  0.00    -0.237 N 
ATOM     27  C   UNL     1       1.669   1.452   0.400  0.00  0.00    +0.258 C 
ATOM     28  O   UNL     1       1.738   0.359  -0.118  0.00  0.00    -0.272 OA
ATOM     29  H   UNL     1      -1.783   2.440   1.991  0.00  0.00    +0.156 HD
ATOM     30  H   UNL     1       0.443   2.862   1.409  0.00  0.00    +0.159 HD
BRANCH  23  35
ATOM     31  C   UNL     1      -6.438  -1.633   0.815  0.00  0.00    +0.044 C 
ATOM     32  C   UNL     1      -5.191  -0.803   0.980  0.00  0.00    -0.050 A 
ATOM     33  C   UNL     1      -4.113  -1.003   0.137  0.00  0.00    +0.005 A 
ATOM     34  C   UNL     1      -2.968  -0.244   0.285  0.00  0.00    +0.024 A 
ATOM     35  C   UNL     1      -2.901   0.721   1.282  0.00  0.00    +0.038 A 
ATOM     36  C   UNL     1      -3.984   0.916   2.129  0.00  0.00    -0.029 A 
ATOM     37  C   UNL     1      -5.127   0.157   1.973  0.00  0.00    +0.008 A 
ATOM     38  C   UNL     1      -3.913   1.958   3.216  0.00  0.00    +0.045 C 
ENDBRANCH  23  35
ENDBRANCH  22  27
ENDBRANCH  21  22
ENDBRANCH   1  21
TORSDOF 9
