REMARK  Name = ZINC67201900
REMARK  7 active torsions:
REMARK  status: ('A' for Active; 'I' for Inactive)
REMARK    1  A    between atoms: C_1  and  C_2
REMARK    2  A    between atoms: C_2  and  C_4
REMARK    3  A    between atoms: C_2  and  N_16
REMARK    4  A    between atoms: C_17  and  C_19
REMARK    5  A    between atoms: C_22  and  C_24
REMARK    6  A    between atoms: C_24  and  N_25
REMARK    7  A    between atoms: C_26  and  C_28
REMARK                            x       y       z     vdW  Elec       q    Type
REMARK                         _______ _______ _______ _____ _____    ______ ____
ROOT
ATOM      1  N   UNL     1       0.688  -0.476  -1.203  0.00  0.00    -0.304 N 
ATOM      2  C   UNL     1       0.006  -0.608  -2.358  0.00  0.00    +0.251 C 
ATOM      3  O   UNL     1      -1.179  -0.335  -2.400  0.00  0.00    -0.270 OA
ATOM      4  H   UNL     1       1.632  -0.695  -1.170  0.00  0.00    +0.150 HD
ENDROOT
BRANCH   2   5
ATOM      5  C   UNL     1       0.692  -1.081  -3.564  0.00  0.00    +0.074 A 
ATOM      6  C   UNL     1       0.183  -1.278  -4.839  0.00  0.00    +0.021 A 
ATOM      7  C   UNL     1       1.079  -1.734  -5.776  0.00  0.00    +0.013 A 
ATOM      8  C   UNL     1       2.365  -1.956  -5.405  0.00  0.00    +0.008 A 
ATOM      9  S   UNL     1       2.401  -1.544  -3.777  0.00  0.00    -0.087 S 
BRANCH   8  10
ATOM     10  C   UNL     1       3.503  -2.450  -6.261  0.00  0.00    +0.146 C 
BRANCH  10  11
ATOM     11  N   UNL     1       4.191  -1.308  -6.867  0.00  0.00    -0.311 N 
ATOM     12  C   UNL     1       5.248  -1.510  -7.678  0.00  0.00    +0.210 C 
ATOM     13  O   UNL     1       5.630  -2.639  -7.905  0.00  0.00    -0.276 OA
ATOM     14  C   UNL     1       5.955  -0.335  -8.301  0.00  0.00    +0.109 C 
ATOM     15  H   UNL     1       3.885  -0.405  -6.685  0.00  0.00    +0.149 HD
ENDBRANCH  10  11
ENDBRANCH   8  10
ENDBRANCH   2   5
BRANCH   1  17
ATOM     16  C   UNL     1      -0.019   1.526   0.010  0.00  0.00    +0.033 C 
ATOM     17  C   UNL     1       0.002  -0.004   0.002  0.00  0.00    +0.100 C 
BRANCH  17  18
ATOM     18  C   UNL     1       0.731  -0.503   1.223  0.00  0.00    -0.025 A 
ATOM     19  C   UNL     1       2.115  -0.512   1.244  0.00  0.00    +0.007 A 
ATOM     20  C   UNL     1       2.792  -0.968   2.358  0.00  0.00    +0.028 A 
ATOM     21  C   UNL     1       2.082  -1.418   3.461  0.00  0.00    +0.067 A 
ATOM     22  C   UNL     1       0.686  -1.409   3.440  0.00  0.00    +0.067 A 
ATOM     23  C   UNL     1       0.015  -0.944   2.319  0.00  0.00    +0.033 A 
ATOM     24  N   UNL     1       0.262  -1.910   4.668  0.00  0.00    -0.306 N 
ATOM     25  H   UNL     1      -0.660  -2.023   4.947  0.00  0.00    +0.170 HD
ATOM     26  C   UNL     1       1.350  -2.210   5.402  0.00  0.00    +0.325 A 
ATOM     27  O   UNL     1       1.330  -2.670   6.529  0.00  0.00    -0.247 OA
ATOM     28  N   UNL     1       2.463  -1.924   4.701  0.00  0.00    -0.306 N 
ATOM     29  H   UNL     1       3.375  -2.050   5.007  0.00  0.00    +0.170 HD
ENDBRANCH  17  18
ENDBRANCH   1  17
TORSDOF 5
