REMARK  Name = ZINC03764246
REMARK  11 active torsions:
REMARK  status: ('A' for Active; 'I' for Inactive)
REMARK    1  A    between atoms: C_1  and  C_2
REMARK    2  A    between atoms: C_5  and  N_9
REMARK    3  A    between atoms: C_6  and  C_8
REMARK    4  A    between atoms: C_10  and  C_12
REMARK    5  A    between atoms: C_17  and  C_20
REMARK    6  A    between atoms: C_20  and  C_21
REMARK    7  A    between atoms: C_21  and  O_23
REMARK    8  A    between atoms: O_23  and  C_24
REMARK    9  A    between atoms: C_25  and  N_39
REMARK   10  A    between atoms: C_26  and  C_37
REMARK   11  A    between atoms: C_27  and  C_29
REMARK                            x       y       z     vdW  Elec       q    Type
REMARK                         _______ _______ _______ _____ _____    ______ ____
ROOT
ATOM      1  C   UNL     1      -4.832   3.833  -0.137  0.00  0.00    +0.055 C 
ATOM      2  C   UNL     1      -6.008   3.160  -0.231  0.00  0.00    +0.086 C 
ATOM      3  N   UNL     1      -7.248   3.765  -0.319  0.00  0.00    -0.220 N 
ATOM      4  C   UNL     1      -8.351   2.992  -0.403  0.00  0.00    +0.239 C 
ATOM      5  O   UNL     1      -9.457   3.481  -0.486  0.00  0.00    -0.274 OA
ATOM      6  C   UNL     1      -8.155   1.494  -0.389  0.00  0.00    +0.150 C 
ATOM      7  S   UNL     1      -6.327   1.405  -0.252  0.00  0.00    -0.096 S 
ATOM      8  C   UNL     1      -7.318   5.167  -0.323  0.00  0.00    +0.110 C 
ATOM      9  C   UNL     1      -6.240   5.974  -0.241  0.00  0.00    +0.077 C 
ATOM     10  C   UNL     1      -4.864   5.347  -0.138  0.00  0.00    +0.105 C 
ENDROOT
BRANCH  10  11
ATOM     11  C   UNL     1      -4.218   5.834   1.133  0.00  0.00    +0.036 A 
ATOM     12  C   UNL     1      -4.748   5.476   2.361  0.00  0.00    +0.130 A 
ATOM     13  C   UNL     1      -4.149   5.919   3.528  0.00  0.00    +0.039 A 
ATOM     14  C   UNL     1      -3.030   6.728   3.468  0.00  0.00    +0.006 A 
ATOM     15  C   UNL     1      -2.504   7.091   2.243  0.00  0.00    +0.039 A 
ATOM     16  C   UNL     1      -3.097   6.644   1.074  0.00  0.00    +0.130 A 
ATOM     17  F   UNL     1      -2.581   6.998  -0.123  0.00  0.00    -0.205 F 
ATOM     18  F   UNL     1      -5.845   4.691   2.420  0.00  0.00    -0.205 F 
ENDBRANCH  10  11
BRANCH   1  20
ATOM     19  N   UNL     1      -2.455   3.823   0.041  0.00  0.00    -0.281 N 
ATOM     20  C   UNL     1      -3.613   3.140  -0.046  0.00  0.00    +0.248 C 
ATOM     21  O   UNL     1      -3.603   1.921  -0.047  0.00  0.00    -0.270 OA
ATOM     22  H   UNL     1      -2.466   4.791   0.101  0.00  0.00    +0.155 HD
BRANCH  19  27
ATOM     23  C   UNL     1       2.487   1.038   0.057  0.00  0.00    +0.044 C 
ATOM     24  C   UNL     1       1.174   1.778   0.052  0.00  0.00    -0.050 A 
ATOM     25  C   UNL     1       0.067   1.222   0.668  0.00  0.00    +0.005 A 
ATOM     26  C   UNL     1      -1.139   1.895   0.661  0.00  0.00    +0.024 A 
ATOM     27  C   UNL     1      -1.237   3.136   0.044  0.00  0.00    +0.037 A 
ATOM     28  C   UNL     1      -0.123   3.691  -0.573  0.00  0.00    -0.029 A 
ATOM     29  C   UNL     1       1.079   3.010  -0.567  0.00  0.00    +0.008 A 
ATOM     30  C   UNL     1      -0.226   5.035  -1.248  0.00  0.00    +0.045 C 
ENDBRANCH  19  27
ENDBRANCH   1  20
BRANCH   8  31
ATOM     31  N   UNL     1      -8.557   5.751  -0.416  0.00  0.00    -0.345 N 
ATOM     32  H   UNL     1      -8.666   6.583  -0.902  0.00  0.00    +0.144 HD
ATOM     33  H   UNL     1      -9.324   5.332   0.005  0.00  0.00    +0.144 HD
ENDBRANCH   8  31
BRANCH   9  34
ATOM     34  C   UNL     1      -6.393   7.398  -0.251  0.00  0.00    +0.099 C 
ATOM     35  N   UNL     1      -6.515   8.528  -0.259  0.00  0.00    -0.191 NA
ENDBRANCH   9  34
BRANCH   6  36
ATOM     36  C   UNL     1      -8.645   0.858  -1.692  0.00  0.00    +0.144 C 
BRANCH  36  37
ATOM     37  C   UNL     1      -8.545  -0.642  -1.588  0.00  0.00    +0.308 C 
ATOM     38  O   UNL     1      -8.124  -1.151  -0.576  0.00  0.00    -0.251 OA
BRANCH  37  39
ATOM     39  O   UNL     1      -8.923  -1.413  -2.619  0.00  0.00    -0.468 OA
ATOM     40  C   UNL     1      -8.798  -2.850  -2.448  0.00  0.00    +0.280 C 
ENDBRANCH  37  39
ENDBRANCH  36  37
ENDBRANCH   6  36
TORSDOF 8
