REMARK  Name = ZINC45218841
REMARK  8 active torsions:
REMARK  status: ('A' for Active; 'I' for Inactive)
REMARK    1  A    between atoms: C_1  and  N_2
REMARK    2  A    between atoms: N_2  and  C_3
REMARK    3  A    between atoms: C_3  and  C_4
REMARK    4  A    between atoms: C_3  and  C_12
REMARK    5  A    between atoms: C_3  and  C_14
REMARK    6  A    between atoms: C_4  and  S_5
REMARK    7  A    between atoms: S_5  and  C_6
REMARK    8  A    between atoms: N_10  and  C_11
REMARK                            x       y       z     vdW  Elec       q    Type
REMARK                         _______ _______ _______ _____ _____    ______ ____
ROOT
ATOM      1  C   UNL     1       0.683  -0.515  -1.195  0.00  0.00    +0.141 C 
ENDROOT
BRANCH   1   2
ATOM      2  C   UNL     1      -0.039  -0.035  -2.427  0.00  0.00    -0.013 A 
ATOM      3  C   UNL     1       0.660   0.170  -3.602  0.00  0.00    +0.006 A 
ATOM      4  C   UNL     1      -0.002   0.611  -4.733  0.00  0.00    +0.000 A 
ATOM      5  C   UNL     1      -1.363   0.846  -4.689  0.00  0.00    +0.000 A 
ATOM      6  C   UNL     1      -2.063   0.641  -3.514  0.00  0.00    +0.000 A 
ATOM      7  C   UNL     1      -1.401   0.196  -2.385  0.00  0.00    +0.006 A 
ENDBRANCH   1   2
BRANCH   1   9
ATOM      8  C   UNL     1      -0.018   1.465   0.010  0.00  0.00    +0.102 C 
ATOM      9  N   UNL     1       0.002  -0.004   0.002  0.00  0.00    -0.298 NA
ATOM     10  H   UNL     1       0.429  -0.364   0.842  0.00  0.00    +0.123 HD
ENDBRANCH   1   9
BRANCH   1  11
ATOM     11  C   UNL     1       0.684  -1.986  -1.169  0.00  0.00    +0.090 C 
ATOM     12  N   UNL     1       0.685  -3.122  -1.149  0.00  0.00    -0.194 NA
ENDBRANCH   1  11
BRANCH   1  13
ATOM     13  C   UNL     1       2.126  -0.004  -1.218  0.00  0.00    +0.119 C 
BRANCH  13  14
ATOM     14  S   UNL     1       3.036  -0.703   0.188  0.00  0.00    -0.083 S 
BRANCH  14  15
ATOM     15  C   UNL     1       4.656  -0.029   0.023  0.00  0.00    +0.191 A 
ATOM     16  N   UNL     1       5.068   0.793  -0.914  0.00  0.00    -0.123 NA
ATOM     17  N   UNL     1       6.307   1.081  -0.729  0.00  0.00    -0.137 NA
ATOM     18  C   UNL     1       6.755   0.466   0.329  0.00  0.00    +0.225 A 
ATOM     19  N   UNL     1       5.719  -0.259   0.849  0.00  0.00    -0.312 N 
ATOM     20  C   UNL     1       5.744  -1.108   2.042  0.00  0.00    +0.152 C 
ENDBRANCH  14  15
ENDBRANCH  13  14
ENDBRANCH   1  13
TORSDOF 6
