REMARK  Name = ZINC16393089
REMARK  10 active torsions:
REMARK  status: ('A' for Active; 'I' for Inactive)
REMARK    1  A    between atoms: C_1  and  C_2
REMARK    2  A    between atoms: C_3  and  C_33
REMARK    3  A    between atoms: C_4  and  C_24
REMARK    4  A    between atoms: C_10  and  C_15
REMARK    5  A    between atoms: C_18  and  N_21
REMARK    6  A    between atoms: N_21  and  C_22
REMARK    7  A    between atoms: N_21  and  C_23
REMARK    8  A    between atoms: C_33  and  O_35
REMARK    9  A    between atoms: O_35  and  C_36
REMARK   10  A    between atoms: C_36  and  C_37
REMARK                            x       y       z     vdW  Elec       q    Type
REMARK                         _______ _______ _______ _____ _____    ______ ____
ROOT
ATOM      1  C   UNL     1      -4.814   5.067   5.924  0.00  0.00    +0.061 C 
ATOM      2  C   UNL     1      -3.343   4.947   6.226  0.00  0.00    +0.031 C 
ATOM      3  C   UNL     1      -2.503   4.486   5.283  0.00  0.00    +0.154 C 
ATOM      4  C   UNL     1      -1.032   4.358   5.545  0.00  0.00    +0.073 C 
ATOM      5  C   UNL     1      -0.623   5.169   6.748  0.00  0.00    +0.025 C 
ATOM      6  C   UNL     1      -1.544   5.596   7.636  0.00  0.00    +0.049 C 
ATOM      7  N   UNL     1      -2.870   5.307   7.457  0.00  0.00    -0.260 NA
ATOM      8  C   UNL     1      -1.144   6.414   8.840  0.00  0.00    +0.064 C 
ATOM      9  C   UNL     1       0.267   6.021   9.281  0.00  0.00    +0.032 C 
ATOM     10  C   UNL     1       1.225   6.249   8.107  0.00  0.00    +0.088 C 
ATOM     11  C   UNL     1       0.742   5.461   6.920  0.00  0.00    +0.162 C 
ATOM     12  O   UNL     1       1.544   5.071   6.096  0.00  0.00    -0.292 OA
ENDROOT
BRANCH   4  13
ATOM     13  C   UNL     1      -0.704   2.908   5.790  0.00  0.00    -0.035 A 
ATOM     14  C   UNL     1      -1.301   2.233   6.838  0.00  0.00    +0.008 A 
ATOM     15  C   UNL     1      -1.003   0.903   7.067  0.00  0.00    +0.050 A 
ATOM     16  C   UNL     1      -0.105   0.242   6.245  0.00  0.00    +0.166 A 
ATOM     17  C   UNL     1       0.497   0.922   5.189  0.00  0.00    +0.167 A 
ATOM     18  C   UNL     1       0.189   2.254   4.962  0.00  0.00    +0.053 A 
ATOM     19  O   UNL     1       1.331   0.062   4.535  0.00  0.00    -0.453 OA
ATOM     20  C   UNL     1       0.926  -1.256   4.950  0.00  0.00    +0.466 C 
ATOM     21  O   UNL     1       0.353  -1.044   6.253  0.00  0.00    -0.453 OA
ENDBRANCH   4  13
BRANCH   9  22
ATOM     22  C   UNL     1       0.688   6.872  10.451  0.00  0.00    -0.043 A 
ATOM     23  C   UNL     1       0.740   8.248  10.320  0.00  0.00    +0.006 A 
ATOM     24  C   UNL     1       1.119   9.031  11.393  0.00  0.00    +0.023 A 
ATOM     25  C   UNL     1       1.461   8.435  12.600  0.00  0.00    +0.029 A 
ATOM     26  C   UNL     1       1.413   7.052  12.726  0.00  0.00    +0.023 A 
ATOM     27  C   UNL     1       1.027   6.275  11.652  0.00  0.00    +0.006 A 
BRANCH  25  28
ATOM     28  N   UNL     1       1.850   9.223  13.685  0.00  0.00    -0.336 N 
ATOM     29  C   UNL     1       2.323   8.590  14.918  0.00  0.00    +0.129 C 
ATOM     30  C   UNL     1       1.786  10.684  13.589  0.00  0.00    +0.129 C 
ENDBRANCH  25  28
ENDBRANCH   9  22
BRANCH   3  31
ATOM     31  C   UNL     1      -3.016   4.122   4.016  0.00  0.00    +0.317 C 
ATOM     32  O   UNL     1      -2.915   4.888   3.076  0.00  0.00    -0.250 OA
BRANCH  31  33
ATOM     33  O   UNL     1      -3.617   2.925   3.849  0.00  0.00    -0.462 OA
BRANCH  33  34
ATOM     34  C   UNL     1      -4.111   2.624   2.542  0.00  0.00    +0.263 C 
BRANCH  34  35
ATOM     35  C   UNL     1      -4.755   1.236   2.548  0.00  0.00    +0.156 C 
ATOM     36  C   UNL     1      -5.188   0.830   1.117  0.00  0.00    +0.037 C 
ATOM     37  C   UNL     1      -6.315  -0.194   1.397  0.00  0.00    +0.031 C 
ATOM     38  C   UNL     1      -6.767   0.127   2.835  0.00  0.00    +0.160 C 
ATOM     39  O   UNL     1      -5.997   1.253   3.287  0.00  0.00    -0.373 OA
ENDBRANCH  34  35
ENDBRANCH  33  34
ENDBRANCH  31  33
ENDBRANCH   3  31
TORSDOF 7
