REMARK  Name = ZINC61916744
REMARK  3 active torsions:
REMARK  status: ('A' for Active; 'I' for Inactive)
REMARK    1  A    between atoms: C_1  and  C_2
REMARK    2  A    between atoms: C_11  and  C_17
REMARK    3  A    between atoms: C_13  and  N_16
REMARK                            x       y       z     vdW  Elec       q    Type
REMARK                         _______ _______ _______ _____ _____    ______ ____
ROOT
ATOM      1  C   UNL     1      -0.341   1.641  -0.014  0.00  0.00    +0.039 C 
ATOM      2  C   UNL     1      -0.180   0.120  -0.035  0.00  0.00    +0.132 C 
ATOM      3  C   UNL     1      -1.576  -0.548   0.024  0.00  0.00    +0.137 C 
ATOM      4  N   UNL     1      -1.439  -1.978  -0.182  0.00  0.00    -0.312 N 
ATOM      5  C   UNL     1      -1.218  -2.921   0.930  0.00  0.00    +0.109 C 
ATOM      6  C   UNL     1      -0.213  -2.354   1.943  0.00  0.00    +0.047 C 
ATOM      7  C   UNL     1       0.908  -1.650   1.205  0.00  0.00    +0.162 C 
ATOM      8  O   UNL     1       0.566  -0.278   1.056  0.00  0.00    -0.375 OA
ATOM      9  C   UNL     1      -1.518  -2.476  -1.474  0.00  0.00    +0.139 A 
ATOM     10  C   UNL     1      -2.766  -2.847  -2.003  0.00  0.00    +0.093 A 
ATOM     11  C   UNL     1      -2.825  -3.348  -3.308  0.00  0.00    +0.046 A 
ATOM     12  C   UNL     1      -1.640  -3.456  -4.026  0.00  0.00    +0.044 A 
ATOM     13  C   UNL     1      -0.446  -3.068  -3.432  0.00  0.00    +0.135 A 
ATOM     14  N   UNL     1      -0.419  -2.594  -2.201  0.00  0.00    -0.237 NA
ENDROOT
BRANCH  12  15
ATOM     15  N   UNL     1      -1.649  -3.953  -5.335  0.00  0.00    -0.357 N 
ATOM     16  H   UNL     1      -2.486  -4.223  -5.746  0.00  0.00    +0.142 HD
ATOM     17  H   UNL     1      -0.820  -4.026  -5.832  0.00  0.00    +0.142 HD
ENDBRANCH  12  15
BRANCH  10  18
ATOM     18  C   UNL     1      -3.958  -2.715  -1.219  0.00  0.00    +0.103 C 
ATOM     19  N   UNL     1      -4.902  -2.611  -0.597  0.00  0.00    -0.191 NA
ENDBRANCH  10  18
TORSDOF 2
