REMARK  Name = ZINC31807523
REMARK  4 active torsions:
REMARK  status: ('A' for Active; 'I' for Inactive)
REMARK    1  A    between atoms: C_1  and  C_2
REMARK    2  A    between atoms: C_2  and  N_3
REMARK    3  A    between atoms: C_7  and  C_23
REMARK    4  A    between atoms: C_14  and  O_22
REMARK                            x       y       z     vdW  Elec       q    Type
REMARK                         _______ _______ _______ _____ _____    ______ ____
ROOT
ATOM      1  N   UNL     1       0.688  -0.476  -1.203  0.00  0.00    -0.270 N 
ATOM      2  C   UNL     1       0.052  -0.731  -2.405  0.00  0.00    +0.041 A 
ATOM      3  C   UNL     1      -1.299  -0.611  -2.737  0.00  0.00    +0.024 A 
ATOM      4  C   UNL     1      -1.665  -0.938  -4.033  0.00  0.00    +0.005 A 
ATOM      5  C   UNL     1      -0.744  -1.367  -4.967  0.00  0.00    -0.050 A 
ATOM      6  C   UNL     1       0.604  -1.491  -4.650  0.00  0.00    +0.010 A 
ATOM      7  C   UNL     1       0.977  -1.167  -3.363  0.00  0.00    -0.006 A 
ATOM      8  C   UNL     1       2.306  -1.181  -2.681  0.00  0.00    +0.112 C 
ATOM      9  C   UNL     1       2.016  -0.709  -1.274  0.00  0.00    +0.235 C 
ATOM     10  O   UNL     1       2.822  -0.569  -0.379  0.00  0.00    -0.274 OA
ATOM     11  C   UNL     1       3.291  -0.232  -3.362  0.00  0.00    +0.121 C 
ATOM     12  C   UNL     1       3.922  -0.869  -4.567  0.00  0.00    +0.191 C 
ATOM     13  N   UNL     1       4.165  -2.141  -4.663  0.00  0.00    -0.198 NA
ATOM     14  C   UNL     1       3.793  -2.974  -3.648  0.00  0.00    +0.156 A 
ATOM     15  C   UNL     1       2.899  -2.562  -2.666  0.00  0.00    +0.036 A 
ATOM     16  C   UNL     1       2.721  -3.615  -1.788  0.00  0.00    +0.141 A 
ATOM     17  N   UNL     1       3.447  -4.628  -2.201  0.00  0.00    -0.180 NA
ATOM     18  N   UNL     1       4.122  -4.254  -3.374  0.00  0.00    -0.260 N 
ATOM     19  H   UNL     1       4.717  -4.815  -3.895  0.00  0.00    +0.191 HD
ATOM     20  C   UNL     1      -1.209  -1.707  -6.360  0.00  0.00    +0.044 C 
ENDROOT
BRANCH   1  22
ATOM     21  C   UNL     1      -0.019   1.526   0.010  0.00  0.00    +0.025 C 
ATOM     22  C   UNL     1       0.002  -0.004   0.002  0.00  0.00    +0.110 C 
ENDBRANCH   1  22
BRANCH  12  23
ATOM     23  O   UNL     1       4.255  -0.076  -5.606  0.00  0.00    -0.495 OA
ATOM     24  H   UNL     1       4.656  -0.548  -6.349  0.00  0.00    +0.293 HD
ENDBRANCH  12  23
TORSDOF 2
