REMARK  Name = ZINC13068887
REMARK  9 active torsions:
REMARK  status: ('A' for Active; 'I' for Inactive)
REMARK    1  A    between atoms: C_1  and  C_2
REMARK    2  A    between atoms: C_2  and  N_3
REMARK    3  A    between atoms: C_6  and  C_19
REMARK    4  A    between atoms: C_7  and  N_18
REMARK    5  A    between atoms: N_8  and  C_11
REMARK    6  A    between atoms: C_11  and  C_12
REMARK    7  A    between atoms: C_19  and  C_21
REMARK    8  A    between atoms: C_21  and  N_22
REMARK    9  A    between atoms: C_26  and  C_29
REMARK                            x       y       z     vdW  Elec       q    Type
REMARK                         _______ _______ _______ _____ _____    ______ ____
ROOT
ATOM      1  N   UNL     1      -1.389  -0.490  -0.151  0.00  0.00    -0.260 N 
ATOM      2  C   UNL     1      -1.863  -0.696   1.095  0.00  0.00    +0.269 A 
ATOM      3  O   UNL     1      -1.177  -0.448   2.070  0.00  0.00    -0.267 OA
ATOM      4  C   UNL     1      -3.224  -1.226   1.252  0.00  0.00    +0.121 A 
ATOM      5  C   UNL     1      -3.963  -1.492   0.087  0.00  0.00    +0.116 A 
ATOM      6  N   UNL     1      -3.391  -1.248  -1.129  0.00  0.00    -0.277 N 
ATOM      7  C   UNL     1      -2.145  -0.758  -1.228  0.00  0.00    +0.334 A 
ATOM      8  O   UNL     1      -1.683  -0.554  -2.333  0.00  0.00    -0.246 OA
ENDROOT
BRANCH   5   9
ATOM      9  N   UNL     1      -5.229  -1.984   0.169  0.00  0.00    -0.344 N 
ATOM     10  H   UNL     1      -5.658  -2.078   1.034  0.00  0.00    +0.144 HD
ATOM     11  H   UNL     1      -5.702  -2.242  -0.638  0.00  0.00    +0.144 HD
ENDBRANCH   5   9
BRANCH   1  13
ATOM     12  C   UNL     1      -0.084   1.566  -0.364  0.00  0.00    +0.027 C 
ATOM     13  C   UNL     1      -0.035   0.037  -0.332  0.00  0.00    +0.126 C 
ENDBRANCH   1  13
BRANCH   4  14
ATOM     14  C   UNL     1      -3.770  -1.462   2.532  0.00  0.00    +0.185 C 
ATOM     15  O   UNL     1      -4.932  -1.798   2.643  0.00  0.00    -0.290 OA
BRANCH  14  16
ATOM     16  C   UNL     1      -2.913  -1.296   3.760  0.00  0.00    +0.164 C 
BRANCH  16  17
ATOM     17  N   UNL     1      -3.709  -1.596   4.957  0.00  0.00    -0.294 NA
ATOM     18  C   UNL     1      -4.782  -0.610   5.137  0.00  0.00    +0.085 C 
ATOM     19  C   UNL     1      -5.676  -1.034   6.305  0.00  0.00    +0.016 C 
ATOM     20  C   UNL     1      -4.831  -1.136   7.578  0.00  0.00    +0.015 C 
ATOM     21  C   UNL     1      -3.693  -2.134   7.347  0.00  0.00    +0.089 C 
ATOM     22  C   UNL     1      -2.856  -1.677   6.150  0.00  0.00    +0.097 C 
BRANCH  21  23
ATOM     23  C   UNL     1      -2.822  -2.196   8.575  0.00  0.00    +0.215 C 
ATOM     24  O   UNL     1      -1.647  -1.908   8.501  0.00  0.00    -0.276 OA
ATOM     25  N   UNL     1      -3.350  -2.573   9.757  0.00  0.00    -0.329 N 
ATOM     26  H   UNL     1      -4.291  -2.803   9.817  0.00  0.00    +0.145 HD
ATOM     27  H   UNL     1      -2.790  -2.613  10.548  0.00  0.00    +0.145 HD
ENDBRANCH  21  23
ENDBRANCH  16  17
ENDBRANCH  14  16
ENDBRANCH   4  14
BRANCH   6  28
ATOM     28  C   UNL     1      -4.154  -1.522  -2.349  0.00  0.00    +0.163 C 
BRANCH  28  29
ATOM     29  C   UNL     1      -4.929  -0.291  -2.744  0.00  0.00    -0.028 A 
ATOM     30  C   UNL     1      -6.208  -0.095  -2.259  0.00  0.00    +0.005 A 
ATOM     31  C   UNL     1      -6.919   1.034  -2.621  0.00  0.00    +0.000 A 
ATOM     32  C   UNL     1      -6.350   1.967  -3.468  0.00  0.00    +0.000 A 
ATOM     33  C   UNL     1      -5.070   1.771  -3.953  0.00  0.00    +0.000 A 
ATOM     34  C   UNL     1      -4.358   0.644  -3.587  0.00  0.00    +0.005 A 
ENDBRANCH  28  29
ENDBRANCH   6  28
TORSDOF 8
