REMARK  Name = ZINC44765310
REMARK  3 active torsions:
REMARK  status: ('A' for Active; 'I' for Inactive)
REMARK    1  A    between atoms: C_4  and  C_7
REMARK    2  A    between atoms: C_4  and  C_9
REMARK    3  A    between atoms: C_15  and  C_17
REMARK                            x       y       z     vdW  Elec       q    Type
REMARK                         _______ _______ _______ _____ _____    ______ ____
ROOT
ATOM      1  C   UNL     1       2.859  -0.454  -2.507  0.00  0.00    +0.236 C 
ATOM      2  O   UNL     1       3.223   0.340  -3.349  0.00  0.00    -0.274 OA
ATOM      3  N   UNL     1       3.087  -1.771  -2.680  0.00  0.00    -0.289 N 
ATOM      4  C   UNL     1       2.607  -2.849  -1.797  0.00  0.00    +0.108 C 
ATOM      5  C   UNL     1       2.570  -4.111  -2.696  0.00  0.00    +0.021 C 
ATOM      6  C   UNL     1       3.826  -3.900  -3.581  0.00  0.00    +0.033 C 
ATOM      7  C   UNL     1       3.851  -2.370  -3.784  0.00  0.00    +0.162 C 
ENDROOT
BRANCH   1  11
ATOM      8  C   UNL     1       2.116   1.630   1.186  0.00  0.00    +0.000 C 
ATOM      9  C   UNL     1       2.227   0.105   1.228  0.00  0.00    +0.002 C 
ATOM     10  C   UNL     1       2.945  -0.388  -0.030  0.00  0.00    +0.031 C 
ATOM     11  C   UNL     1       2.151   0.032  -1.269  0.00  0.00    +0.133 C 
ATOM     12  C   UNL     1       2.040   1.557  -1.310  0.00  0.00    +0.031 C 
ATOM     13  C   UNL     1       1.322   2.050  -0.052  0.00  0.00    +0.002 C 
BRANCH  11  14
ATOM     14  C   UNL     1       0.804  -0.557  -1.211  0.00  0.00    +0.079 C 
ATOM     15  N   UNL     1      -0.236  -1.012  -1.166  0.00  0.00    -0.195 NA
ENDBRANCH  11  14
ENDBRANCH   1  11
BRANCH   7  16
ATOM     16  C   UNL     1       3.211  -2.015  -5.102  0.00  0.00    +0.231 C 
ATOM     17  O   UNL     1       2.213  -1.328  -5.126  0.00  0.00    -0.274 OA
ATOM     18  N   UNL     1       3.749  -2.462  -6.254  0.00  0.00    -0.328 N 
ATOM     19  H   UNL     1       4.548  -3.012  -6.236  0.00  0.00    +0.145 HD
ATOM     20  H   UNL     1       3.338  -2.234  -7.102  0.00  0.00    +0.145 HD
ENDBRANCH   7  16
TORSDOF 3
