REMARK  Name = ZINC40116610
REMARK  4 active torsions:
REMARK  status: ('A' for Active; 'I' for Inactive)
REMARK    1  A    between atoms: C_1  and  C_2
REMARK    2  A    between atoms: C_5  and  C_7
REMARK    3  A    between atoms: C_7  and  C_9
REMARK    4  A    between atoms: C_14  and  C_16
REMARK                            x       y       z     vdW  Elec       q    Type
REMARK                         _______ _______ _______ _____ _____    ______ ____
ROOT
ATOM      1  C   UNL     1       3.172  -2.893  -0.168  0.00  0.00    +0.079 C 
ATOM      2  C   UNL     1       4.196  -3.765  -0.314  0.00  0.00    +0.249 C 
ATOM      3  C   UNL     1       5.475  -3.039  -0.183  0.00  0.00    +0.285 C 
ATOM      4  O   UNL     1       6.576  -3.546  -0.266  0.00  0.00    -0.267 OA
ATOM      5  N   UNL     1       5.242  -1.733   0.041  0.00  0.00    -0.297 N 
ATOM      6  C   UNL     1       3.788  -1.532   0.063  0.00  0.00    +0.146 C 
ATOM      7  O   UNL     1       4.068  -5.093  -0.543  0.00  0.00    -0.282 OA
ATOM      8  H   UNL     1       5.915  -1.045   0.162  0.00  0.00    +0.150 HD
ENDROOT
BRANCH   6   9
ATOM      9  C   UNL     1       3.376  -0.585  -1.034  0.00  0.00    +0.031 A 
ATOM     10  C   UNL     1       3.952  -0.686  -2.289  0.00  0.00    +0.130 A 
ATOM     11  C   UNL     1       3.572   0.186  -3.296  0.00  0.00    +0.039 A 
ATOM     12  C   UNL     1       2.619   1.156  -3.048  0.00  0.00    +0.004 A 
ATOM     13  C   UNL     1       2.045   1.257  -1.795  0.00  0.00    +0.020 A 
ATOM     14  C   UNL     1       2.419   0.383  -0.789  0.00  0.00    +0.049 A 
ATOM     15 CL   UNL     1       1.692   0.506   0.782  0.00  0.00    -0.083 Cl
ATOM     16  F   UNL     1       4.883  -1.634  -2.532  0.00  0.00    -0.205 F 
ENDBRANCH   6   9
BRANCH   1  17
ATOM     17  C   UNL     1       1.740  -3.207  -0.228  0.00  0.00    +0.230 C 
ATOM     18  O   UNL     1       1.242  -3.582  -1.275  0.00  0.00    -0.283 OA
BRANCH  17  23
ATOM     19  C   UNL     1       0.343  -2.199   4.473  0.00  0.00    +0.086 C 
ATOM     20  C   UNL     1       0.288  -2.629   3.030  0.00  0.00    +0.103 A 
ATOM     21  C   UNL     1      -0.811  -3.089   2.389  0.00  0.00    +0.045 A 
ATOM     22  C   UNL     1      -0.432  -3.375   1.070  0.00  0.00    +0.053 A 
ATOM     23  C   UNL     1       0.908  -3.068   0.971  0.00  0.00    +0.175 A 
ATOM     24  O   UNL     1       1.317  -2.612   2.174  0.00  0.00    -0.457 OA
ENDBRANCH  17  23
ENDBRANCH   1  17
TORSDOF 3
