REMARK  Name = ZINC63908198
REMARK  10 active torsions:
REMARK  status: ('A' for Active; 'I' for Inactive)
REMARK    1  A    between atoms: C_1  and  N_2
REMARK    2  A    between atoms: N_2  and  C_3
REMARK    3  A    between atoms: N_2  and  C_4
REMARK    4  A    between atoms: C_4  and  C_6
REMARK    5  A    between atoms: C_4  and  C_32
REMARK    6  A    between atoms: C_6  and  N_7
REMARK    7  A    between atoms: C_8  and  C_10
REMARK    8  A    between atoms: C_13  and  S_21
REMARK    9  A    between atoms: S_21  and  N_24
REMARK   10  A    between atoms: N_24  and  C_25
REMARK                            x       y       z     vdW  Elec       q    Type
REMARK                         _______ _______ _______ _____ _____    ______ ____
ROOT
ATOM      1  C   UNL     1      -1.929   4.027  -2.610  0.00  0.00    +0.032 C 
ATOM      2  C   UNL     1      -2.421   4.599  -3.764  0.00  0.00    +0.007 A 
ATOM      3  C   UNL     1      -3.111   3.792  -4.771  0.00  0.00    +0.039 A 
ATOM      4  C   UNL     1      -3.576   4.401  -5.890  0.00  0.00    +0.109 A 
ATOM      5  C   UNL     1      -3.411   5.776  -6.097  0.00  0.00    +0.030 A 
ATOM      6  C   UNL     1      -2.782   6.580  -5.207  0.00  0.00    +0.026 A 
ATOM      7  C   UNL     1      -2.259   6.049  -4.008  0.00  0.00    +0.041 A 
ATOM      8  N   UNL     1      -1.646   6.842  -3.141  0.00  0.00    -0.285 N 
ATOM      9  C   UNL     1      -1.131   6.410  -1.996  0.00  0.00    +0.222 C 
ATOM     10  O   UNL     1      -0.581   7.191  -1.244  0.00  0.00    -0.275 OA
ATOM     11  C   UNL     1      -1.236   4.948  -1.624  0.00  0.00    +0.137 C 
ATOM     12  H   UNL     1      -1.569   7.785  -3.354  0.00  0.00    +0.155 HD
ENDROOT
BRANCH   1  14
ATOM     13  N   UNL     1      -1.695   2.075  -1.153  0.00  0.00    -0.313 N 
ATOM     14  C   UNL     1      -2.077   2.582  -2.341  0.00  0.00    +0.241 C 
ATOM     15  O   UNL     1      -2.543   1.851  -3.193  0.00  0.00    -0.271 OA
ATOM     16  H   UNL     1      -1.323   2.658  -0.473  0.00  0.00    +0.149 HD
BRANCH  13  17
ATOM     17  C   UNL     1      -1.842   0.641  -0.887  0.00  0.00    +0.097 C 
BRANCH  17  18
ATOM     18  C   UNL     1      -1.226   0.309   0.474  0.00  0.00    +0.016 C 
BRANCH  18  19
ATOM     19  C   UNL     1       0.258   0.568   0.430  0.00  0.00    +0.093 A 
ATOM     20  C   UNL     1       1.214  -0.362   0.260  0.00  0.00    +0.043 A 
ATOM     21  C   UNL     1       2.455   0.316   0.283  0.00  0.00    +0.041 A 
ATOM     22  C   UNL     1       2.182   1.620   0.465  0.00  0.00    +0.195 A 
ATOM     23  O   UNL     1       0.850   1.768   0.548  0.00  0.00    -0.469 OA
ENDBRANCH  18  19
BRANCH  18  25
ATOM     24  C   UNL     1      -3.268   0.829   1.620  0.00  0.00    -0.096 C 
ATOM     25  N   UNL     1      -1.840   1.153   1.508  0.00  0.00    +0.384 N 
ATOM     26  C   UNL     1      -1.179   0.906   2.797  0.00  0.00    -0.096 C 
ATOM     27  H   UNL     1      -1.734   2.124   1.257  0.00  0.00    -0.082 HD
ENDBRANCH  18  25
ENDBRANCH  17  18
ENDBRANCH  13  17
ENDBRANCH   1  14
BRANCH   4  28
ATOM     28  S   UNL     1      -4.409   3.440  -7.110  0.00  0.00    +0.072 S 
ATOM     29  O   UNL     1      -4.178   4.079  -8.357  0.00  0.00    -0.150 OA
ATOM     30  O   UNL     1      -4.053   2.085  -6.871  0.00  0.00    -0.150 OA
BRANCH  28  31
ATOM     31  N   UNL     1      -6.032   3.564  -6.807  0.00  0.00    -0.216 N 
ATOM     32  H   UNL     1      -6.621   3.953  -7.472  0.00  0.00    +0.174 HD
BRANCH  31  33
ATOM     33  C   UNL     1      -6.554   3.107  -5.593  0.00  0.00    +0.048 A 
ATOM     34  C   UNL     1      -6.168   1.871  -5.091  0.00  0.00    +0.027 A 
ATOM     35  C   UNL     1      -6.684   1.422  -3.891  0.00  0.00    +0.040 A 
ATOM     36  C   UNL     1      -7.586   2.203  -3.189  0.00  0.00    +0.124 A 
ATOM     37  C   UNL     1      -7.973   3.436  -3.688  0.00  0.00    +0.040 A 
ATOM     38  C   UNL     1      -7.455   3.891  -4.884  0.00  0.00    +0.027 A 
ATOM     39  F   UNL     1      -8.090   1.762  -2.016  0.00  0.00    -0.205 F 
ENDBRANCH  31  33
ENDBRANCH  28  31
ENDBRANCH   4  28
TORSDOF 8
