REMARK  Name = ZINC39534291
REMARK  10 active torsions:
REMARK  status: ('A' for Active; 'I' for Inactive)
REMARK    1  A    between atoms: C_4  and  O_7
REMARK    2  A    between atoms: O_7  and  S_8
REMARK    3  A    between atoms: S_8  and  C_11
REMARK    4  A    between atoms: C_14  and  C_17
REMARK    5  A    between atoms: C_17  and  C_19
REMARK    6  A    between atoms: C_17  and  N_28
REMARK    7  A    between atoms: C_19  and  N_20
REMARK    8  A    between atoms: N_20  and  C_21
REMARK    9  A    between atoms: C_26  and  O_27
REMARK   10  A    between atoms: C_32  and  O_35
REMARK                            x       y       z     vdW  Elec       q    Type
REMARK                         _______ _______ _______ _____ _____    ______ ____
ROOT
ATOM      1  C   UNL     1       0.946  -5.440   3.613  0.00  0.00    +0.104 C 
ENDROOT
BRANCH   1   2
ATOM      2  N   UNL     1       1.954  -6.434   4.008  0.00  0.00    -0.295 NA
ATOM      3  C   UNL     1       1.322  -7.714   4.357  0.00  0.00    +0.066 C 
ATOM      4  C   UNL     1       2.406  -8.737   4.704  0.00  0.00    -0.063 C 
ATOM      5  N   UNL     1       3.204  -8.241   5.832  0.00  0.00    +0.398 N 
ATOM      6  C   UNL     1       3.849  -6.975   5.460  0.00  0.00    +0.073 C 
ATOM      7  C   UNL     1       2.776  -5.937   5.120  0.00  0.00    +0.096 C 
ATOM      8  H   UNL     1       2.603  -8.091   6.629  0.00  0.00    -0.082 HD
ATOM      9  H   UNL     1       3.911  -8.921   6.069  0.00  0.00    -0.082 HD
BRANCH   6  10
ATOM     10  O   UNL     1       4.638  -6.502   6.553  0.00  0.00    -0.409 OA
ATOM     11  H   UNL     1       5.339  -7.111   6.824  0.00  0.00    +0.207 HD
ENDBRANCH   6  10
ENDBRANCH   1   2
BRANCH   1  15
ATOM     12  C   UNL     1       2.897  -1.824   2.445  0.00  0.00    +0.128 A 
ATOM     13  C   UNL     1       1.732  -1.772   3.186  0.00  0.00    +0.031 A 
ATOM     14  C   UNL     1       1.100  -2.942   3.564  0.00  0.00    +0.007 A 
ATOM     15  C   UNL     1       1.634  -4.165   3.200  0.00  0.00    -0.029 A 
ATOM     16  C   UNL     1       2.799  -4.216   2.458  0.00  0.00    +0.007 A 
ATOM     17  C   UNL     1       3.428  -3.046   2.076  0.00  0.00    +0.031 A 
BRANCH  12  18
ATOM     18  S   UNL     1       3.702  -0.333   1.963  0.00  0.00    +0.151 S 
ATOM     19  O   UNL     1       5.065  -0.662   1.736  0.00  0.00    -0.131 OA
ATOM     20  O   UNL     1       3.304   0.663   2.895  0.00  0.00    -0.131 OA
BRANCH  18  21
ATOM     21  O   UNL     1       3.123   0.076   0.616  0.00  0.00    -0.342 OA
BRANCH  21  25
ATOM     22  C   UNL     1      -0.671   1.681   0.837  0.00  0.00    +0.000 A 
ATOM     23  C   UNL     1       0.433   2.507   0.930  0.00  0.00    +0.004 A 
ATOM     24  C   UNL     1       1.705   1.972   0.857  0.00  0.00    +0.048 A 
ATOM     25  C   UNL     1       1.873   0.605   0.689  0.00  0.00    +0.157 A 
ATOM     26  C   UNL     1       0.762  -0.222   0.596  0.00  0.00    +0.048 A 
ATOM     27  C   UNL     1      -0.507   0.318   0.669  0.00  0.00    +0.004 A 
ENDBRANCH  21  25
ENDBRANCH  18  21
ENDBRANCH  12  18
ENDBRANCH   1  15
BRANCH   1  28
ATOM     28  C   UNL     1       0.128  -5.982   2.439  0.00  0.00    +0.125 C 
BRANCH  28  29
ATOM     29  N   UNL     1      -0.928  -5.026   2.098  0.00  0.00    -0.339 N 
ATOM     30  H   UNL     1      -0.985  -4.178   2.566  0.00  0.00    +0.146 HD
BRANCH  29  31
ATOM     31  C   UNL     1      -1.856  -5.336   1.097  0.00  0.00    +0.069 A 
ATOM     32  C   UNL     1      -1.781  -6.551   0.431  0.00  0.00    +0.026 A 
ATOM     33  C   UNL     1      -2.698  -6.855  -0.557  0.00  0.00    +0.002 A 
ATOM     34  C   UNL     1      -3.693  -5.952  -0.883  0.00  0.00    +0.004 A 
ATOM     35  C   UNL     1      -3.775  -4.739  -0.223  0.00  0.00    +0.047 A 
ATOM     36  C   UNL     1      -2.862  -4.429   0.771  0.00  0.00    +0.138 A 
BRANCH  36  37
ATOM     37  O   UNL     1      -2.945  -3.239   1.425  0.00  0.00    -0.505 OA
ATOM     38  H   UNL     1      -2.440  -2.526   1.010  0.00  0.00    +0.292 HD
ENDBRANCH  36  37
ENDBRANCH  29  31
ENDBRANCH  28  29
ENDBRANCH   1  28
TORSDOF 10
