REMARK  Name = ZINC67102040
REMARK  4 active torsions:
REMARK  status: ('A' for Active; 'I' for Inactive)
REMARK    1  A    between atoms: C_1  and  C_2
REMARK    2  A    between atoms: C_6  and  C_7
REMARK    3  A    between atoms: N_9  and  N_10
REMARK    4  A    between atoms: C_17  and  C_20
REMARK                            x       y       z     vdW  Elec       q    Type
REMARK                         _______ _______ _______ _____ _____    ______ ____
ROOT
ATOM      1  N   UNL     1       0.092  -1.198   7.187  0.00  0.00    -0.218 N 
ATOM      2  C   UNL     1      -0.021  -1.627   5.915  0.00  0.00    +0.319 C 
ATOM      3  O   UNL     1      -0.046  -0.824   5.002  0.00  0.00    -0.251 OA
ATOM      4  N   UNL     1      -0.108  -2.947   5.654  0.00  0.00    -0.279 N 
ATOM      5  C   UNL     1      -0.110  -3.446   4.270  0.00  0.00    +0.137 C 
ATOM      6  C   UNL     1      -1.299  -4.400   4.102  0.00  0.00    +0.179 C 
ATOM      7  O   UNL     1      -1.258  -5.389   5.134  0.00  0.00    -0.369 OA
ATOM      8  C   UNL     1      -1.385  -4.860   6.457  0.00  0.00    +0.166 C 
ATOM      9  C   UNL     1      -0.196  -3.930   6.745  0.00  0.00    +0.145 C 
ATOM     10  H   UNL     1       0.186  -1.839   7.909  0.00  0.00    +0.174 HD
ENDROOT
BRANCH   8  11
ATOM     11  C   UNL     1      -1.392  -5.991   7.452  0.00  0.00    -0.017 A 
ATOM     12  C   UNL     1      -0.539  -7.066   7.283  0.00  0.00    +0.007 A 
ATOM     13  C   UNL     1      -0.545  -8.104   8.196  0.00  0.00    +0.020 A 
ATOM     14  C   UNL     1      -1.404  -8.066   9.280  0.00  0.00    +0.041 A 
ATOM     15  C   UNL     1      -2.257  -6.990   9.449  0.00  0.00    +0.020 A 
ATOM     16  C   UNL     1      -2.247  -5.950   8.538  0.00  0.00    +0.007 A 
ATOM     17 CL   UNL     1      -1.412  -9.369  10.427  0.00  0.00    -0.084 Cl
ENDBRANCH   8  11
BRANCH   1  20
ATOM     18  C   UNL     1       0.084   0.602   8.746  0.00  0.00    +0.267 C 
ATOM     19  O   UNL     1       0.111  -0.205   9.656  0.00  0.00    -0.268 OA
ATOM     20  N   UNL     1       0.073   0.175   7.467  0.00  0.00    -0.229 N 
ATOM     21  H   UNL     1       0.052   0.818   6.742  0.00  0.00    +0.173 HD
BRANCH  18  27
ATOM     22  C   UNL     1       0.103   1.918  11.569  0.00  0.00    +0.045 C 
ATOM     23  C   UNL     1       0.072   2.679  10.269  0.00  0.00    -0.031 A 
ATOM     24  C   UNL     1       0.054   4.052  10.226  0.00  0.00    +0.011 A 
ATOM     25  C   UNL     1       0.027   4.674   9.021  0.00  0.00    +0.046 A 
ATOM     26  S   UNL     1       0.024   3.415   7.908  0.00  0.00    -0.092 S 
ATOM     27  C   UNL     1       0.065   2.038   9.039  0.00  0.00    +0.078 A 
ENDBRANCH  18  27
ENDBRANCH   1  20
TORSDOF 3
