REMARK  Name = ZINC43460611
REMARK  6 active torsions:
REMARK  status: ('A' for Active; 'I' for Inactive)
REMARK    1  A    between atoms: C_1  and  C_2
REMARK    2  A    between atoms: C_2  and  C_23
REMARK    3  A    between atoms: C_4  and  O_22
REMARK    4  A    between atoms: C_9  and  O_13
REMARK    5  A    between atoms: O_13  and  C_14
REMARK    6  A    between atoms: C_14  and  C_15
REMARK                            x       y       z     vdW  Elec       q    Type
REMARK                         _______ _______ _______ _____ _____    ______ ____
ROOT
ATOM      1  C   UNL     1      -0.019   1.526   0.010  0.00  0.00    +0.055 C 
ATOM      2  C   UNL     1       0.002  -0.004   0.002  0.00  0.00    +0.108 C 
ATOM      3  C   UNL     1      -1.435  -0.540   0.040  0.00  0.00    +0.083 C 
ATOM      4  C   UNL     1      -2.142   0.066   1.254  0.00  0.00    +0.152 C 
ATOM      5  C   UNL     1      -1.269  -0.078   2.475  0.00  0.00    +0.023 A 
ATOM      6  C   UNL     1      -1.848   0.053   3.727  0.00  0.00    +0.013 A 
ATOM      7  C   UNL     1      -1.081  -0.069   4.867  0.00  0.00    +0.046 A 
ATOM      8  C   UNL     1       0.280  -0.322   4.763  0.00  0.00    +0.124 A 
ATOM      9  C   UNL     1       0.862  -0.455   3.513  0.00  0.00    +0.091 A 
ATOM     10  C   UNL     1       0.087  -0.335   2.365  0.00  0.00    +0.130 A 
ATOM     11  O   UNL     1       0.692  -0.482   1.157  0.00  0.00    -0.486 OA
ATOM     12  C   UNL     1       0.706  -0.503  -1.262  0.00  0.00    +0.055 C 
ENDROOT
BRANCH   4  13
ATOM     13  O   UNL     1      -3.379  -0.615   1.473  0.00  0.00    -0.387 OA
ATOM     14  H   UNL     1      -3.883  -0.283   2.228  0.00  0.00    +0.210 HD
ENDBRANCH   4  13
BRANCH   8  15
ATOM     15  O   UNL     1       1.039  -0.441   5.884  0.00  0.00    -0.489 OA
BRANCH  15  16
ATOM     16  C   UNL     1       0.370  -0.293   7.138  0.00  0.00    +0.260 C 
BRANCH  16  17
ATOM     17  C   UNL     1       1.380  -0.458   8.276  0.00  0.00    +0.156 C 
ATOM     18  C   UNL     1       0.645  -0.423   9.619  0.00  0.00    +0.035 C 
ATOM     19  C   UNL     1       1.668  -0.528  10.754  0.00  0.00    +0.005 C 
ATOM     20  C   UNL     1       2.684   0.610  10.618  0.00  0.00    +0.028 C 
ATOM     21  C   UNL     1       3.340   0.536   9.237  0.00  0.00    +0.160 C 
ATOM     22  O   UNL     1       2.331   0.608   8.227  0.00  0.00    -0.373 OA
ENDBRANCH  16  17
ENDBRANCH  15  16
ENDBRANCH   8  15
TORSDOF 4
