REMARK  Name = ZINC42028919
REMARK  4 active torsions:
REMARK  status: ('A' for Active; 'I' for Inactive)
REMARK    1  A    between atoms: C_2  and  C_9
REMARK    2  A    between atoms: C_4  and  N_8
REMARK    3  A    between atoms: C_6  and  N_7
REMARK    4  A    between atoms: N_13  and  C_14
REMARK                            x       y       z     vdW  Elec       q    Type
REMARK                         _______ _______ _______ _____ _____    ______ ____
ROOT
ATOM      1  C   UNL     1       1.257   3.606  -0.226  0.00  0.00    +0.182 A 
ATOM      2  N   UNL     1       0.209   4.365  -0.469  0.00  0.00    -0.108 NA
ATOM      3  N   UNL     1       0.419   5.566  -0.066  0.00  0.00    -0.023 NA
ATOM      4  N   UNL     1       1.594   5.665   0.455  0.00  0.00    -0.043 NA
ATOM      5  N   UNL     1       2.184   4.391   0.377  0.00  0.00    -0.222 N 
ENDROOT
BRANCH   5   6
ATOM      6  C   UNL     1       3.515   3.997   0.845  0.00  0.00    +0.114 C 
ATOM      7  C   UNL     1       3.678   4.410   2.304  0.00  0.00    +0.049 C 
ATOM      8  C   UNL     1       4.943   3.776   2.889  0.00  0.00    +0.168 C 
ATOM      9  S   UNL     1       6.389   4.415   1.993  0.00  0.00    -0.031 S 
ATOM     10  O   UNL     1       7.520   3.628   2.341  0.00  0.00    -0.174 OA
ATOM     11  O   UNL     1       6.444   5.824   2.172  0.00  0.00    -0.174 OA
ATOM     12  C   UNL     1       5.949   4.065   0.265  0.00  0.00    +0.168 C 
ATOM     13  C   UNL     1       4.573   4.667  -0.027  0.00  0.00    +0.049 C 
ENDBRANCH   5   6
BRANCH   1  15
ATOM     14  C   UNL     1       2.648   1.634  -0.838  0.00  0.00    +0.034 A 
ATOM     15  C   UNL     1       1.395   2.167  -0.544  0.00  0.00    +0.024 A 
ATOM     16  C   UNL     1       0.271   1.342  -0.549  0.00  0.00    +0.034 A 
ATOM     17  C   UNL     1       0.403  -0.006  -0.847  0.00  0.00    +0.027 A 
ATOM     18  C   UNL     1       1.654  -0.534  -1.139  0.00  0.00    +0.045 A 
ATOM     19  C   UNL     1       2.775   0.285  -1.135  0.00  0.00    +0.027 A 
BRANCH  19  20
ATOM     20  N   UNL     1       4.031  -0.250  -1.431  0.00  0.00    -0.358 N 
ATOM     21  H   UNL     1       4.814   0.322  -1.427  0.00  0.00    +0.142 HD
ATOM     22  H   UNL     1       4.120  -1.193  -1.638  0.00  0.00    +0.142 HD
ENDBRANCH  19  20
BRANCH  17  23
ATOM     23  N   UNL     1      -0.723  -0.833  -0.852  0.00  0.00    -0.358 N 
ATOM     24  H   UNL     1      -1.596  -0.465  -0.648  0.00  0.00    +0.142 HD
ATOM     25  H   UNL     1      -0.630  -1.776  -1.061  0.00  0.00    +0.142 HD
ENDBRANCH  17  23
ENDBRANCH   1  15
TORSDOF 4
