REMARK  Name = ZINC63178288
REMARK  7 active torsions:
REMARK  status: ('A' for Active; 'I' for Inactive)
REMARK    1  A    between atoms: C_1  and  C_2
REMARK    2  A    between atoms: C_2  and  C_4
REMARK    3  A    between atoms: C_2  and  N_10
REMARK    4  A    between atoms: C_14  and  C_17
REMARK    5  A    between atoms: N_19  and  C_20
REMARK    6  A    between atoms: C_20  and  C_21
REMARK    7  A    between atoms: C_21  and  N_22
REMARK                            x       y       z     vdW  Elec       q    Type
REMARK                         _______ _______ _______ _____ _____    ______ ____
ROOT
ATOM      1  N   UNL     1      -1.376  -0.512   0.012  0.00  0.00    +0.385 N 
ATOM      2  C   UNL     1      -2.065  -0.031   1.216  0.00  0.00    -0.078 C 
ATOM      3  C   UNL     1      -3.524  -0.491   1.192  0.00  0.00    -0.018 C 
ATOM      4  C   UNL     1      -3.571  -2.021   1.152  0.00  0.00    +0.009 C 
ATOM      5  C   UNL     1      -2.787  -2.515  -0.067  0.00  0.00    +0.058 C 
ATOM      6  C   UNL     1      -1.355  -1.980   0.004  0.00  0.00    -0.065 C 
ATOM      7  H   UNL     1      -1.863  -0.180  -0.807  0.00  0.00    -0.081 HD
ENDROOT
BRANCH   5   8
ATOM      8  C   UNL     1      -2.763  -4.021  -0.073  0.00  0.00    +0.214 C 
ATOM      9  O   UNL     1      -1.704  -4.611  -0.029  0.00  0.00    -0.276 OA
ATOM     10  N   UNL     1      -3.918  -4.714  -0.127  0.00  0.00    -0.317 N 
ATOM     11  H   UNL     1      -4.765  -4.242  -0.163  0.00  0.00    +0.149 HD
BRANCH  10  12
ATOM     12  C   UNL     1      -3.895  -6.178  -0.134  0.00  0.00    +0.084 C 
BRANCH  12  13
ATOM     13  C   UNL     1      -5.327  -6.711  -0.200  0.00  0.00    -0.067 C 
BRANCH  13  14
ATOM     14  N   UNL     1      -5.304  -8.180  -0.206  0.00  0.00    +0.379 N 
ATOM     15  H   UNL     1      -4.787  -8.505  -1.009  0.00  0.00    -0.090 HD
ATOM     16  H   UNL     1      -4.860  -8.513   0.637  0.00  0.00    -0.090 HD
ATOM     17  H   UNL     1      -6.249  -8.531  -0.249  0.00  0.00    -0.090 HD
ENDBRANCH  13  14
ENDBRANCH  12  13
ENDBRANCH  10  12
ENDBRANCH   5   8
BRANCH   1  19
ATOM     18  C   UNL     1      -0.019   1.526   0.010  0.00  0.00    -0.008 C 
ATOM     19  C   UNL     1       0.002  -0.004   0.002  0.00  0.00    -0.034 C 
BRANCH  19  20
ATOM     20  C   UNL     1       0.707  -0.490  -1.238  0.00  0.00    -0.023 A 
ATOM     21  C   UNL     1       1.980  -0.934  -1.377  0.00  0.00    +0.010 A 
ATOM     22  C   UNL     1       2.418  -1.335  -2.625  0.00  0.00    +0.023 A 
ATOM     23  C   UNL     1       1.561  -1.271  -3.674  0.00  0.00    +0.055 A 
ATOM     24  S   UNL     1       0.081  -0.638  -2.903  0.00  0.00    -0.088 S 
ATOM     25 BR   UNL     1       1.854  -1.740  -5.483  0.00  0.00    -0.043 Br
ENDBRANCH  19  20
ENDBRANCH   1  19
TORSDOF 6
