REMARK  Name = ZINC39664467
REMARK  9 active torsions:
REMARK  status: ('A' for Active; 'I' for Inactive)
REMARK    1  A    between atoms: C_1  and  C_2
REMARK    2  A    between atoms: C_2  and  O_3
REMARK    3  A    between atoms: O_3  and  C_4
REMARK    4  A    between atoms: C_8  and  C_10
REMARK    5  A    between atoms: C_14  and  C_23
REMARK    6  A    between atoms: N_25  and  C_26
REMARK    7  A    between atoms: C_26  and  C_27
REMARK    8  A    between atoms: C_27  and  C_29
REMARK    9  A    between atoms: C_27  and  N_35
REMARK                            x       y       z     vdW  Elec       q    Type
REMARK                         _______ _______ _______ _____ _____    ______ ____
ROOT
ATOM      1  C   UNL     1       1.993  -4.225  -3.876  0.00  0.00    +0.247 C 
ATOM      2  O   UNL     1       2.326  -3.480  -4.778  0.00  0.00    -0.270 OA
ATOM      3  N   UNL     1       2.216  -5.550  -3.980  0.00  0.00    -0.296 N 
ATOM      4  C   UNL     1       1.770  -6.621  -3.058  0.00  0.00    +0.121 C 
ATOM      5  C   UNL     1       1.365  -7.789  -3.984  0.00  0.00    +0.100 C 
ATOM      6  C   UNL     1       2.152  -7.552  -5.284  0.00  0.00    -0.004 C 
ATOM      7  C   UNL     1       2.958  -6.266  -5.046  0.00  0.00    +0.115 C 
ATOM      8  C   UNL     1       3.092  -8.723  -5.554  0.00  0.00    -0.010 C 
ATOM      9  C   UNL     1       3.821  -8.491  -6.880  0.00  0.00    -0.082 C 
ATOM     10  N   UNL     1       2.840  -8.364  -7.965  0.00  0.00    +0.379 N 
ATOM     11  C   UNL     1       2.000  -7.181  -7.744  0.00  0.00    -0.082 C 
ATOM     12  C   UNL     1       1.194  -7.357  -6.455  0.00  0.00    -0.010 C 
ATOM     13  H   UNL     1       3.324  -8.272  -8.845  0.00  0.00    -0.086 HD
ATOM     14  H   UNL     1       2.258  -9.188  -7.988  0.00  0.00    -0.086 HD
ENDROOT
BRANCH   1  19
ATOM     15  C   UNL     1       0.054  -1.956  -1.590  0.00  0.00    +0.121 A 
ATOM     16  C   UNL     1       0.132  -2.654  -0.392  0.00  0.00    +0.046 A 
ATOM     17  C   UNL     1       0.811  -3.856  -0.329  0.00  0.00    +0.004 A 
ATOM     18  C   UNL     1       1.418  -4.371  -1.457  0.00  0.00    +0.013 A 
ATOM     19  C   UNL     1       1.345  -3.677  -2.666  0.00  0.00    +0.040 A 
ATOM     20  C   UNL     1       0.653  -2.466  -2.729  0.00  0.00    +0.058 A 
BRANCH  15  21
ATOM     21  O   UNL     1      -0.615  -0.775  -1.646  0.00  0.00    -0.492 OA
BRANCH  21  23
ATOM     22  C   UNL     1      -1.913   1.026  -0.691  0.00  0.00    +0.048 C 
ATOM     23  C   UNL     1      -1.209  -0.308  -0.433  0.00  0.00    +0.225 C 
ENDBRANCH  21  23
ENDBRANCH  15  21
ENDBRANCH   1  19
BRANCH   5  24
ATOM     24  C   UNL     1       1.753  -9.108  -3.366  0.00  0.00    +0.218 C 
ATOM     25  O   UNL     1       2.663  -9.158  -2.566  0.00  0.00    -0.275 OA
ATOM     26  N   UNL     1       1.089 -10.231  -3.703  0.00  0.00    -0.313 N 
ATOM     27  H   UNL     1       0.361 -10.191  -4.343  0.00  0.00    +0.149 HD
BRANCH  26  28
ATOM     28  C   UNL     1       1.466 -11.513  -3.102  0.00  0.00    +0.127 C 
BRANCH  28  29
ATOM     29  C   UNL     1       0.563 -12.619  -3.651  0.00  0.00    +0.104 C 
BRANCH  29  30
ATOM     30  C   UNL     1       0.868 -13.914  -2.944  0.00  0.00    -0.029 A 
ATOM     31  C   UNL     1       0.611 -15.120  -3.568  0.00  0.00    +0.005 A 
ATOM     32  C   UNL     1       0.891 -16.308  -2.919  0.00  0.00    +0.000 A 
ATOM     33  C   UNL     1       1.429 -16.291  -1.646  0.00  0.00    +0.000 A 
ATOM     34  C   UNL     1       1.688 -15.085  -1.022  0.00  0.00    +0.000 A 
ATOM     35  C   UNL     1       1.411 -13.896  -1.673  0.00  0.00    +0.005 A 
ENDBRANCH  29  30
BRANCH  29  36
ATOM     36  N   UNL     1      -0.844 -12.259  -3.427  0.00  0.00    -0.290 NA
ATOM     37  C   UNL     1      -1.105 -12.021  -2.000  0.00  0.00    +0.113 C 
ATOM     38  C   UNL     1      -2.564 -11.591  -1.819  0.00  0.00    +0.175 C 
ATOM     39  O   UNL     1      -3.423 -12.595  -2.367  0.00  0.00    -0.377 OA
ATOM     40  C   UNL     1      -3.195 -12.851  -3.756  0.00  0.00    +0.175 C 
ATOM     41  C   UNL     1      -1.744 -13.294  -3.956  0.00  0.00    +0.113 C 
ENDBRANCH  29  36
ENDBRANCH  28  29
ENDBRANCH  26  28
ENDBRANCH   5  24
TORSDOF 8
