REMARK  Name = ZINC22009909
REMARK  0 active torsions:
REMARK  status: ('A' for Active; 'I' for Inactive)
REMARK                            x       y       z     vdW  Elec       q    Type
REMARK                         _______ _______ _______ _____ _____    ______ ____
ROOT
ATOM      1  C   UNL     1      -1.116   5.928   0.961  0.00  0.00    +0.020 C 
ATOM      2  C   UNL     1       0.036   5.337   0.571  0.00  0.00    +0.008 C 
ATOM      3  C   UNL     1       0.032   3.958   0.240  0.00  0.00    -0.009 C 
ATOM      4  C   UNL     1       1.167   3.244   0.282  0.00  0.00    +0.082 C 
ATOM      5  N   UNL     1       1.147   1.890   0.001  0.00  0.00    -0.276 N 
ATOM      6  C   UNL     1      -0.014   1.212   0.009  0.00  0.00    +0.304 C 
ATOM      7  O   UNL     1       0.002  -0.004   0.002  0.00  0.00    -0.252 OA
ATOM      8  N   UNL     1      -1.194   1.858   0.018  0.00  0.00    -0.289 N 
ATOM      9  C   UNL     1      -1.261   3.301  -0.156  0.00  0.00    +0.130 C 
ATOM     10  C   UNL     1      -2.415   3.906   0.583  0.00  0.00    +0.020 C 
ATOM     11  C   UNL     1      -2.337   5.133   1.097  0.00  0.00    +0.039 C 
ATOM     12 CL   UNL     1      -3.702   5.797   1.939  0.00  0.00    -0.084 Cl
ATOM     13  H   UNL     1       2.084   1.363  -0.229  0.00  0.00    +0.156 HD
ATOM     14  H   UNL     1      -2.117   1.278   0.160  0.00  0.00    +0.151 HD
ENDROOT
TORSDOF 0
