REMARK  Name = ZINC37486226
REMARK  8 active torsions:
REMARK  status: ('A' for Active; 'I' for Inactive)
REMARK    1  A    between atoms: C_1  and  C_2
REMARK    2  A    between atoms: C_2  and  C_3
REMARK    3  A    between atoms: C_2  and  C_4
REMARK    4  A    between atoms: C_4  and  N_5
REMARK    5  A    between atoms: C_6  and  N_22
REMARK    6  A    between atoms: C_7  and  N_14
REMARK    7  A    between atoms: N_14  and  C_15
REMARK    8  A    between atoms: C_15  and  C_16
REMARK                            x       y       z     vdW  Elec       q    Type
REMARK                         _______ _______ _______ _____ _____    ______ ____
ROOT
ATOM      1  N   UNL     1      -0.008  -0.140   2.444  0.00  0.00    -0.280 N 
ATOM      2  C   UNL     1       0.241   1.064   3.062  0.00  0.00    +0.127 A 
ATOM      3  C   UNL     1      -0.465   1.401   4.184  0.00  0.00    +0.131 A 
ATOM      4  C   UNL     1      -1.431   0.505   4.677  0.00  0.00    +0.277 A 
ATOM      5  O   UNL     1      -2.073   0.784   5.676  0.00  0.00    -0.266 OA
ATOM      6  N   UNL     1      -1.642  -0.663   4.040  0.00  0.00    -0.273 N 
ATOM      7  H   UNL     1      -2.308  -1.282   4.378  0.00  0.00    +0.173 HD
ATOM      8  C   UNL     1      -0.942  -0.976   2.934  0.00  0.00    +0.331 A 
ATOM      9  O   UNL     1      -1.152  -2.034   2.373  0.00  0.00    -0.246 OA
ENDROOT
BRANCH   2  10
ATOM     10  N   UNL     1       1.193   1.920   2.557  0.00  0.00    -0.343 N 
ATOM     11  H   UNL     1       1.691   1.677   1.761  0.00  0.00    +0.144 HD
ATOM     12  H   UNL     1       1.365   2.768   2.996  0.00  0.00    +0.144 HD
ENDBRANCH   2  10
BRANCH   3  13
ATOM     13  N   UNL     1      -0.228   2.632   4.839  0.00  0.00    -0.337 N 
ATOM     14  H   UNL     1       0.440   3.245   4.493  0.00  0.00    +0.146 HD
BRANCH  13  15
ATOM     15  C   UNL     1      -0.991   2.982   6.040  0.00  0.00    +0.105 C 
BRANCH  15  16
ATOM     16  C   UNL     1      -0.543   4.355   6.546  0.00  0.00    +0.006 C 
ATOM     17  C   UNL     1       0.916   4.280   7.001  0.00  0.00    +0.005 C 
ATOM     18  C   UNL     1       1.363   5.652   7.507  0.00  0.00    +0.000 C 
ATOM     19  C   UNL     1       0.483   6.073   8.686  0.00  0.00    +0.000 C 
ATOM     20  C   UNL     1      -0.976   6.149   8.231  0.00  0.00    +0.000 C 
ATOM     21  C   UNL     1      -1.424   4.776   7.724  0.00  0.00    +0.005 C 
ENDBRANCH  15  16
ENDBRANCH  13  15
ENDBRANCH   3  13
BRANCH   1  22
ATOM     22  C   UNL     1       0.742  -0.511   1.242  0.00  0.00    +0.131 C 
BRANCH  22  24
ATOM     23  C   UNL     1      -0.019   1.526   0.010  0.00  0.00    +0.009 C 
ATOM     24  C   UNL     1       0.002  -0.004   0.002  0.00  0.00    +0.003 C 
ATOM     25  C   UNL     1       0.718  -0.497  -1.257  0.00  0.00    +0.009 C 
ENDBRANCH  22  24
ENDBRANCH   1  22
TORSDOF 6
