REMARK  Name = ZINC59729816
REMARK  6 active torsions:
REMARK  status: ('A' for Active; 'I' for Inactive)
REMARK    1  A    between atoms: C_4  and  C_7
REMARK    2  A    between atoms: C_8  and  C_9
REMARK    3  A    between atoms: N_11  and  C_12
REMARK    4  A    between atoms: C_12  and  C_23
REMARK    5  A    between atoms: C_13  and  C_14
REMARK    6  A    between atoms: C_18  and  N_20
REMARK                            x       y       z     vdW  Elec       q    Type
REMARK                         _______ _______ _______ _____ _____    ______ ____
ROOT
ATOM      1  C   UNL     1       6.182  -4.733  -0.102  0.00  0.00    +0.096 C 
ATOM      2  C   UNL     1       6.168  -6.082  -0.008  0.00  0.00    +0.036 C 
ENDROOT
BRANCH   2   3
ATOM      3  C   UNL     1       7.410  -6.812   0.291  0.00  0.00    -0.021 A 
ATOM      4  C   UNL     1       8.399  -6.221   1.084  0.00  0.00    +0.008 A 
ATOM      5  C   UNL     1       9.560  -6.911   1.359  0.00  0.00    +0.003 A 
ATOM      6  C   UNL     1       9.749  -8.185   0.853  0.00  0.00    +0.033 A 
ATOM      7  C   UNL     1       8.775  -8.777   0.068  0.00  0.00    +0.127 A 
ATOM      8  C   UNL     1       7.605  -8.102  -0.211  0.00  0.00    +0.040 A 
BRANCH   7   9
ATOM      9  N   UNL     1       8.987 -10.140  -0.469  0.00  0.00    +0.056 N 
ATOM     10  O   UNL     1      10.010 -10.735  -0.221  0.00  0.00    -0.126 OA
ATOM     11  O   UNL     1       8.138 -10.659  -1.155  0.00  0.00    -0.126 OA
ENDBRANCH   7   9
ENDBRANCH   2   3
BRANCH   1  12
ATOM     12  C   UNL     1       7.459  -4.005  -0.051  0.00  0.00    +0.256 C 
ATOM     13  O   UNL     1       7.724  -3.307   0.909  0.00  0.00    -0.269 OA
ATOM     14  N   UNL     1       8.336  -4.113  -1.069  0.00  0.00    -0.324 N 
ATOM     15  H   UNL     1       8.096  -4.611  -1.866  0.00  0.00    +0.145 HD
ATOM     16  H   UNL     1       9.208  -3.693  -1.004  0.00  0.00    +0.145 HD
ENDBRANCH   1  12
BRANCH   1  19
ATOM     17  C   UNL     1       5.003  -2.696  -0.440  0.00  0.00    +0.241 C 
ATOM     18  O   UNL     1       6.058  -2.091  -0.402  0.00  0.00    -0.270 OA
ATOM     19  N   UNL     1       4.983  -4.030  -0.246  0.00  0.00    -0.278 N 
ATOM     20  H   UNL     1       4.136  -4.502  -0.207  0.00  0.00    +0.155 HD
BRANCH  17  22
ATOM     21  C   UNL     1       3.775  -0.641  -0.891  0.00  0.00    +0.013 C 
ATOM     22  C   UNL     1       3.755  -1.976  -0.697  0.00  0.00    +0.068 C 
BRANCH  21  26
ATOM     23  C   UNL     1       0.159   1.447  -1.636  0.00  0.00    +0.000 A 
ATOM     24  C   UNL     1       1.357   2.139  -1.593  0.00  0.00    +0.001 A 
ATOM     25  C   UNL     1       2.536   1.467  -1.351  0.00  0.00    +0.008 A 
ATOM     26  C   UNL     1       2.520   0.084  -1.149  0.00  0.00    -0.025 A 
ATOM     27  C   UNL     1       1.305  -0.608  -1.194  0.00  0.00    +0.008 A 
ATOM     28  C   UNL     1       0.134   0.078  -1.438  0.00  0.00    +0.001 A 
ENDBRANCH  21  26
ENDBRANCH  17  22
ENDBRANCH   1  19
TORSDOF 6
