REMARK  Name = ZINC03091788
REMARK  6 active torsions:
REMARK  status: ('A' for Active; 'I' for Inactive)
REMARK    1  A    between atoms: C_3  and  N_8
REMARK    2  A    between atoms: N_8  and  C_9
REMARK    3  A    between atoms: C_9  and  C_10
REMARK    4  A    between atoms: N_12  and  N_13
REMARK    5  A    between atoms: C_14  and  C_15
REMARK    6  A    between atoms: C_18  and  N_21
REMARK                            x       y       z     vdW  Elec       q    Type
REMARK                         _______ _______ _______ _____ _____    ______ ____
ROOT
ATOM      1  C   UNL     1       1.141   2.087   0.002  0.00  0.00    +0.249 C 
ATOM      2  O   UNL     1       2.200   1.494  -0.011  0.00  0.00    -0.272 OA
ATOM      3  N   UNL     1      -0.017   1.397   0.010  0.00  0.00    -0.206 N 
ATOM      4  H   UNL     1      -0.864   1.870   0.016  0.00  0.00    +0.177 HD
ENDROOT
BRANCH   3   5
ATOM      5  N   UNL     1       0.002  -0.004   0.002  0.00  0.00    -0.188 NA
ATOM      6  C   UNL     1      -1.113  -0.668   0.009  0.00  0.00    +0.138 C 
BRANCH   6   7
ATOM      7  C   UNL     1      -1.093  -2.143   0.001  0.00  0.00    -0.005 A 
ATOM      8  C   UNL     1       0.124  -2.828  -0.020  0.00  0.00    +0.012 A 
ATOM      9  C   UNL     1       0.136  -4.207  -0.024  0.00  0.00    +0.033 A 
ATOM     10  C   UNL     1      -1.055  -4.912  -0.016  0.00  0.00    +0.126 A 
ATOM     11  C   UNL     1      -2.264  -4.240   0.000  0.00  0.00    +0.033 A 
ATOM     12  C   UNL     1      -2.291  -2.861   0.009  0.00  0.00    +0.012 A 
BRANCH  10  13
ATOM     13  N   UNL     1      -1.035  -6.392  -0.025  0.00  0.00    +0.056 N 
ATOM     14  O   UNL     1      -2.082  -7.015  -0.018  0.00  0.00    -0.126 OA
ATOM     15  O   UNL     1       0.028  -6.987  -0.039  0.00  0.00    -0.126 OA
ENDBRANCH  10  13
ENDBRANCH   6   7
ENDBRANCH   3   5
BRANCH   1  16
ATOM     16  C   UNL     1       1.121   3.593   0.011  0.00  0.00    +0.199 C 
BRANCH  16  17
ATOM     17  N   UNL     1       2.495   4.100   0.000  0.00  0.00    -0.335 N 
ATOM     18  H   UNL     1       3.241   3.480  -0.010  0.00  0.00    +0.147 HD
BRANCH  17  21
ATOM     19  C   UNL     1       1.902   7.727   0.025  0.00  0.00    +0.003 A 
ATOM     20  C   UNL     1       1.665   6.366   0.015  0.00  0.00    +0.023 A 
ATOM     21  C   UNL     1       2.732   5.477   0.005  0.00  0.00    +0.029 A 
ATOM     22  C   UNL     1       4.034   5.959  -0.004  0.00  0.00    +0.038 A 
ATOM     23  C   UNL     1       4.264   7.322   0.001  0.00  0.00    +0.020 A 
ATOM     24  C   UNL     1       3.199   8.205   0.016  0.00  0.00    +0.015 A 
ATOM     25 BR   UNL     1       6.037   7.980  -0.013  0.00  0.00    -0.050 Br
ENDBRANCH  17  21
ENDBRANCH  16  17
ENDBRANCH   1  16
TORSDOF 6
