REMARK  Name = ZINC44784471
REMARK  7 active torsions:
REMARK  status: ('A' for Active; 'I' for Inactive)
REMARK    1  A    between atoms: C_1  and  C_2
REMARK    2  A    between atoms: C_5  and  C_19
REMARK    3  A    between atoms: C_10  and  C_12
REMARK    4  A    between atoms: C_12  and  C_13
REMARK    5  A    between atoms: C_12  and  C_14
REMARK    6  A    between atoms: C_12  and  C_15
REMARK    7  A    between atoms: N_16  and  O_17
REMARK                            x       y       z     vdW  Elec       q    Type
REMARK                         _______ _______ _______ _____ _____    ______ ____
ROOT
ATOM      1  C   UNL     1       1.796   2.496  -0.022  0.00  0.00    +0.009 C 
ATOM      2  C   UNL     1       1.148   1.111   0.043  0.00  0.00    +0.004 C 
ATOM      3  C   UNL     1      -0.372   1.263   0.146  0.00  0.00    +0.009 C 
ATOM      4  C   UNL     1      -1.023  -0.121   0.179  0.00  0.00    +0.004 C 
ATOM      5  C   UNL     1      -0.529  -0.885   1.411  0.00  0.00    +0.111 C 
ATOM      6  N   UNL     1       0.940  -0.910   1.394  0.00  0.00    -0.300 N 
ATOM      7  C   UNL     1       1.667   0.361   1.274  0.00  0.00    +0.111 C 
ATOM      8  C   UNL     1       1.608  -2.077   1.488  0.00  0.00    +0.228 C 
ATOM      9  O   UNL     1       1.001  -3.110   1.678  0.00  0.00    -0.275 OA
ATOM     10  C   UNL     1      -2.544   0.032   0.248  0.00  0.00    +0.009 C 
ENDROOT
BRANCH   8  11
ATOM     11  C   UNL     1       3.109  -2.098   1.356  0.00  0.00    +0.100 C 
ATOM     12  C   UNL     1       3.510  -1.512   0.001  0.00  0.00    +0.028 C 
ATOM     13  C   UNL     1       3.731  -1.264   2.478  0.00  0.00    +0.028 C 
BRANCH  11  14
ATOM     14  C   UNL     1       3.601  -3.519   1.454  0.00  0.00    +0.146 C 
ATOM     15  N   UNL     1       4.253  -4.046   0.471  0.00  0.00    -0.076 NA
ATOM     16  N   UNL     1       3.357  -4.256   2.592  0.00  0.00    -0.343 N 
ATOM     17  H   UNL     1       2.867  -3.860   3.330  0.00  0.00    +0.144 HD
ATOM     18  H   UNL     1       3.674  -5.170   2.655  0.00  0.00    +0.144 HD
BRANCH  15  19
ATOM     19  O   UNL     1       4.716  -5.381   0.564  0.00  0.00    -0.408 OA
ATOM     20  H   UNL     1       5.193  -5.687  -0.220  0.00  0.00    +0.328 HD
ENDBRANCH  15  19
ENDBRANCH  11  14
ENDBRANCH   8  11
TORSDOF 3
