REMARK  Name = ZINC40778118
REMARK  3 active torsions:
REMARK  status: ('A' for Active; 'I' for Inactive)
REMARK    1  A    between atoms: C_4  and  N_8
REMARK    2  A    between atoms: C_10  and  N_23
REMARK    3  A    between atoms: C_11  and  N_15
REMARK                            x       y       z     vdW  Elec       q    Type
REMARK                         _______ _______ _______ _____ _____    ______ ____
ROOT
ATOM      1  N   UNL     1       3.622  -0.651  -0.041  0.00  0.00    -0.297 N 
ATOM      2  C   UNL     1       3.646  -2.037   0.058  0.00  0.00    +0.149 A 
ATOM      3  C   UNL     1       4.860  -2.721   0.154  0.00  0.00    +0.106 A 
ATOM      4  C   UNL     1       4.827  -4.113   0.251  0.00  0.00    +0.150 A 
ATOM      5  N   UNL     1       3.648  -4.731   0.247  0.00  0.00    -0.219 NA
ATOM      6  C   UNL     1       2.525  -4.049   0.154  0.00  0.00    +0.225 A 
ATOM      7  N   UNL     1       2.512  -2.734   0.067  0.00  0.00    -0.219 NA
ATOM      8  H   UNL     1       4.452  -0.157  -0.130  0.00  0.00    +0.154 HD
ENDROOT
BRANCH   4   9
ATOM      9  N   UNL     1       6.007  -4.842   0.349  0.00  0.00    -0.283 N 
ATOM     10  C   UNL     1       5.968  -6.234   0.339  0.00  0.00    +0.124 A 
ATOM     11  C   UNL     1       7.157  -6.956   0.331  0.00  0.00    +0.045 A 
ATOM     12  C   UNL     1       7.104  -8.338   0.321  0.00  0.00    +0.020 A 
ATOM     13  C   UNL     1       5.859  -8.954   0.319  0.00  0.00    +0.036 A 
ATOM     14  C   UNL     1       4.719  -8.174   0.327  0.00  0.00    +0.128 A 
ATOM     15  N   UNL     1       4.801  -6.857   0.342  0.00  0.00    -0.239 NA
ATOM     16 BR   UNL     1       5.726 -10.840   0.305  0.00  0.00    -0.049 Br
ATOM     17  H   UNL     1       6.857  -4.381   0.425  0.00  0.00    +0.155 HD
ENDBRANCH   4   9
BRANCH   1  21
ATOM     18  C   UNL     1      -0.014   1.382   0.047  0.00  0.00    +0.021 A 
ATOM     19  C   UNL     1       1.083   1.957  -0.568  0.00  0.00    +0.023 A 
ATOM     20  C   UNL     1       2.290   1.286  -0.599  0.00  0.00    +0.062 A 
ATOM     21  C   UNL     1       2.402   0.031  -0.011  0.00  0.00    +0.052 A 
ATOM     22  C   UNL     1       1.299  -0.543   0.607  0.00  0.00    +0.044 A 
ATOM     23  C   UNL     1       0.094   0.134   0.634  0.00  0.00    +0.043 A 
ATOM     24 CL   UNL     1      -1.286  -0.583   1.406  0.00  0.00    -0.083 Cl
ATOM     25 CL   UNL     1       3.667   2.008  -1.373  0.00  0.00    -0.082 Cl
ENDBRANCH   1  21
BRANCH   3  26
ATOM     26  N   UNL     1       6.080  -2.027   0.154  0.00  0.00    -0.353 N 
ATOM     27  H   UNL     1       6.088  -1.059   0.086  0.00  0.00    +0.143 HD
ATOM     28  H   UNL     1       6.916  -2.515   0.222  0.00  0.00    +0.143 HD
ENDBRANCH   3  26
TORSDOF 3
