REMARK  Name = ZINC39583721
REMARK  6 active torsions:
REMARK  status: ('A' for Active; 'I' for Inactive)
REMARK    1  A    between atoms: C_9  and  C_11
REMARK    2  A    between atoms: C_11  and  S_12
REMARK    3  A    between atoms: S_12  and  C_13
REMARK    4  A    between atoms: C_17  and  C_26
REMARK    5  A    between atoms: N_19  and  C_20
REMARK    6  A    between atoms: C_20  and  C_21
REMARK                            x       y       z     vdW  Elec       q    Type
REMARK                         _______ _______ _______ _____ _____    ______ ____
ROOT
ATOM      1  C   UNL     1       5.209  -5.718  -1.225  0.00  0.00    +0.201 C 
ATOM      2  N   UNL     1       4.730  -6.805  -0.341  0.00  0.00    -0.229 NA
ATOM      3  N   UNL     1       5.927  -7.229   0.402  0.00  0.00    -0.233 NA
ATOM      4  C   UNL     1       6.640  -5.948   0.648  0.00  0.00    +0.172 C 
ATOM      5  N   UNL     1       6.428  -5.169  -0.595  0.00  0.00    -0.250 NA
ATOM      6  H   UNL     1       4.350  -7.569  -0.881  0.00  0.00    +0.143 HD
ATOM      7  H   UNL     1       5.673  -7.674   1.272  0.00  0.00    +0.143 HD
ENDROOT
BRANCH   4   8
ATOM      8  C   UNL     1       8.109  -6.197   0.872  0.00  0.00    -0.013 A 
ATOM      9  C   UNL     1       9.038  -5.247   0.491  0.00  0.00    +0.006 A 
ATOM     10  C   UNL     1      10.386  -5.475   0.696  0.00  0.00    +0.002 A 
ATOM     11  C   UNL     1      10.806  -6.654   1.283  0.00  0.00    +0.020 A 
ATOM     12  C   UNL     1       9.877  -7.605   1.665  0.00  0.00    +0.041 A 
ATOM     13  C   UNL     1       8.528  -7.374   1.465  0.00  0.00    +0.026 A 
ATOM     14 CL   UNL     1      10.405  -9.086   2.402  0.00  0.00    -0.084 Cl
ENDBRANCH   4   8
BRANCH   1  15
ATOM     15  S   UNL     1       3.944  -4.425  -1.362  0.00  0.00    -0.117 S 
BRANCH  15  16
ATOM     16  C   UNL     1       2.733  -5.117  -2.522  0.00  0.00    +0.146 C 
BRANCH  16  25
ATOM     17  C   UNL     1      -1.676  -1.114  -3.433  0.00  0.00    +0.002 A 
ATOM     18  C   UNL     1      -2.269  -1.803  -2.385  0.00  0.00    +0.002 A 
ATOM     19  C   UNL     1      -1.632  -2.858  -1.796  0.00  0.00    +0.030 A 
ATOM     20  C   UNL     1      -0.372  -3.253  -2.252  0.00  0.00    +0.089 A 
ATOM     21  C   UNL     1       0.229  -2.556  -3.314  0.00  0.00    +0.066 A 
ATOM     22  C   UNL     1      -0.433  -1.486  -3.899  0.00  0.00    +0.028 A 
ATOM     23  N   UNL     1       1.446  -3.170  -3.532  0.00  0.00    -0.341 N 
ATOM     24  H   UNL     1       2.103  -2.922  -4.202  0.00  0.00    +0.167 HD
ATOM     25  C   UNL     1       1.554  -4.185  -2.634  0.00  0.00    +0.118 A 
ATOM     26  N   UNL     1       0.492  -4.234  -1.885  0.00  0.00    -0.232 NA
ENDBRANCH  16  25
ENDBRANCH  15  16
ENDBRANCH   1  15
BRANCH   5  27
ATOM     27  C   UNL     1       6.269  -3.739  -0.299  0.00  0.00    +0.163 C 
BRANCH  27  28
ATOM     28  C   UNL     1       6.539  -2.936  -1.546  0.00  0.00    +0.119 A 
ATOM     29  C   UNL     1       5.608  -2.455  -2.389  0.00  0.00    +0.046 A 
ATOM     30  C   UNL     1       6.299  -1.768  -3.414  0.00  0.00    +0.041 A 
ATOM     31  C   UNL     1       7.611  -1.869  -3.135  0.00  0.00    +0.195 A 
ATOM     32  O   UNL     1       7.750  -2.573  -1.999  0.00  0.00    -0.467 OA
ENDBRANCH  27  28
ENDBRANCH   5  27
TORSDOF 6
