REMARK  Name = ZINC58331451
REMARK  10 active torsions:
REMARK  status: ('A' for Active; 'I' for Inactive)
REMARK    1  A    between atoms: C_1  and  C_2
REMARK    2  A    between atoms: C_2  and  C_3
REMARK    3  A    between atoms: C_2  and  C_4
REMARK    4  A    between atoms: C_2  and  C_5
REMARK    5  A    between atoms: N_13  and  C_17
REMARK    6  A    between atoms: C_17  and  C_18
REMARK    7  A    between atoms: N_20  and  C_21
REMARK    8  A    between atoms: C_21  and  C_22
REMARK    9  A    between atoms: C_22  and  C_23
REMARK   10  A    between atoms: C_27  and  C_29
REMARK                            x       y       z     vdW  Elec       q    Type
REMARK                         _______ _______ _______ _____ _____    ______ ____
ROOT
ATOM      1  C   UNL     1       5.623  -3.874  -4.166  0.00  0.00    +0.213 C 
ENDROOT
BRANCH   1  10
ATOM      2  C   UNL     1       0.718  -0.497  -1.257  0.00  0.00    -0.005 C 
ATOM      3  C   UNL     1       0.737  -2.027  -1.266  0.00  0.00    +0.006 C 
ATOM      4  C   UNL     1       1.444  -2.520  -2.531  0.00  0.00    +0.035 C 
ATOM      5  C   UNL     1       2.869  -1.978  -2.563  0.00  0.00    +0.113 C 
ATOM      6  C   UNL     1       2.866  -0.453  -2.532  0.00  0.00    +0.035 C 
ATOM      7  C   UNL     1       2.154   0.032  -1.267  0.00  0.00    +0.006 C 
ATOM      8  C   UNL     1       3.598  -2.480  -3.787  0.00  0.00    +0.247 C 
ATOM      9  O   UNL     1       3.308  -2.281  -4.947  0.00  0.00    -0.273 OA
ATOM     10  N   UNL     1       4.640  -3.197  -3.317  0.00  0.00    -0.215 N 
ATOM     11  C   UNL     1       4.664  -3.212  -1.979  0.00  0.00    +0.310 C 
ATOM     12  O   UNL     1       5.508  -3.792  -1.325  0.00  0.00    -0.252 OA
ATOM     13  N   UNL     1       3.647  -2.513  -1.439  0.00  0.00    -0.285 N 
ATOM     14  H   UNL     1       3.466  -2.388  -0.494  0.00  0.00    +0.151 HD
BRANCH   2  16
ATOM     15  C   UNL     1      -0.019   1.526   0.010  0.00  0.00    +0.011 C 
ATOM     16  C   UNL     1       0.002  -0.004   0.002  0.00  0.00    -0.035 C 
ATOM     17  C   UNL     1       0.742  -0.511   1.242  0.00  0.00    +0.011 C 
ATOM     18  C   UNL     1      -1.433  -0.534   0.013  0.00  0.00    +0.011 C 
ENDBRANCH   2  16
ENDBRANCH   1  10
BRANCH   1  19
ATOM     19  C   UNL     1       6.765  -2.936  -4.459  0.00  0.00    +0.231 C 
ATOM     20  O   UNL     1       6.759  -1.812  -4.003  0.00  0.00    -0.274 OA
ATOM     21  N   UNL     1       7.794  -3.346  -5.227  0.00  0.00    -0.314 N 
ATOM     22  H   UNL     1       7.799  -4.245  -5.592  0.00  0.00    +0.149 HD
BRANCH  21  23
ATOM     23  C   UNL     1       8.905  -2.434  -5.512  0.00  0.00    +0.109 C 
BRANCH  23  24
ATOM     24  C   UNL     1       9.931  -3.142  -6.398  0.00  0.00    +0.054 C 
BRANCH  24  25
ATOM     25  C   UNL     1      11.074  -2.204  -6.691  0.00  0.00    -0.045 A 
ATOM     26  C   UNL     1      11.022  -1.377  -7.799  0.00  0.00    +0.004 A 
ATOM     27  C   UNL     1      12.066  -0.512  -8.075  0.00  0.00    +0.001 A 
ATOM     28  C   UNL     1      13.168  -0.470  -7.245  0.00  0.00    +0.013 A 
ATOM     29  C   UNL     1      13.227  -1.302  -6.126  0.00  0.00    +0.037 A 
ATOM     30  C   UNL     1      12.167  -2.167  -5.850  0.00  0.00    +0.016 A 
BRANCH  29  31
ATOM     31  C   UNL     1      14.404  -1.262  -5.233  0.00  0.00    +0.242 C 
ATOM     32  O   UNL     1      14.453  -1.987  -4.259  0.00  0.00    -0.270 OA
ATOM     33  N   UNL     1      15.424  -0.421  -5.499  0.00  0.00    -0.325 N 
ATOM     34  H   UNL     1      15.385   0.157  -6.276  0.00  0.00    +0.145 HD
ATOM     35  H   UNL     1      16.197  -0.395  -4.913  0.00  0.00    +0.145 HD
ENDBRANCH  29  31
ENDBRANCH  24  25
ENDBRANCH  23  24
ENDBRANCH  21  23
ENDBRANCH   1  19
TORSDOF 7
