REMARK  Name = ZINC53008426
REMARK  6 active torsions:
REMARK  status: ('A' for Active; 'I' for Inactive)
REMARK    1  A    between atoms: C_1  and  C_2
REMARK    2  A    between atoms: C_5  and  N_20
REMARK    3  A    between atoms: C_6  and  C_8
REMARK    4  A    between atoms: C_12  and  C_19
REMARK    5  A    between atoms: C_16  and  C_18
REMARK    6  A    between atoms: N_20  and  N_21
REMARK                            x       y       z     vdW  Elec       q    Type
REMARK                         _______ _______ _______ _____ _____    ______ ____
ROOT
ATOM      1  C   UNL     1      -1.814   0.558  -0.586  0.00  0.00    +0.044 C 
ATOM      2  C   UNL     1      -0.709  -0.405  -0.237  0.00  0.00    -0.050 A 
ATOM      3  C   UNL     1       0.370  -0.557  -1.094  0.00  0.00    +0.005 A 
ATOM      4  C   UNL     1       1.388  -1.435  -0.787  0.00  0.00    +0.025 A 
ATOM      5  C   UNL     1       1.338  -2.176   0.387  0.00  0.00    +0.053 A 
ATOM      6  C   UNL     1       0.247  -2.025   1.258  0.00  0.00    +0.059 A 
ATOM      7  C   UNL     1      -0.774  -1.127   0.935  0.00  0.00    +0.018 A 
ENDROOT
BRANCH   6   8
ATOM      8  C   UNL     1       0.181  -2.805   2.507  0.00  0.00    +0.249 C 
ATOM      9  O   UNL     1       0.270  -4.017   2.472  0.00  0.00    -0.270 OA
ATOM     10  N   UNL     1       0.022  -2.174   3.687  0.00  0.00    -0.290 N 
ATOM     11  C   UNL     1      -0.205  -0.722   3.745  0.00  0.00    +0.139 C 
ATOM     12  C   UNL     1       0.786  -0.117   4.746  0.00  0.00    +0.133 C 
ATOM     13  O   UNL     1       0.695  -0.824   5.985  0.00  0.00    -0.373 OA
ATOM     14  C   UNL     1       1.047  -2.207   5.898  0.00  0.00    +0.182 C 
ATOM     15  C   UNL     1       0.063  -2.919   4.956  0.00  0.00    +0.099 C 
ATOM     16  C   UNL     1       0.539  -4.350   4.698  0.00  0.00    +0.030 C 
ATOM     17  C   UNL     1       0.449   1.358   4.972  0.00  0.00    +0.039 C 
ENDBRANCH   6   8
BRANCH   5  18
ATOM     18  N   UNL     1       2.361  -3.062   0.698  0.00  0.00    -0.282 N 
ATOM     19  H   UNL     1       2.362  -3.521   1.553  0.00  0.00    +0.166 HD
BRANCH  18  20
ATOM     20  N   UNL     1       3.366  -3.287  -0.199  0.00  0.00    -0.256 NA
ATOM     21  H   UNL     1       4.034  -3.951   0.164  0.00  0.00    +0.140 HD
ATOM     22  H   UNL     1       2.997  -3.594  -1.086  0.00  0.00    +0.140 HD
ENDBRANCH  18  20
ENDBRANCH   5  18
TORSDOF 3
