REMARK  Name = ZINC44168268
REMARK  8 active torsions:
REMARK  status: ('A' for Active; 'I' for Inactive)
REMARK    1  A    between atoms: C_1  and  C_2
REMARK    2  A    between atoms: C_11  and  O_14
REMARK    3  A    between atoms: O_14  and  C_15
REMARK    4  A    between atoms: C_17  and  O_30
REMARK    5  A    between atoms: C_19  and  O_29
REMARK    6  A    between atoms: C_21  and  O_28
REMARK    7  A    between atoms: C_23  and  C_26
REMARK    8  A    between atoms: C_26  and  O_27
REMARK                            x       y       z     vdW  Elec       q    Type
REMARK                         _______ _______ _______ _____ _____    ______ ____
ROOT
ATOM      1  O   UNL     1       0.086  -2.949   4.754  0.00  0.00    -0.455 OA
ENDROOT
BRANCH   1  12
ATOM      2  C   UNL     1       0.271   0.279  -0.892  0.00  0.00    +0.045 C 
ATOM      3  C   UNL     1       0.166  -1.185  -0.551  0.00  0.00    -0.033 A 
ATOM      4  C   UNL     1       0.093  -2.125  -1.529  0.00  0.00    +0.096 A 
ATOM      5  C   UNL     1      -0.005  -3.489  -1.184  0.00  0.00    +0.338 A 
ATOM      6  O   UNL     1      -0.070  -4.322  -2.071  0.00  0.00    -0.245 OA
ATOM      7  O   UNL     1      -0.027  -3.893   0.095  0.00  0.00    -0.419 OA
ATOM      8  C   UNL     1       0.042  -3.010   1.115  0.00  0.00    +0.178 A 
ATOM      9  C   UNL     1       0.147  -1.633   0.843  0.00  0.00    +0.026 A 
ATOM     10  C   UNL     1       0.224  -0.714   1.896  0.00  0.00    +0.054 A 
ATOM     11  C   UNL     1       0.203  -1.159   3.188  0.00  0.00    +0.169 A 
ATOM     12  C   UNL     1       0.105  -2.522   3.464  0.00  0.00    +0.198 A 
ATOM     13  C   UNL     1       0.017  -3.445   2.433  0.00  0.00    +0.210 A 
ATOM     14  F   UNL     1      -0.078  -4.763   2.710  0.00  0.00    -0.198 F 
ATOM     15  F   UNL     1       0.279  -0.272   4.205  0.00  0.00    -0.202 F 
ENDBRANCH   1  12
BRANCH   1  16
ATOM     16  C   UNL     1      -1.196  -3.199   5.335  0.00  0.00    +0.339 C 
ATOM     17  C   UNL     1      -1.023  -4.013   6.620  0.00  0.00    +0.214 C 
ATOM     18  C   UNL     1      -0.207  -3.197   7.627  0.00  0.00    +0.180 C 
ATOM     19  C   UNL     1      -0.913  -1.861   7.876  0.00  0.00    +0.177 C 
ATOM     20  C   UNL     1      -1.090  -1.130   6.543  0.00  0.00    +0.179 C 
ATOM     21  O   UNL     1      -1.831  -1.956   5.642  0.00  0.00    -0.331 OA
BRANCH  19  22
ATOM     22  O   UNL     1      -0.125  -1.062   8.760  0.00  0.00    -0.386 OA
ATOM     23  H   UNL     1       0.030  -1.467   9.624  0.00  0.00    +0.210 HD
ENDBRANCH  19  22
BRANCH  18  24
ATOM     24  O   UNL     1       1.100  -2.958   7.101  0.00  0.00    -0.386 OA
ATOM     25  H   UNL     1       1.602  -3.763   6.914  0.00  0.00    +0.210 HD
ENDBRANCH  18  24
BRANCH  17  26
ATOM     26  O   UNL     1      -2.307  -4.311   7.173  0.00  0.00    -0.383 OA
ATOM     27  H   UNL     1      -2.879  -4.823   6.585  0.00  0.00    +0.210 HD
ENDBRANCH  17  26
BRANCH  20  28
ATOM     28  C   UNL     1      -1.848   0.179   6.775  0.00  0.00    +0.190 C 
BRANCH  28  29
ATOM     29  O   UNL     1      -1.911   0.916   5.553  0.00  0.00    -0.392 OA
ATOM     30  H   UNL     1      -2.379   1.759   5.626  0.00  0.00    +0.210 HD
ENDBRANCH  28  29
ENDBRANCH  20  28
ENDBRANCH   1  16
TORSDOF 7
