REMARK  Name = ZINC09377004
REMARK  13 active torsions:
REMARK  status: ('A' for Active; 'I' for Inactive)
REMARK    1  A    between atoms: C_1  and  C_2
REMARK    2  A    between atoms: C_2  and  C_3
REMARK    3  A    between atoms: C_2  and  C_4
REMARK    4  A    between atoms: C_4  and  C_6
REMARK    5  A    between atoms: C_4  and  N_23
REMARK    6  A    between atoms: N_8  and  C_9
REMARK    7  A    between atoms: C_12  and  S_15
REMARK    8  A    between atoms: S_15  and  N_18
REMARK    9  A    between atoms: C_24  and  C_26
REMARK   10  A    between atoms: C_29  and  C_32
REMARK   11  A    between atoms: C_32  and  C_33
REMARK   12  A    between atoms: C_32  and  C_34
REMARK   13  A    between atoms: C_32  and  C_35
REMARK                            x       y       z     vdW  Elec       q    Type
REMARK                         _______ _______ _______ _____ _____    ______ ____
ROOT
ATOM      1  C   UNL     1       0.002   1.080   2.487  0.00  0.00    +0.238 C 
ATOM      2  O   UNL     1       0.466   1.870   3.281  0.00  0.00    -0.273 OA
ATOM      3  N   UNL     1       0.143  -0.244   2.692  0.00  0.00    -0.284 N 
ATOM      4  H   UNL     1      -0.285  -0.877   2.095  0.00  0.00    +0.155 HD
ENDROOT
BRANCH   3   5
ATOM      5  C   UNL     1       0.909  -0.707   3.768  0.00  0.00    +0.034 A 
ATOM      6  C   UNL     1       1.656  -1.871   3.641  0.00  0.00    +0.025 A 
ATOM      7  C   UNL     1       2.414  -2.322   4.704  0.00  0.00    +0.030 A 
ATOM      8  C   UNL     1       2.422  -1.623   5.896  0.00  0.00    +0.109 A 
ATOM      9  C   UNL     1       1.674  -0.467   6.028  0.00  0.00    +0.030 A 
ATOM     10  C   UNL     1       0.918  -0.007   4.968  0.00  0.00    +0.025 A 
BRANCH   8  11
ATOM     11  S   UNL     1       3.386  -2.205   7.251  0.00  0.00    +0.073 S 
ATOM     12  O   UNL     1       4.421  -3.006   6.698  0.00  0.00    -0.150 OA
ATOM     13  O   UNL     1       3.652  -1.078   8.075  0.00  0.00    -0.150 OA
BRANCH  11  14
ATOM     14  N   UNL     1       2.423  -3.221   8.136  0.00  0.00    -0.205 N 
ATOM     15  C   UNL     1       1.980  -4.396   7.588  0.00  0.00    +0.088 C 
ATOM     16  C   UNL     1       1.645  -6.091   6.085  0.00  0.00    +0.114 C 
ATOM     17  C   UNL     1       0.555  -6.292   7.163  0.00  0.00    +0.028 C 
ATOM     18  C   UNL     1       1.103  -5.399   8.304  0.00  0.00    +0.072 C 
ATOM     19  H   UNL     1       2.174  -2.985   9.043  0.00  0.00    +0.175 HD
ATOM     20  N   UNL     1       2.268  -4.784   6.384  0.00  0.00    -0.375 N 
ATOM     21  H   UNL     1       2.852  -4.254   5.727  0.00  0.00    +0.161 HD
ENDBRANCH  11  14
ENDBRANCH   8  11
ENDBRANCH   3   5
BRANCH   1  22
ATOM     22  C   UNL     1      -0.735   1.579   1.270  0.00  0.00    +0.162 C 
BRANCH  22  23
ATOM     23  N   UNL     1      -0.751   3.044   1.276  0.00  0.00    -0.300 N 
ATOM     24  C   UNL     1      -1.726   3.709   0.625  0.00  0.00    +0.245 C 
ATOM     25  O   UNL     1      -2.591   3.094   0.033  0.00  0.00    -0.270 OA
ATOM     26  H   UNL     1      -0.061   3.535   1.748  0.00  0.00    +0.150 HD
BRANCH  24  27
ATOM     27  C   UNL     1      -1.743   5.188   0.631  0.00  0.00    +0.037 A 
ATOM     28  C   UNL     1      -0.754   5.897   1.315  0.00  0.00    +0.013 A 
ATOM     29  C   UNL     1      -0.773   7.277   1.313  0.00  0.00    +0.005 A 
ATOM     30  C   UNL     1      -1.775   7.957   0.643  0.00  0.00    -0.042 A 
ATOM     31  C   UNL     1      -2.761   7.259  -0.032  0.00  0.00    +0.005 A 
ATOM     32  C   UNL     1      -2.751   5.880  -0.042  0.00  0.00    +0.013 A 
BRANCH  30  33
ATOM     33  C   UNL     1      -1.792   9.464   0.650  0.00  0.00    -0.013 C 
ATOM     34  C   UNL     1      -3.096   9.956   1.282  0.00  0.00    +0.015 C 
ATOM     35  C   UNL     1      -0.604   9.984   1.461  0.00  0.00    +0.015 C 
ATOM     36  C   UNL     1      -1.695   9.981  -0.787  0.00  0.00    +0.015 C 
ENDBRANCH  30  33
ENDBRANCH  24  27
ENDBRANCH  22  23
BRANCH  22  38
ATOM     37  C   UNL     1       1.408   1.609  -0.014  0.00  0.00    +0.009 C 
ATOM     38  C   UNL     1      -0.028   1.082   0.007  0.00  0.00    +0.012 C 
ATOM     39  C   UNL     1      -0.775   1.589  -1.228  0.00  0.00    +0.009 C 
ENDBRANCH  22  38
ENDBRANCH   1  22
TORSDOF 8
