REMARK  Name = ZINC66876843
REMARK  9 active torsions:
REMARK  status: ('A' for Active; 'I' for Inactive)
REMARK    1  A    between atoms: C_1  and  C_2
REMARK    2  A    between atoms: C_7  and  N_12
REMARK    3  A    between atoms: C_9  and  C_11
REMARK    4  A    between atoms: C_13  and  C_15
REMARK    5  A    between atoms: C_15  and  C_17
REMARK    6  A    between atoms: C_15  and  N_18
REMARK    7  A    between atoms: C_21  and  N_24
REMARK    8  A    between atoms: C_25  and  C_27
REMARK    9  A    between atoms: C_27  and  C_28
REMARK                            x       y       z     vdW  Elec       q    Type
REMARK                         _______ _______ _______ _____ _____    ______ ____
ROOT
ATOM      1  N   UNL     1       1.191   0.626   7.173  0.00  0.00    +0.387 N 
ATOM      2  C   UNL     1      -0.226   0.685   7.553  0.00  0.00    -0.076 C 
ATOM      3  C   UNL     1      -0.423   1.741   8.642  0.00  0.00    +0.004 C 
ATOM      4  C   UNL     1       0.420   1.369   9.865  0.00  0.00    +0.069 C 
ATOM      5  C   UNL     1       1.886   1.238   9.441  0.00  0.00    +0.004 C 
ATOM      6  C   UNL     1       1.998   0.200   8.323  0.00  0.00    -0.076 C 
ATOM      7  H   UNL     1       1.494   1.540   6.871  0.00  0.00    -0.081 HD
ENDROOT
BRANCH   4   8
ATOM      8  N   UNL     1       0.296   2.416  10.883  0.00  0.00    -0.313 N 
ATOM      9  C   UNL     1       0.502   2.121  12.181  0.00  0.00    +0.213 C 
ATOM     10  O   UNL     1       0.790   0.989  12.508  0.00  0.00    -0.276 OA
ATOM     11  H   UNL     1       0.066   3.321  10.621  0.00  0.00    +0.149 HD
BRANCH   9  12
ATOM     12  C   UNL     1       0.374   3.197  13.228  0.00  0.00    +0.099 C 
BRANCH  12  13
ATOM     13  C   UNL     1       0.655   2.602  14.609  0.00  0.00    -0.002 C 
ATOM     14  C   UNL     1      -0.465   1.615  14.998  0.00  0.00    +0.004 C 
ATOM     15  C   UNL     1      -0.651   1.833  16.520  0.00  0.00    +0.000 C 
ATOM     16  C   UNL     1      -0.472   3.364  16.671  0.00  0.00    +0.000 C 
ATOM     17  C   UNL     1       0.651   3.713  15.673  0.00  0.00    +0.004 C 
ENDBRANCH  12  13
ENDBRANCH   9  12
ENDBRANCH   4   8
BRANCH   1  18
ATOM     18  C   UNL     1       1.363  -0.333   6.074  0.00  0.00    +0.016 C 
ATOM     19  C   UNL     1       2.845  -0.432   5.710  0.00  0.00    -0.004 C 
BRANCH  18  21
ATOM     20  N   UNL     1       0.125  -0.762   3.976  0.00  0.00    -0.314 N 
ATOM     21  C   UNL     1       0.581   0.134   4.873  0.00  0.00    +0.199 C 
ATOM     22  O   UNL     1       0.363   1.316   4.714  0.00  0.00    -0.278 OA
ATOM     23  H   UNL     1       0.299  -1.708   4.103  0.00  0.00    +0.149 HD
BRANCH  20  29
ATOM     24  C   UNL     1      -0.747   0.488  -0.009  0.00  0.00    +0.008 C 
ATOM     25  C   UNL     1      -1.294  -0.861   0.462  0.00  0.00    -0.009 C 
ATOM     26  C   UNL     1      -2.769  -0.709   0.841  0.00  0.00    +0.003 C 
ATOM     27  C   UNL     1      -2.903   0.318   1.968  0.00  0.00    +0.002 C 
ATOM     28  C   UNL     1      -2.110  -0.157   3.187  0.00  0.00    +0.022 C 
ATOM     29  C   UNL     1      -0.635  -0.308   2.808  0.00  0.00    +0.076 C 
ATOM     30  C   UNL     1      -0.501  -1.335   1.682  0.00  0.00    +0.009 C 
ATOM     31  C   UNL     1       0.974  -1.487   1.303  0.00  0.00    +0.009 C 
ENDBRANCH  20  29
ENDBRANCH  18  21
ENDBRANCH   1  18
TORSDOF 6
