REMARK  Name = ZINC37281650
REMARK  5 active torsions:
REMARK  status: ('A' for Active; 'I' for Inactive)
REMARK    1  A    between atoms: C_1  and  O_2
REMARK    2  A    between atoms: O_2  and  C_3
REMARK    3  A    between atoms: C_9  and  N_11
REMARK    4  A    between atoms: N_11  and  C_12
REMARK    5  A    between atoms: C_17  and  N_18
REMARK                            x       y       z     vdW  Elec       q    Type
REMARK                         _______ _______ _______ _____ _____    ______ ____
ROOT
ATOM      1  N   UNL     1       0.495  -3.192   0.490  0.00  0.00    -0.337 N 
ATOM      2  H   UNL     1       1.208  -3.069  -0.156  0.00  0.00    +0.147 HD
ENDROOT
BRANCH   1   3
ATOM      3  C   UNL     1      -0.559  -4.065   0.210  0.00  0.00    +0.059 A 
ATOM      4  C   UNL     1      -1.515  -4.336   1.180  0.00  0.00    +0.045 A 
ATOM      5  C   UNL     1      -2.556  -5.200   0.900  0.00  0.00    +0.043 A 
ATOM      6  C   UNL     1      -2.645  -5.797  -0.346  0.00  0.00    +0.022 A 
ATOM      7  C   UNL     1      -1.694  -5.529  -1.313  0.00  0.00    +0.036 A 
ATOM      8  C   UNL     1      -0.655  -4.661  -1.041  0.00  0.00    +0.147 A 
ATOM      9 CL   UNL     1      -3.752  -5.540   2.111  0.00  0.00    -0.083 Cl
BRANCH   8  10
ATOM     10  N   UNL     1       0.359  -4.370  -2.080  0.00  0.00    +0.058 N 
ATOM     11  O   UNL     1       0.814  -3.255  -2.185  0.00  0.00    -0.126 OA
ATOM     12  O   UNL     1       0.732  -5.248  -2.823  0.00  0.00    -0.126 OA
ENDBRANCH   8  10
ENDBRANCH   1   3
BRANCH   1  18
ATOM     13  C   UNL     1       1.345  -1.182   1.594  0.00  0.00    +0.138 C 
ATOM     14  C   UNL     1       2.774  -1.544   1.182  0.00  0.00    +0.033 C 
ATOM     15  C   UNL     1       3.409  -2.422   2.262  0.00  0.00    +0.003 C 
ATOM     16  C   UNL     1       2.586  -3.701   2.428  0.00  0.00    +0.002 C 
ATOM     17  C   UNL     1       1.157  -3.339   2.840  0.00  0.00    +0.025 C 
ATOM     18  C   UNL     1       0.522  -2.461   1.760  0.00  0.00    +0.099 C 
BRANCH  13  20
ATOM     19  C   UNL     1       0.956   1.039   0.781  0.00  0.00    +0.194 C 
ATOM     20  O   UNL     1       0.752  -0.361   0.585  0.00  0.00    -0.378 OA
ENDBRANCH  13  20
ENDBRANCH   1  18
TORSDOF 4
