REMARK  Name = ZINC39533981
REMARK  10 active torsions:
REMARK  status: ('A' for Active; 'I' for Inactive)
REMARK    1  A    between atoms: C_1  and  O_2
REMARK    2  A    between atoms: O_2  and  C_3
REMARK    3  A    between atoms: N_6  and  C_10
REMARK    4  A    between atoms: C_10  and  C_12
REMARK    5  A    between atoms: C_10  and  C_21
REMARK    6  A    between atoms: C_12  and  N_13
REMARK    7  A    between atoms: N_13  and  C_14
REMARK    8  A    between atoms: C_14  and  C_15
REMARK    9  A    between atoms: C_24  and  C_27
REMARK   10  A    between atoms: C_32  and  O_33
REMARK                            x       y       z     vdW  Elec       q    Type
REMARK                         _______ _______ _______ _____ _____    ______ ____
ROOT
ATOM      1  C   UNL     1       0.629  -4.063  -2.511  0.00  0.00    -0.023 C 
ENDROOT
BRANCH   1   4
ATOM      2  C   UNL     1       0.885  -0.346  -2.057  0.00  0.00    +0.169 C 
ATOM      3  C   UNL     1       0.515  -1.796  -1.737  0.00  0.00    -0.030 C 
ATOM      4  N   UNL     1       0.999  -2.674  -2.810  0.00  0.00    +0.388 N 
ATOM      5  C   UNL     1       2.461  -2.568  -2.910  0.00  0.00    -0.062 C 
ATOM      6  C   UNL     1       2.847  -1.124  -3.240  0.00  0.00    +0.065 C 
ATOM      7  N   UNL     1       2.344  -0.232  -2.186  0.00  0.00    -0.295 NA
ATOM      8  H   UNL     1       2.619   0.723  -2.359  0.00  0.00    +0.124 HD
ATOM      9  H   UNL     1       0.582  -2.396  -3.686  0.00  0.00    -0.081 HD
BRANCH   2  11
ATOM     10  C   UNL     1       0.417   1.893  -1.342  0.00  0.00    +0.196 C 
ATOM     11  O   UNL     1       0.431   0.505  -1.003  0.00  0.00    -0.367 OA
ENDBRANCH   2  11
ENDBRANCH   1   4
BRANCH   1  12
ATOM     12  C   UNL     1       1.255  -4.981  -3.530  0.00  0.00    -0.060 A 
ATOM     13  C   UNL     1       1.304  -4.603  -4.860  0.00  0.00    +0.002 A 
ATOM     14  C   UNL     1       1.876  -5.439  -5.797  0.00  0.00    +0.009 A 
ATOM     15  C   UNL     1       2.406  -6.666  -5.401  0.00  0.00    -0.014 A 
ATOM     16  C   UNL     1       2.355  -7.041  -4.059  0.00  0.00    +0.009 A 
ATOM     17  C   UNL     1       1.785  -6.194  -3.130  0.00  0.00    +0.002 A 
BRANCH  15  18
ATOM     18  C   UNL     1       3.022  -7.569  -6.403  0.00  0.00    +0.024 A 
ATOM     19  C   UNL     1       2.341  -7.877  -7.580  0.00  0.00    +0.012 A 
ATOM     20  C   UNL     1       2.919  -8.717  -8.509  0.00  0.00    +0.001 A 
ATOM     21  C   UNL     1       4.172  -9.257  -8.277  0.00  0.00    +0.004 A 
ATOM     22  C   UNL     1       4.855  -8.960  -7.114  0.00  0.00    +0.046 A 
ATOM     23  C   UNL     1       4.290  -8.112  -6.175  0.00  0.00    +0.125 A 
BRANCH  23  24
ATOM     24  O   UNL     1       4.963  -7.813  -5.033  0.00  0.00    -0.506 OA
ATOM     25  H   UNL     1       4.788  -8.422  -4.303  0.00  0.00    +0.292 HD
ENDBRANCH  23  24
ENDBRANCH  15  18
ENDBRANCH   1  12
BRANCH   1  26
ATOM     26  C   UNL     1      -0.894  -4.208  -2.563  0.00  0.00    +0.070 C 
BRANCH  26  27
ATOM     27  N   UNL     1      -1.496  -3.444  -1.462  0.00  0.00    -0.313 NA
ATOM     28  H   UNL     1      -1.121  -3.736  -0.572  0.00  0.00    +0.122 HD
BRANCH  27  29
ATOM     29  C   UNL     1      -2.960  -3.559  -1.481  0.00  0.00    +0.116 C 
BRANCH  29  30
ATOM     30  C   UNL     1      -3.541  -2.765  -0.339  0.00  0.00    -0.034 A 
ATOM     31  C   UNL     1      -3.735  -3.364   0.891  0.00  0.00    +0.005 A 
ATOM     32  C   UNL     1      -4.268  -2.635   1.938  0.00  0.00    +0.000 A 
ATOM     33  C   UNL     1      -4.606  -1.308   1.755  0.00  0.00    +0.000 A 
ATOM     34  C   UNL     1      -4.411  -0.709   0.524  0.00  0.00    +0.000 A 
ATOM     35  C   UNL     1      -3.875  -1.436  -0.522  0.00  0.00    +0.005 A 
ENDBRANCH  29  30
ENDBRANCH  27  29
ENDBRANCH  26  27
ENDBRANCH   1  26
TORSDOF 9
