REMARK  Name = ZINC20027252
REMARK  12 active torsions:
REMARK  status: ('A' for Active; 'I' for Inactive)
REMARK    1  A    between atoms: C_1  and  C_2
REMARK    2  A    between atoms: C_2  and  C_3
REMARK    3  A    between atoms: C_2  and  O_4
REMARK    4  A    between atoms: O_4  and  C_5
REMARK    5  A    between atoms: C_6  and  O_32
REMARK    6  A    between atoms: C_8  and  C_12
REMARK    7  A    between atoms: N_17  and  C_31
REMARK    8  A    between atoms: C_21  and  C_29
REMARK    9  A    between atoms: C_22  and  N_28
REMARK   10  A    between atoms: C_23  and  C_24
REMARK   11  A    between atoms: C_23  and  C_26
REMARK   12  A    between atoms: O_32  and  C_33
REMARK                            x       y       z     vdW  Elec       q    Type
REMARK                         _______ _______ _______ _____ _____    ______ ____
ROOT
ATOM      1  C   UNL     1       1.148   3.596   0.010  0.00  0.00    +0.068 C 
ATOM      2  C   UNL     1       1.775   4.111   1.306  0.00  0.00    +0.044 C 
ATOM      3  C   UNL     1       0.908   3.826   2.511  0.00  0.00    +0.093 C 
ATOM      4  N   UNL     1       1.384   2.666   3.270  0.00  0.00    -0.301 NA
ATOM      5  C   UNL     1       2.764   2.894   3.736  0.00  0.00    +0.111 C 
ATOM      6  C   UNL     1       3.643   3.013   2.515  0.00  0.00    -0.007 C 
ATOM      7  C   UNL     1       3.164   3.549   1.408  0.00  0.00    -0.026 C 
ATOM      8  C   UNL     1       4.008   3.613   0.189  0.00  0.00    +0.074 C 
ATOM      9  C   UNL     1       3.423   3.872  -1.008  0.00  0.00    +0.054 C 
ATOM     10  C   UNL     1       1.955   4.127  -1.175  0.00  0.00    +0.188 C 
ATOM     11  C   UNL     1       0.490   2.372   4.398  0.00  0.00    +0.105 C 
ENDROOT
BRANCH   1  15
ATOM     12  C   UNL     1       1.217  -0.680  -0.015  0.00  0.00    +0.180 A 
ATOM     13  C   UNL     1       0.112  -0.005   0.493  0.00  0.00    +0.163 A 
ATOM     14  C   UNL     1       0.093   1.380   0.500  0.00  0.00    +0.053 A 
ATOM     15  C   UNL     1       1.171   2.089   0.002  0.00  0.00    -0.036 A 
ATOM     16  C   UNL     1       2.269   1.419  -0.503  0.00  0.00    +0.028 A 
ATOM     17  C   UNL     1       2.295   0.036  -0.512  0.00  0.00    +0.086 A 
ATOM     18 CL   UNL     1       3.676  -0.803  -1.148  0.00  0.00    -0.080 Cl
BRANCH  13  19
ATOM     19  O   UNL     1      -0.948  -0.703   0.983  0.00  0.00    -0.491 OA
ATOM     20  C   UNL     1      -2.047   0.057   1.488  0.00  0.00    +0.277 C 
ENDBRANCH  13  19
BRANCH  12  21
ATOM     21  O   UNL     1       1.240  -2.041  -0.023  0.00  0.00    -0.484 OA
BRANCH  21  23
ATOM     22  C   UNL     1       1.842  -2.898  -2.201  0.00  0.00    +0.051 C 
ATOM     23  C   UNL     1       0.719  -2.691  -1.184  0.00  0.00    +0.168 C 
ATOM     24  C   UNL     1       0.134  -4.048  -0.787  0.00  0.00    +0.051 C 
ENDBRANCH  21  23
ENDBRANCH  12  21
ENDBRANCH   1  15
BRANCH   9  25
ATOM     25  N   UNL     1       4.215   3.903  -2.122  0.00  0.00    -0.358 N 
ATOM     26  H   UNL     1       3.771   4.110  -3.107  0.00  0.00    +0.142 HD
ATOM     27  H   UNL     1       5.296   3.720  -2.033  0.00  0.00    +0.142 HD
ENDBRANCH   9  25
BRANCH  10  28
ATOM     28  C   UNL     1       1.491   3.466  -2.406  0.00  0.00    +0.091 C 
ATOM     29  N   UNL     1       1.133   2.957  -3.356  0.00  0.00    -0.194 NA
ENDBRANCH  10  28
BRANCH  10  30
ATOM     30  C   UNL     1       1.731   5.577  -1.298  0.00  0.00    +0.091 C 
ATOM     31  N   UNL     1       1.558   6.695  -1.392  0.00  0.00    -0.194 NA
ENDBRANCH  10  30
BRANCH   8  32
ATOM     32  C   UNL     1       5.423   3.403   0.274  0.00  0.00    +0.101 C 
ATOM     33  N   UNL     1       6.544   3.237   0.342  0.00  0.00    -0.191 NA
ENDBRANCH   8  32
TORSDOF 8
