REMARK  Name = ZINC09814422
REMARK  6 active torsions:
REMARK  status: ('A' for Active; 'I' for Inactive)
REMARK    1  A    between atoms: C_1  and  C_2
REMARK    2  A    between atoms: N_10  and  N_14
REMARK    3  A    between atoms: C_15  and  C_17
REMARK    4  A    between atoms: C_17  and  O_18
REMARK    5  A    between atoms: O_18  and  C_19
REMARK    6  A    between atoms: C_19  and  C_21
REMARK                            x       y       z     vdW  Elec       q    Type
REMARK                         _______ _______ _______ _____ _____    ______ ____
ROOT
ATOM      1  N   UNL     1      -4.546   8.528   0.146  0.00  0.00    -0.221 N 
ATOM      2  C   UNL     1      -3.974   7.308   0.123  0.00  0.00    +0.267 C 
ATOM      3  O   UNL     1      -4.668   6.314   0.115  0.00  0.00    -0.271 OA
ATOM      4  H   UNL     1      -3.991   9.324   0.152  0.00  0.00    +0.174 HD
ENDROOT
BRANCH   1  14
ATOM      5  C   UNL     1     -12.414   9.349   0.787  0.00  0.00    +0.007 C 
ATOM      6  C   UNL     1     -10.962   9.350   1.270  0.00  0.00    -0.014 C 
ATOM      7  C   UNL     1     -10.359   7.957   1.077  0.00  0.00    +0.006 C 
ATOM      8  C   UNL     1      -8.910   7.957   1.572  0.00  0.00    +0.035 C 
ATOM      9  C   UNL     1      -8.104   8.990   0.793  0.00  0.00    +0.114 C 
ATOM     10  C   UNL     1      -8.708  10.381   0.956  0.00  0.00    +0.035 C 
ATOM     11  C   UNL     1     -10.157  10.371   0.463  0.00  0.00    +0.006 C 
ATOM     12  C   UNL     1      -6.663   8.986   1.249  0.00  0.00    +0.263 C 
ATOM     13  O   UNL     1      -6.243   9.232   2.359  0.00  0.00    -0.271 OA
ATOM     14  N   UNL     1      -5.941   8.648   0.160  0.00  0.00    -0.137 N 
ATOM     15  C   UNL     1      -6.725   8.448  -0.907  0.00  0.00    +0.326 C 
ATOM     16  O   UNL     1      -6.305   8.140  -2.005  0.00  0.00    -0.251 OA
ATOM     17  N   UNL     1      -8.030   8.623  -0.626  0.00  0.00    -0.284 N 
ATOM     18  H   UNL     1      -8.774   8.529  -1.241  0.00  0.00    +0.151 HD
ENDBRANCH   1  14
BRANCH   2  19
ATOM     19  C   UNL     1      -2.473   7.179   0.108  0.00  0.00    +0.329 C 
BRANCH  19  20
ATOM     20  O   UNL     1      -2.114   5.796   0.085  0.00  0.00    -0.451 OA
BRANCH  20  21
ATOM     21  C   UNL     1      -0.796   5.506   0.069  0.00  0.00    +0.346 C 
ATOM     22  O   UNL     1       0.025   6.404   0.075  0.00  0.00    -0.244 OA
BRANCH  21  23
ATOM     23  C   UNL     1      -0.355   4.111   0.045  0.00  0.00    +0.097 A 
ATOM     24  C   UNL     1       0.938   3.606   0.027  0.00  0.00    +0.027 A 
ATOM     25  C   UNL     1       1.135   2.248   0.003  0.00  0.00    -0.031 A 
ATOM     26  C   UNL     1      -0.018   1.455   0.010  0.00  0.00    +0.024 A 
ATOM     27  S   UNL     1      -1.342   2.620   0.036  0.00  0.00    -0.082 S 
ATOM     28  C   UNL     1       0.002  -0.004   0.002  0.00  0.00    -0.008 A 
ATOM     29  C   UNL     1      -1.118  -0.780  -0.265  0.00  0.00    +0.009 A 
ATOM     30  C   UNL     1      -1.009  -2.157  -0.279  0.00  0.00    +0.001 A 
ATOM     31  C   UNL     1       0.211  -2.757  -0.021  0.00  0.00    +0.000 A 
ATOM     32  C   UNL     1       1.324  -1.990   0.272  0.00  0.00    +0.004 A 
ATOM     33  C   UNL     1       1.230  -0.615   0.306  0.00  0.00    -0.039 A 
ATOM     34  C   UNL     1       2.410   0.224   0.710  0.00  0.00    +0.040 C 
ATOM     35  C   UNL     1       2.488   1.549  -0.038  0.00  0.00    +0.041 C 
ENDBRANCH  21  23
ENDBRANCH  20  21
ENDBRANCH  19  20
ENDBRANCH   2  19
TORSDOF 5
