REMARK  Name = ZINC66631145
REMARK  8 active torsions:
REMARK  status: ('A' for Active; 'I' for Inactive)
REMARK    1  A    between atoms: C_1  and  C_2
REMARK    2  A    between atoms: C_5  and  C_12
REMARK    3  A    between atoms: C_8  and  C_10
REMARK    4  A    between atoms: C_8  and  C_11
REMARK    5  A    between atoms: C_12  and  C_13
REMARK    6  A    between atoms: N_15  and  C_16
REMARK    7  A    between atoms: C_22  and  O_24
REMARK    8  A    between atoms: O_24  and  C_25
REMARK                            x       y       z     vdW  Elec       q    Type
REMARK                         _______ _______ _______ _____ _____    ______ ____
ROOT
ATOM      1  C   UNL     1       2.222  -0.041  -3.738  0.00  0.00    +0.214 C 
ATOM      2  O   UNL     1       1.475   0.892  -3.531  0.00  0.00    -0.276 OA
ATOM      3  N   UNL     1       2.606  -0.331  -4.997  0.00  0.00    -0.312 N 
ATOM      4  H   UNL     1       3.203  -1.077  -5.162  0.00  0.00    +0.149 HD
ENDROOT
BRANCH   3   5
ATOM      5  C   UNL     1       2.122   0.482  -6.115  0.00  0.00    +0.076 C 
ATOM      6  C   UNL     1       0.755  -0.036  -6.568  0.00  0.00    +0.041 C 
ATOM      7  C   UNL     1       0.236   0.838  -7.715  0.00  0.00    +0.113 C 
ATOM      8  N   UNL     1       1.250   0.874  -8.777  0.00  0.00    -0.267 N 
ATOM      9  C   UNL     1       2.622   1.272  -8.432  0.00  0.00    +0.113 C 
ATOM     10  C   UNL     1       3.114   0.393  -7.277  0.00  0.00    +0.041 C 
ATOM     11  C   UNL     1       0.928   0.549 -10.045  0.00  0.00    +0.403 C 
ATOM     12  O   UNL     1      -0.209   0.221 -10.318  0.00  0.00    -0.226 OA
BRANCH  11  13
ATOM     13  O   UNL     1       1.868   0.586 -11.009  0.00  0.00    -0.454 OA
ATOM     14  C   UNL     1       1.456   0.229 -12.330  0.00  0.00    +0.282 C 
ENDBRANCH  11  13
ENDBRANCH   3   5
BRANCH   1  15
ATOM     15  C   UNL     1       2.720  -0.877  -2.587  0.00  0.00    +0.099 C 
BRANCH  15  19
ATOM     16  C   UNL     1      -0.019   1.524   0.010  0.00  0.00    +0.007 C 
ATOM     17  C   UNL     1       0.002  -0.004   0.002  0.00  0.00    -0.013 C 
ATOM     18  C   UNL     1       0.620  -0.525  -1.288  0.00  0.00    +0.007 C 
ATOM     19  C   UNL     1       2.137  -0.340  -1.274  0.00  0.00    -0.002 C 
ATOM     20  C   UNL     1       2.721  -1.131  -0.106  0.00  0.00    +0.010 C 
ATOM     21  C   UNL     1       2.178  -0.615   1.222  0.00  0.00    -0.034 C 
ATOM     22  C   UNL     1       0.661  -0.563   1.247  0.00  0.00    +0.009 C 
ATOM     23  C   UNL     1       2.641  -1.588   2.329  0.00  0.00    +0.011 C 
ATOM     24  C   UNL     1       2.781   0.757   1.538  0.00  0.00    +0.011 C 
ENDBRANCH  15  19
ENDBRANCH   1  15
TORSDOF 4
