REMARK  Name = ZINC36977060
REMARK  3 active torsions:
REMARK  status: ('A' for Active; 'I' for Inactive)
REMARK    1  A    between atoms: C_2  and  C_12
REMARK    2  A    between atoms: C_12  and  N_13
REMARK    3  A    between atoms: N_13  and  C_14
REMARK                            x       y       z     vdW  Elec       q    Type
REMARK                         _______ _______ _______ _____ _____    ______ ____
ROOT
ATOM      1  C   UNL     1       0.724   3.591   0.080  0.00  0.00    -0.046 C 
ENDROOT
BRANCH   1   3
ATOM      2  C   UNL     1      -0.378   1.375   0.444  0.00  0.00    +0.051 A 
ATOM      3  C   UNL     1       0.748   2.085   0.072  0.00  0.00    -0.060 A 
ATOM      4  C   UNL     1       1.896   1.415  -0.308  0.00  0.00    +0.021 A 
ATOM      5  C   UNL     1       1.921   0.032  -0.319  0.00  0.00    +0.063 A 
ATOM      6  C   UNL     1       0.794  -0.686   0.053  0.00  0.00    +0.176 A 
ATOM      7  C   UNL     1      -0.359  -0.012   0.438  0.00  0.00    +0.163 A 
ATOM      8  O   UNL     1      -1.473  -0.697   0.813  0.00  0.00    -0.485 OA
ATOM      9  C   UNL     1      -1.537  -2.077   0.437  0.00  0.00    +0.270 C 
ATOM     10  C   UNL     1      -0.188  -2.729   0.770  0.00  0.00    +0.270 C 
ATOM     11  O   UNL     1       0.833  -2.046   0.034  0.00  0.00    -0.484 OA
ATOM     12 BR   UNL     1       3.494  -0.880  -0.841  0.00  0.00    -0.046 Br
ENDBRANCH   1   3
BRANCH   1  13
ATOM     13  N   UNL     1       1.151   4.081   1.398  0.00  0.00    +0.389 N 
ATOM     14  H   UNL     1       0.523   3.731   2.106  0.00  0.00    -0.084 HD
ATOM     15  H   UNL     1       2.088   3.758   1.589  0.00  0.00    -0.084 HD
BRANCH  13  16
ATOM     16  C   UNL     1       1.127   5.550   1.406  0.00  0.00    +0.016 C 
ATOM     17  C   UNL     1       2.476   6.088   0.922  0.00  0.00    -0.007 C 
ATOM     18  C   UNL     1       3.609   5.186   1.376  0.00  0.00    +0.000 C 
ATOM     19  C   UNL     1       3.819   5.176   2.879  0.00  0.00    +0.019 C 
ATOM     20  C   UNL     1       2.630   4.528   3.591  0.00  0.00    +0.104 C 
ATOM     21  N   UNL     1       1.606   5.559   3.830  0.00  0.00    -0.317 N 
ATOM     22  C   UNL     1       0.885   6.047   2.816  0.00  0.00    +0.199 C 
ATOM     23  O   UNL     1       0.040   6.892   3.021  0.00  0.00    -0.278 OA
ATOM     24  H   UNL     1       1.452   5.885   4.730  0.00  0.00    +0.149 HD
ENDBRANCH  13  16
ENDBRANCH   1  13
TORSDOF 3
