REMARK  Name = ZINC50710440
REMARK  6 active torsions:
REMARK  status: ('A' for Active; 'I' for Inactive)
REMARK    1  A    between atoms: C_1  and  C_2
REMARK    2  A    between atoms: C_5  and  N_8
REMARK    3  A    between atoms: N_8  and  C_9
REMARK    4  A    between atoms: C_10  and  C_12
REMARK    5  A    between atoms: C_14  and  N_19
REMARK    6  A    between atoms: C_17  and  N_18
REMARK                            x       y       z     vdW  Elec       q    Type
REMARK                         _______ _______ _______ _____ _____    ______ ____
ROOT
ATOM      1  C   UNL     1       5.113  -2.209   0.190  0.00  0.00    +0.060 A 
ATOM      2  C   UNL     1       5.390  -1.274   1.191  0.00  0.00    +0.047 A 
ATOM      3  C   UNL     1       6.649  -0.724   1.288  0.00  0.00    +0.127 A 
ATOM      4  C   UNL     1       7.645  -1.092   0.397  0.00  0.00    +0.034 A 
ATOM      5  C   UNL     1       7.388  -2.014  -0.597  0.00  0.00    +0.026 A 
ATOM      6  C   UNL     1       6.125  -2.584  -0.707  0.00  0.00    +0.037 A 
ENDROOT
BRANCH   1   9
ATOM      7  N   UNL     1       2.686  -2.004  -0.014  0.00  0.00    -0.297 N 
ATOM      8  C   UNL     1       2.853  -0.553  -0.129  0.00  0.00    +0.132 C 
ATOM      9  C   UNL     1       3.768  -2.802   0.081  0.00  0.00    +0.248 C 
ATOM     10  O   UNL     1       3.635  -4.011   0.076  0.00  0.00    -0.270 OA
BRANCH   7  15
ATOM     11  C   UNL     1       0.408  -0.369   3.593  0.00  0.00    +0.007 C 
ATOM     12  C   UNL     1       0.252  -1.312   2.398  0.00  0.00    -0.014 C 
ATOM     13  C   UNL     1       0.456  -0.529   1.100  0.00  0.00    +0.005 C 
ATOM     14  C   UNL     1       0.300  -1.472  -0.095  0.00  0.00    +0.023 C 
ATOM     15  C   UNL     1       1.342  -2.588  -0.003  0.00  0.00    +0.076 C 
ATOM     16  C   UNL     1       1.137  -3.372   1.295  0.00  0.00    +0.023 C 
ATOM     17  C   UNL     1       1.294  -2.429   2.490  0.00  0.00    +0.005 C 
ENDBRANCH   7  15
ENDBRANCH   1   9
BRANCH   6  18
ATOM     18  N   UNL     1       5.865  -3.517  -1.702  0.00  0.00    -0.357 N 
ATOM     19  H   UNL     1       4.965  -3.856  -1.826  0.00  0.00    +0.142 HD
ATOM     20  H   UNL     1       6.584  -3.829  -2.274  0.00  0.00    +0.142 HD
ENDBRANCH   6  18
BRANCH   3  21
ATOM     21  N   UNL     1       6.940   0.267   2.349  0.00  0.00    +0.056 N 
ATOM     22  O   UNL     1       6.074   0.591   3.127  0.00  0.00    -0.126 OA
ATOM     23  O   UNL     1       8.044   0.751   2.437  0.00  0.00    -0.126 OA
ENDBRANCH   3  21
TORSDOF 4
