REMARK  Name = ZINC01935904
REMARK  6 active torsions:
REMARK  status: ('A' for Active; 'I' for Inactive)
REMARK    1  A    between atoms: C_1  and  C_2
REMARK    2  A    between atoms: C_5  and  C_9
REMARK    3  A    between atoms: C_7  and  C_8
REMARK    4  A    between atoms: C_14  and  S_18
REMARK    5  A    between atoms: S_18  and  C_19
REMARK    6  A    between atoms: C_19  and  C_20
REMARK                            x       y       z     vdW  Elec       q    Type
REMARK                         _______ _______ _______ _____ _____    ______ ____
ROOT
ATOM      1  C   UNL     1       1.169   3.569   0.010  0.00  0.00    +0.001 A 
ATOM      2  C   UNL     1       0.491   4.257  -0.938  0.00  0.00    +0.056 A 
ATOM      3  S   UNL     1       0.777   5.961  -0.500  0.00  0.00    -0.076 S 
ATOM      4  C   UNL     1       1.799   5.716   0.928  0.00  0.00    +0.113 A 
ATOM      5  C   UNL     1       1.893   4.313   1.035  0.00  0.00    +0.047 A 
ATOM      6  C   UNL     1       2.674   3.835   2.121  0.00  0.00    +0.109 A 
ATOM      7  N   UNL     1       3.247   4.706   2.938  0.00  0.00    -0.229 NA
ATOM      8  C   UNL     1       3.117   6.010   2.777  0.00  0.00    +0.223 A 
ATOM      9  N   UNL     1       2.404   6.513   1.788  0.00  0.00    -0.228 NA
ENDROOT
BRANCH   1  14
ATOM     10  C   UNL     1       1.222  -2.189  -0.020  0.00  0.00    +0.044 C 
ATOM     11  C   UNL     1       1.208  -0.682  -0.012  0.00  0.00    -0.048 A 
ATOM     12  C   UNL     1       0.730  -0.003   1.095  0.00  0.00    +0.004 A 
ATOM     13  C   UNL     1       0.715   1.377   1.107  0.00  0.00    +0.009 A 
ATOM     14  C   UNL     1       1.183   2.087   0.002  0.00  0.00    -0.016 A 
ATOM     15  C   UNL     1       1.664   1.397  -1.110  0.00  0.00    +0.012 A 
ATOM     16  C   UNL     1       1.674   0.017  -1.111  0.00  0.00    -0.047 A 
ATOM     17  C   UNL     1       2.194  -0.731  -2.312  0.00  0.00    +0.044 C 
ENDBRANCH   1  14
BRANCH   6  18
ATOM     18  S   UNL     1       2.878   2.103   2.378  0.00  0.00    -0.096 S 
BRANCH  18  19
ATOM     19  C   UNL     1       3.930   2.126   3.851  0.00  0.00    +0.171 C 
BRANCH  19  20
ATOM     20  C   UNL     1       4.244   0.712   4.266  0.00  0.00    +0.221 C 
ATOM     21  O   UNL     1       3.800  -0.220   3.629  0.00  0.00    -0.275 OA
ATOM     22  N   UNL     1       5.018   0.482   5.346  0.00  0.00    -0.329 N 
ATOM     23  H   UNL     1       5.373   1.228   5.855  0.00  0.00    +0.145 HD
ATOM     24  H   UNL     1       5.220  -0.428   5.613  0.00  0.00    +0.145 HD
ENDBRANCH  19  20
ENDBRANCH  18  19
ENDBRANCH   6  18
TORSDOF 4
