REMARK  Name = ZINC20865033
REMARK  7 active torsions:
REMARK  status: ('A' for Active; 'I' for Inactive)
REMARK    1  A    between atoms: C_1  and  C_2
REMARK    2  A    between atoms: C_2  and  C_3
REMARK    3  A    between atoms: C_2  and  N_4
REMARK    4  A    between atoms: N_7  and  C_8
REMARK    5  A    between atoms: C_8  and  C_9
REMARK    6  A    between atoms: C_13  and  N_14
REMARK    7  A    between atoms: N_20  and  C_23
REMARK                            x       y       z     vdW  Elec       q    Type
REMARK                         _______ _______ _______ _____ _____    ______ ____
ROOT
ATOM      1  C   UNL     1       3.550   2.209  -0.118  0.00  0.00    +0.004 A 
ATOM      2  C   UNL     1       4.793   1.580  -0.104  0.00  0.00    -0.034 A 
ATOM      3  C   UNL     1       4.790   0.222  -0.000  0.00  0.00    -0.021 A 
ATOM      4  S   UNL     1       3.071  -0.193   0.088  0.00  0.00    -0.077 S 
ATOM      5  C   UNL     1       2.416   1.466  -0.018  0.00  0.00    +0.089 A 
ATOM      6  C   UNL     1       5.982  -0.677   0.028  0.00  0.00    -0.036 C 
ATOM      7  N   UNL     1       7.154   0.098  -0.426  0.00  0.00    +0.381 N 
ATOM      8  C   UNL     1       7.231   1.383   0.283  0.00  0.00    -0.074 C 
ATOM      9  C   UNL     1       6.124   2.322  -0.202  0.00  0.00    +0.018 C 
ATOM     10  C   UNL     1       8.393  -0.673  -0.255  0.00  0.00    -0.096 C 
ATOM     11  H   UNL     1       7.037   0.307  -1.499  0.00  0.00    -0.082 HD
ENDROOT
BRANCH   5  12
ATOM     12  N   UNL     1       1.082   1.891  -0.007  0.00  0.00    -0.317 N 
ATOM     13  C   UNL     1       0.069   1.350  -0.745  0.00  0.00    +0.092 A 
ATOM     14  C   UNL     1      -1.063   2.029  -0.469  0.00  0.00    +0.019 A 
ATOM     15  C   UNL     1      -0.741   3.019   0.481  0.00  0.00    +0.019 A 
ATOM     16  C   UNL     1       0.579   2.914   0.743  0.00  0.00    +0.092 A 
ENDBRANCH   5  12
BRANCH   1  17
ATOM     17  C   UNL     1       3.464   3.709  -0.240  0.00  0.00    +0.144 C 
BRANCH  17  21
ATOM     18  N   UNL     1       3.695   6.214   2.442  0.00  0.00    -0.297 N 
ATOM     19  C   UNL     1       3.562   5.656   1.222  0.00  0.00    +0.300 C 
ATOM     20  O   UNL     1       3.402   6.361   0.245  0.00  0.00    -0.253 OA
ATOM     21  N   UNL     1       3.608   4.316   1.086  0.00  0.00    -0.295 N 
ATOM     22  H   UNL     1       3.840   5.575   3.326  0.00  0.00    +0.150 HD
ATOM     23  H   UNL     1       3.753   3.677   1.970  0.00  0.00    +0.151 HD
BRANCH  18  25
ATOM     24  C   UNL     1       3.199   8.023   4.010  0.00  0.00    +0.027 C 
ATOM     25  C   UNL     1       3.646   7.670   2.590  0.00  0.00    +0.068 C 
ATOM     26  C   UNL     1       5.035   8.257   2.333  0.00  0.00    +0.027 C 
ENDBRANCH  18  25
ENDBRANCH  17  21
ENDBRANCH   1  17
TORSDOF 4
