REMARK  Name = ZINC61555631
REMARK  9 active torsions:
REMARK  status: ('A' for Active; 'I' for Inactive)
REMARK    1  A    between atoms: C_1  and  C_2
REMARK    2  A    between atoms: C_5  and  C_8
REMARK    3  A    between atoms: C_8  and  C_9
REMARK    4  A    between atoms: C_8  and  N_12
REMARK    5  A    between atoms: N_15  and  C_16
REMARK    6  A    between atoms: C_18  and  C_23
REMARK    7  A    between atoms: C_21  and  C_22
REMARK    8  A    between atoms: N_25  and  C_26
REMARK    9  A    between atoms: N_25  and  C_27
REMARK                            x       y       z     vdW  Elec       q    Type
REMARK                         _______ _______ _______ _____ _____    ______ ____
ROOT
ATOM      1  N   UNL     1       0.350  -5.074   1.993  0.00  0.00    -0.292 N 
ATOM      2  C   UNL     1       1.025  -6.188   1.646  0.00  0.00    +0.304 C 
ATOM      3  O   UNL     1       0.671  -6.838   0.682  0.00  0.00    -0.252 OA
ATOM      4  N   UNL     1       2.093  -6.582   2.369  0.00  0.00    -0.269 N 
ATOM      5  H   UNL     1       0.633  -4.556   2.762  0.00  0.00    +0.151 HD
ATOM      6  H   UNL     1       2.423  -6.023   3.089  0.00  0.00    +0.156 HD
ENDROOT
BRANCH   4   7
ATOM      7  C   UNL     1       2.725  -7.796   2.078  0.00  0.00    +0.038 A 
ATOM      8  C   UNL     1       2.046  -8.781   1.377  0.00  0.00    +0.036 A 
ATOM      9  C   UNL     1       2.681  -9.989   1.090  0.00  0.00    +0.039 A 
ATOM     10  C   UNL     1       3.996 -10.199   1.511  0.00  0.00    +0.013 A 
ATOM     11  C   UNL     1       4.663  -9.212   2.208  0.00  0.00    +0.006 A 
ATOM     12  C   UNL     1       4.035  -8.012   2.488  0.00  0.00    -0.029 A 
ATOM     13  C   UNL     1       4.773  -6.938   3.244  0.00  0.00    +0.045 C 
BRANCH   9  14
ATOM     14  C   UNL     1       1.964 -11.045   0.344  0.00  0.00    +0.246 C 
ATOM     15  O   UNL     1       1.344 -10.762  -0.663  0.00  0.00    -0.270 OA
ATOM     16  N   UNL     1       1.998 -12.320   0.779  0.00  0.00    -0.304 N 
ATOM     17  C   UNL     1       1.212 -13.349   0.094  0.00  0.00    +0.132 C 
ATOM     18  C   UNL     1       2.821 -12.677   1.938  0.00  0.00    +0.132 C 
ENDBRANCH   9  14
ENDBRANCH   4   7
BRANCH   1  19
ATOM     19  C   UNL     1      -0.810  -4.647   1.207  0.00  0.00    +0.108 C 
BRANCH  19  24
ATOM     20  C   UNL     1      -1.559   1.050   1.818  0.00  0.00    +0.044 C 
ATOM     21  C   UNL     1      -1.363  -0.435   1.659  0.00  0.00    -0.050 A 
ATOM     22  C   UNL     1      -1.545  -1.028   0.423  0.00  0.00    +0.004 A 
ATOM     23  C   UNL     1      -1.366  -2.391   0.277  0.00  0.00    +0.006 A 
ATOM     24  C   UNL     1      -1.005  -3.161   1.366  0.00  0.00    -0.027 A 
ATOM     25  C   UNL     1      -0.822  -2.568   2.602  0.00  0.00    +0.006 A 
ATOM     26  C   UNL     1      -0.997  -1.205   2.747  0.00  0.00    +0.004 A 
ENDBRANCH  19  24
BRANCH  19  27
ATOM     27  C   UNL     1      -2.059  -5.380   1.702  0.00  0.00    +0.014 C 
ATOM     28  C   UNL     1      -1.930  -6.212   2.979  0.00  0.00    +0.006 C 
ATOM     29  C   UNL     1      -2.058  -6.908   1.623  0.00  0.00    +0.006 C 
ENDBRANCH  19  27
ENDBRANCH   1  19
TORSDOF 5
