REMARK  Name = ZINC34210887
REMARK  9 active torsions:
REMARK  status: ('A' for Active; 'I' for Inactive)
REMARK    1  A    between atoms: C_1  and  C_2
REMARK    2  A    between atoms: N_17  and  C_18
REMARK    3  A    between atoms: C_26  and  C_41
REMARK    4  A    between atoms: C_29  and  O_40
REMARK    5  A    between atoms: C_32  and  C_39
REMARK    6  A    between atoms: C_33  and  C_34
REMARK    7  A    between atoms: C_33  and  O_38
REMARK    8  A    between atoms: C_34  and  C_36
REMARK    9  A    between atoms: C_36  and  O_37
REMARK                            x       y       z     vdW  Elec       q    Type
REMARK                         _______ _______ _______ _____ _____    ______ ____
ROOT
ATOM      1  C   UNL     1      -0.433   1.552   0.009  0.00  0.00    +0.011 C 
ATOM      2  C   UNL     1      -0.342   0.025  -0.051  0.00  0.00    +0.026 C 
ATOM      3  C   UNL     1      -1.730  -0.601   0.157  0.00  0.00    +0.011 C 
ATOM      4  C   UNL     1      -1.681  -1.349   1.514  0.00  0.00    +0.002 C 
ATOM      5  C   UNL     1      -2.330  -0.422   2.554  0.00  0.00    -0.001 C 
ATOM      6  C   UNL     1      -3.825  -0.422   2.218  0.00  0.00    +0.008 C 
ATOM      7  C   UNL     1      -4.707  -0.518   3.452  0.00  0.00    +0.031 C 
ATOM      8  C   UNL     1      -4.100   0.338   4.539  0.00  0.00    -0.061 C 
ATOM      9  C   UNL     1      -4.773   1.381   5.015  0.00  0.00    +0.028 C 
ATOM     10  C   UNL     1      -4.115   2.209   6.042  0.00  0.00    +0.071 A 
ATOM     11  C   UNL     1      -2.744   2.097   6.249  0.00  0.00    -0.001 A 
ATOM     12  C   UNL     1      -2.396   2.966   7.263  0.00  0.00    +0.139 A 
ATOM     13  N   UNL     1      -3.478   3.600   7.656  0.00  0.00    -0.174 NA
ATOM     14  N   UNL     1      -4.570   3.153   6.889  0.00  0.00    -0.231 N 
ATOM     15  C   UNL     1      -1.897   1.165   5.417  0.00  0.00    +0.050 C 
ATOM     16  C   UNL     1      -2.731  -0.054   5.031  0.00  0.00    -0.001 C 
ATOM     17  C   UNL     1      -2.040  -0.901   3.961  0.00  0.00    +0.031 C 
ATOM     18  C   UNL     1      -0.536  -0.958   4.210  0.00  0.00    +0.119 C 
ATOM     19  C   UNL     1       0.157  -1.862   3.206  0.00  0.00    +0.041 C 
ATOM     20  C   UNL     1      -0.200  -1.616   1.763  0.00  0.00    +0.009 C 
ATOM     21  C   UNL     1       0.572  -0.489   1.079  0.00  0.00    +0.134 C 
ATOM     22  C   UNL     1       0.151  -2.919   0.999  0.00  0.00    +0.015 C 
ATOM     23  C   UNL     1      -2.923  -0.924   6.284  0.00  0.00    +0.016 C 
ENDROOT
BRANCH  14  24
ATOM     24  C   UNL     1      -5.889   3.617   6.991  0.00  0.00    +0.084 A 
ATOM     25  C   UNL     1      -6.413   3.987   8.228  0.00  0.00    +0.034 A 
ATOM     26  C   UNL     1      -7.720   4.439   8.280  0.00  0.00    +0.061 A 
ATOM     27  C   UNL     1      -8.459   4.508   7.109  0.00  0.00    +0.213 A 
ATOM     28  N   UNL     1      -7.931   4.149   5.953  0.00  0.00    -0.225 NA
ATOM     29  C   UNL     1      -6.688   3.718   5.862  0.00  0.00    +0.141 A 
ATOM     30  F   UNL     1      -9.736   4.948   7.151  0.00  0.00    -0.184 F 
ENDBRANCH  14  24
BRANCH  21  31
ATOM     31  C   UNL     1       1.849  -1.036   0.483  0.00  0.00    +0.190 C 
ATOM     32  O   UNL     1       1.862  -1.433  -0.658  0.00  0.00    -0.292 OA
BRANCH  31  33
ATOM     33  C   UNL     1       3.107  -1.088   1.312  0.00  0.00    +0.233 C 
BRANCH  33  34
ATOM     34  O   UNL     1       4.169  -1.641   0.533  0.00  0.00    -0.387 OA
ATOM     35  H   UNL     1       5.011  -1.705   1.005  0.00  0.00    +0.210 HD
ENDBRANCH  33  34
ENDBRANCH  31  33
ENDBRANCH  21  31
BRANCH  21  36
ATOM     36  O   UNL     1       0.887   0.579   1.969  0.00  0.00    -0.380 OA
ATOM     37  H   UNL     1       1.366   1.309   1.553  0.00  0.00    +0.211 HD
ENDBRANCH  21  36
BRANCH  18  38
ATOM     38  O   UNL     1       0.070   0.329   4.191  0.00  0.00    -0.391 OA
ATOM     39  H   UNL     1       1.025   0.317   4.346  0.00  0.00    +0.210 HD
ENDBRANCH  18  38
TORSDOF 6
