REMARK  Name = ZINC09218454
REMARK  8 active torsions:
REMARK  status: ('A' for Active; 'I' for Inactive)
REMARK    1  A    between atoms: C_1  and  C_2
REMARK    2  A    between atoms: C_2  and  C_4
REMARK    3  A    between atoms: C_2  and  N_7
REMARK    4  A    between atoms: C_4  and  C_5
REMARK    5  A    between atoms: C_4  and  C_6
REMARK    6  A    between atoms: C_8  and  C_10
REMARK    7  A    between atoms: C_12  and  N_16
REMARK    8  A    between atoms: N_14  and  C_15
REMARK                            x       y       z     vdW  Elec       q    Type
REMARK                         _______ _______ _______ _____ _____    ______ ____
ROOT
ATOM      1  N   UNL     1      -1.174  -1.123  -0.047  0.00  0.00    -0.307 N 
ATOM      2  C   UNL     1      -1.895  -1.086  -1.185  0.00  0.00    +0.261 C 
ATOM      3  O   UNL     1      -1.367  -0.751  -2.229  0.00  0.00    -0.269 OA
ATOM      4  H   UNL     1      -1.611  -1.310   0.798  0.00  0.00    +0.149 HD
ENDROOT
BRANCH   2   5
ATOM      5  C   UNL     1      -3.316  -1.449  -1.165  0.00  0.00    +0.106 A 
ATOM      6  C   UNL     1      -4.060  -1.766  -0.049  0.00  0.00    +0.065 A 
ATOM      7  C   UNL     1      -5.359  -2.045  -0.487  0.00  0.00    +0.144 A 
ATOM      8  C   UNL     1      -5.384  -1.898  -1.833  0.00  0.00    +0.118 A 
ATOM      9  N   UNL     1      -4.150  -1.531  -2.257  0.00  0.00    -0.344 N 
ATOM     10  C   UNL     1      -3.767  -1.269  -3.647  0.00  0.00    +0.149 C 
BRANCH   7  11
ATOM     11  N   UNL     1      -6.502  -2.434   0.369  0.00  0.00    +0.058 N 
ATOM     12  O   UNL     1      -6.356  -2.533   1.565  0.00  0.00    -0.126 OA
ATOM     13  O   UNL     1      -7.582  -2.651  -0.128  0.00  0.00    -0.126 OA
ENDBRANCH   7  11
ENDBRANCH   2   5
BRANCH   1  15
ATOM     14  C   UNL     1       0.536   0.626  -0.033  0.00  0.00    +0.028 C 
ATOM     15  C   UNL     1       0.271  -0.880  -0.087  0.00  0.00    +0.073 C 
BRANCH  15  16
ATOM     16  C   UNL     1       0.935  -1.558   1.113  0.00  0.00    +0.003 C 
ATOM     17  C   UNL     1       2.443  -1.304   1.072  0.00  0.00    +0.009 C 
ATOM     18  C   UNL     1       0.356  -0.984   2.408  0.00  0.00    +0.009 C 
ENDBRANCH  15  16
ENDBRANCH   1  15
TORSDOF 4
