REMARK  Name = ZINC12703773
REMARK  8 active torsions:
REMARK  status: ('A' for Active; 'I' for Inactive)
REMARK    1  A    between atoms: C_10  and  N_11
REMARK    2  A    between atoms: N_11  and  C_12
REMARK    3  A    between atoms: C_12  and  C_14
REMARK    4  A    between atoms: C_12  and  C_19
REMARK    5  A    between atoms: N_21  and  C_22
REMARK    6  A    between atoms: C_27  and  C_29
REMARK    7  A    between atoms: C_30  and  N_37
REMARK    8  A    between atoms: C_31  and  C_34
REMARK                            x       y       z     vdW  Elec       q    Type
REMARK                         _______ _______ _______ _____ _____    ______ ____
ROOT
ATOM      1  N   UNL     1      -1.039   3.348   0.913  0.00  0.00    -0.247 N 
ATOM      2  C   UNL     1      -1.847   3.531   1.976  0.00  0.00    +0.262 C 
ATOM      3  O   UNL     1      -2.753   2.747   2.194  0.00  0.00    -0.269 OA
ENDROOT
BRANCH   1  13
ATOM      4  C   UNL     1       3.806   3.646   2.294  0.00  0.00    +0.001 A 
ATOM      5  C   UNL     1       2.783   2.738   2.557  0.00  0.00    +0.001 A 
ATOM      6  C   UNL     1       1.538   2.916   2.036  0.00  0.00    +0.010 A 
ATOM      7  C   UNL     1       1.276   4.032   1.226  0.00  0.00    +0.004 A 
ATOM      8  C   UNL     1       2.317   4.954   0.954  0.00  0.00    -0.016 A 
ATOM      9  C   UNL     1       3.590   4.737   1.509  0.00  0.00    +0.008 A 
ATOM     10  C   UNL     1       2.058   6.069   0.139  0.00  0.00    +0.008 A 
ATOM     11  C   UNL     1       0.815   6.253  -0.386  0.00  0.00    +0.002 A 
ATOM     12  C   UNL     1      -0.214   5.352  -0.130  0.00  0.00    +0.024 A 
ATOM     13  C   UNL     1      -0.001   4.245   0.664  0.00  0.00    +0.046 A 
ENDBRANCH   1  13
BRANCH   2  14
ATOM     14  C   UNL     1      -1.636   4.672   2.868  0.00  0.00    +0.116 A 
ATOM     15  C   UNL     1      -2.350   5.048   4.008  0.00  0.00    +0.076 A 
ATOM     16  C   UNL     1      -1.840   6.204   4.599  0.00  0.00    +0.155 A 
ATOM     17  N   UNL     1      -0.803   6.802   4.055  0.00  0.00    -0.203 NA
ATOM     18  S   UNL     1      -0.405   5.956   2.787  0.00  0.00    +0.019 S 
BRANCH  16  19
ATOM     19  C   UNL     1      -2.461   6.753   5.818  0.00  0.00    +0.262 C 
ATOM     20  O   UNL     1      -3.420   6.195   6.316  0.00  0.00    -0.269 OA
ATOM     21  N   UNL     1      -1.967   7.874   6.381  0.00  0.00    -0.324 N 
ATOM     22  H   UNL     1      -1.202   8.319   5.984  0.00  0.00    +0.145 HD
ATOM     23  H   UNL     1      -2.376   8.235   7.183  0.00  0.00    +0.145 HD
ENDBRANCH  16  19
BRANCH  15  24
ATOM     24  N   UNL     1      -3.444   4.348   4.499  0.00  0.00    -0.355 N 
ATOM     25  H   UNL     1      -3.752   3.549   4.045  0.00  0.00    +0.142 HD
ATOM     26  H   UNL     1      -3.900   4.659   5.296  0.00  0.00    +0.142 HD
ENDBRANCH  15  24
ENDBRANCH   2  14
BRANCH   1  27
ATOM     27  C   UNL     1      -1.250   2.205   0.020  0.00  0.00    +0.233 C 
BRANCH  27  28
ATOM     28  C   UNL     1      -0.016   1.341   0.009  0.00  0.00    +0.135 A 
ATOM     29  C   UNL     1       0.002  -0.004   0.002  0.00  0.00    +0.047 A 
ATOM     30  C   UNL     1       1.361  -0.395  -0.013  0.00  0.00    +0.041 A 
ATOM     31  C   UNL     1       2.091   0.734  -0.014  0.00  0.00    +0.195 A 
ATOM     32  O   UNL     1       1.252   1.783  -0.000  0.00  0.00    -0.465 OA
ENDBRANCH  27  28
BRANCH  27  33
ATOM     33  C   UNL     1      -1.527   2.703  -1.375  0.00  0.00    +0.242 C 
ATOM     34  O   UNL     1      -1.546   3.895  -1.601  0.00  0.00    -0.273 OA
ATOM     35  N   UNL     1      -1.754   1.825  -2.371  0.00  0.00    -0.311 N 
ATOM     36  H   UNL     1      -1.739   0.872  -2.191  0.00  0.00    +0.149 HD
BRANCH  35  37
ATOM     37  C   UNL     1      -2.023   2.309  -3.728  0.00  0.00    +0.073 C 
ATOM     38  C   UNL     1      -3.533   2.568  -3.906  0.00  0.00    +0.022 C 
ATOM     39  C   UNL     1      -3.825   2.127  -5.362  0.00  0.00    +0.002 C 
ATOM     40  C   UNL     1      -2.926   0.876  -5.526  0.00  0.00    +0.002 C 
ATOM     41  C   UNL     1      -1.637   1.232  -4.758  0.00  0.00    +0.022 C 
ENDBRANCH  35  37
ENDBRANCH  27  33
ENDBRANCH   1  27
TORSDOF 8
