REMARK  Name = ZINC66796070
REMARK  3 active torsions:
REMARK  status: ('A' for Active; 'I' for Inactive)
REMARK    1  A    between atoms: C_4  and  C_7
REMARK    2  A    between atoms: N_12  and  C_15
REMARK    3  A    between atoms: C_15  and  N_16
REMARK                            x       y       z     vdW  Elec       q    Type
REMARK                         _______ _______ _______ _____ _____    ______ ____
ROOT
ATOM      1  C   UNL     1       3.711  -0.707  -0.038  0.00  0.00    +0.020 C 
ATOM      2  C   UNL     1       3.792  -1.594  -1.301  0.00  0.00    +0.009 C 
ATOM      3  C   UNL     1       5.162  -2.009  -1.581  0.00  0.00    +0.016 C 
ATOM      4  C   UNL     1       5.769  -2.854  -0.446  0.00  0.00    +0.086 C 
ATOM      5  N   UNL     1       6.236  -1.960   0.586  0.00  0.00    -0.286 NA
ATOM      6  C   UNL     1       5.261  -1.754   1.679  0.00  0.00    +0.086 C 
ATOM      7  C   UNL     1       3.815  -1.583   1.182  0.00  0.00    +0.023 C 
ENDROOT
BRANCH   1  11
ATOM      8  C   UNL     1      -0.017   1.378   0.010  0.00  0.00    +0.000 A 
ATOM      9  C   UNL     1       1.171   2.086   0.002  0.00  0.00    +0.000 A 
ATOM     10  C   UNL     1       2.377   1.411  -0.013  0.00  0.00    +0.004 A 
ATOM     11  C   UNL     1       2.396   0.029  -0.020  0.00  0.00    -0.044 A 
ATOM     12  C   UNL     1       1.208  -0.679  -0.012  0.00  0.00    +0.004 A 
ATOM     13  C   UNL     1       0.002  -0.004   0.002  0.00  0.00    +0.000 A 
ENDBRANCH   1  11
BRANCH   5  14
ATOM     14  C   UNL     1       7.535  -2.398   1.115  0.00  0.00    +0.205 C 
BRANCH  14  15
ATOM     15  N   UNL     1       8.603  -1.958   0.214  0.00  0.00    -0.211 N 
ATOM     16  C   UNL     1       9.063  -2.683  -0.829  0.00  0.00    +0.248 C 
ATOM     17  O   UNL     1       8.688  -3.779  -1.185  0.00  0.00    -0.273 OA
ATOM     18  C   UNL     1      10.143  -1.837  -1.454  0.00  0.00    +0.113 C 
ATOM     19  C   UNL     1      11.494  -2.565  -1.434  0.00  0.00    +0.035 C 
ATOM     20  C   UNL     1      11.621  -3.159  -2.861  0.00  0.00    +0.003 C 
ATOM     21  C   UNL     1      10.999  -2.054  -3.751  0.00  0.00    +0.003 C 
ATOM     22  C   UNL     1       9.819  -1.513  -2.914  0.00  0.00    +0.035 C 
ATOM     23  N   UNL     1      10.182  -0.626  -0.633  0.00  0.00    -0.285 N 
ATOM     24  C   UNL     1       9.240  -0.785   0.318  0.00  0.00    +0.310 C 
ATOM     25  O   UNL     1       8.998   0.042   1.175  0.00  0.00    -0.252 OA
ATOM     26  H   UNL     1      10.767   0.139  -0.751  0.00  0.00    +0.151 HD
ENDBRANCH  14  15
ENDBRANCH   5  14
TORSDOF 3
