REMARK  Name = ZINC44534051
REMARK  6 active torsions:
REMARK  status: ('A' for Active; 'I' for Inactive)
REMARK    1  A    between atoms: C_1  and  N_2
REMARK    2  A    between atoms: C_6  and  C_9
REMARK    3  A    between atoms: C_9  and  N_10
REMARK    4  A    between atoms: N_10  and  S_11
REMARK    5  A    between atoms: S_11  and  C_14
REMARK    6  A    between atoms: C_17  and  N_21
REMARK                            x       y       z     vdW  Elec       q    Type
REMARK                         _______ _______ _______ _____ _____    ______ ____
ROOT
ATOM      1  S   UNL     1       2.253  -4.839   3.578  0.00  0.00    +0.061 S 
ATOM      2  O   UNL     1       1.856  -6.199   3.471  0.00  0.00    -0.153 OA
ATOM      3  O   UNL     1       3.582  -4.410   3.311  0.00  0.00    -0.153 OA
ENDROOT
BRANCH   1   4
ATOM      4  C   UNL     1       1.883  -4.334   5.225  0.00  0.00    +0.140 A 
ATOM      5  C   UNL     1       1.340  -5.239   6.118  0.00  0.00    +0.033 A 
ATOM      6  C   UNL     1       1.049  -4.847   7.410  0.00  0.00    +0.025 A 
ATOM      7  C   UNL     1       1.302  -3.542   7.813  0.00  0.00    +0.027 A 
ATOM      8  C   UNL     1       1.847  -2.634   6.915  0.00  0.00    +0.063 A 
ATOM      9  C   UNL     1       2.142  -3.034   5.624  0.00  0.00    +0.151 A 
ATOM     10  F   UNL     1       2.677  -2.153   4.750  0.00  0.00    -0.203 F 
BRANCH   7  11
ATOM     11  N   UNL     1       1.008  -3.144   9.119  0.00  0.00    -0.358 N 
ATOM     12  H   UNL     1       0.626  -3.779   9.745  0.00  0.00    +0.142 HD
ATOM     13  H   UNL     1       1.184  -2.232   9.399  0.00  0.00    +0.142 HD
ENDBRANCH   7  11
ENDBRANCH   1   4
BRANCH   1  14
ATOM     14  N   UNL     1       1.265  -3.976   2.567  0.00  0.00    -0.190 NA
ATOM     15  H   UNL     1       0.592  -4.434   2.040  0.00  0.00    +0.148 HD
BRANCH  14  16
ATOM     16  C   UNL     1       1.408  -2.521   2.470  0.00  0.00    +0.107 C 
BRANCH  16  22
ATOM     17  C   UNL     1      -0.018   1.465   0.010  0.00  0.00    -0.096 C 
ATOM     18  N   UNL     1       0.002  -0.004   0.002  0.00  0.00    +0.378 N 
ATOM     19  C   UNL     1       0.681  -0.476  -1.210  0.00  0.00    -0.079 C 
ATOM     20  C   UNL     1       0.634  -2.005  -1.264  0.00  0.00    -0.018 C 
ATOM     21  C   UNL     1       1.336  -2.575  -0.029  0.00  0.00    +0.001 C 
ATOM     22  C   UNL     1       0.666  -2.018   1.230  0.00  0.00    -0.012 C 
ATOM     23  C   UNL     1       0.712  -0.489   1.192  0.00  0.00    -0.074 C 
ATOM     24  H   UNL     1      -0.945  -0.352   0.012  0.00  0.00    -0.082 HD
ENDBRANCH  16  22
ENDBRANCH  14  16
ENDBRANCH   1  14
TORSDOF 5
