REMARK  Name = ZINC30262238
REMARK  6 active torsions:
REMARK  status: ('A' for Active; 'I' for Inactive)
REMARK    1  A    between atoms: C_1  and  C_2
REMARK    2  A    between atoms: C_2  and  C_4
REMARK    3  A    between atoms: C_2  and  N_15
REMARK    4  A    between atoms: N_6  and  C_7
REMARK    5  A    between atoms: C_8  and  C_12
REMARK    6  A    between atoms: C_21  and  C_23
REMARK                            x       y       z     vdW  Elec       q    Type
REMARK                         _______ _______ _______ _____ _____    ______ ____
ROOT
ATOM      1  N   UNL     1      -4.327   0.590   1.918  0.00  0.00    +0.389 N 
ATOM      2  C   UNL     1      -4.291   1.655   2.929  0.00  0.00    -0.058 C 
ATOM      3  C   UNL     1      -4.505   3.010   2.246  0.00  0.00    +0.089 C 
ATOM      4  N   UNL     1      -5.744   2.945   1.456  0.00  0.00    -0.301 N 
ATOM      5  C   UNL     1      -5.912   1.824   0.517  0.00  0.00    +0.089 C 
ATOM      6  C   UNL     1      -5.643   0.516   1.268  0.00  0.00    -0.058 C 
ATOM      7  C   UNL     1      -6.699   3.886   1.587  0.00  0.00    +0.248 C 
ATOM      8  O   UNL     1      -7.747   3.778   0.981  0.00  0.00    -0.270 OA
ATOM      9  H   UNL     1      -3.586   0.837   1.144  0.00  0.00    -0.081 HD
ENDROOT
BRANCH   7  10
ATOM     10  C   UNL     1      -6.472   5.050   2.468  0.00  0.00    +0.055 A 
ATOM     11  C   UNL     1      -5.198   5.613   2.572  0.00  0.00    +0.016 A 
ATOM     12  C   UNL     1      -4.992   6.699   3.396  0.00  0.00    +0.021 A 
ATOM     13  C   UNL     1      -6.046   7.233   4.120  0.00  0.00    +0.042 A 
ATOM     14  C   UNL     1      -7.311   6.681   4.022  0.00  0.00    +0.040 A 
ATOM     15  C   UNL     1      -7.532   5.596   3.197  0.00  0.00    +0.054 A 
ATOM     16 CL   UNL     1      -9.121   4.908   3.069  0.00  0.00    -0.083 Cl
ATOM     17 CL   UNL     1      -5.778   8.601   5.155  0.00  0.00    -0.083 Cl
ENDBRANCH   7  10
BRANCH   1  19
ATOM     18  C   UNL     1      -5.120  -1.238   3.342  0.00  0.00    -0.004 C 
ATOM     19  C   UNL     1      -3.957  -0.705   2.504  0.00  0.00    +0.017 C 
BRANCH  19  20
ATOM     20  C   UNL     1      -3.643  -1.684   1.402  0.00  0.00    +0.204 C 
ATOM     21  O   UNL     1      -3.912  -1.409   0.252  0.00  0.00    -0.277 OA
ATOM     22  N   UNL     1      -3.062  -2.865   1.694  0.00  0.00    -0.281 N 
ATOM     23  H   UNL     1      -2.814  -3.112   2.737  0.00  0.00    +0.155 HD
BRANCH  22  24
ATOM     24  C   UNL     1      -2.778  -3.768   0.681  0.00  0.00    +0.084 A 
ATOM     25  C   UNL     1      -2.188  -5.022   0.782  0.00  0.00    +0.065 A 
ATOM     26  C   UNL     1      -2.014  -5.759  -0.447  0.00  0.00    +0.022 A 
ATOM     27  C   UNL     1      -2.426  -5.166  -1.582  0.00  0.00    +0.048 A 
ATOM     28  S   UNL     1      -3.066  -3.603  -1.019  0.00  0.00    -0.081 S 
BRANCH  25  29
ATOM     29  C   UNL     1      -1.768  -5.572   2.075  0.00  0.00    +0.244 C 
ATOM     30  O   UNL     1      -1.932  -4.926   3.093  0.00  0.00    -0.270 OA
ATOM     31  N   UNL     1      -1.199  -6.792   2.135  0.00  0.00    -0.325 N 
ATOM     32  H   UNL     1      -0.883  -7.204   3.105  0.00  0.00    +0.145 HD
ATOM     33  H   UNL     1      -1.050  -7.376   1.215  0.00  0.00    +0.145 HD
ENDBRANCH  25  29
ENDBRANCH  22  24
ENDBRANCH  19  20
ENDBRANCH   1  19
TORSDOF 5
