REMARK  Name = ZINC49601782
REMARK  19 active torsions:
REMARK  status: ('A' for Active; 'I' for Inactive)
REMARK    1  A    between atoms: C_1  and  C_2
REMARK    2  A    between atoms: C_7  and  C_43
REMARK    3  A    between atoms: C_7  and  C_44
REMARK    4  A    between atoms: C_8  and  C_10
REMARK    5  A    between atoms: C_10  and  C_11
REMARK    6  A    between atoms: C_11  and  C_12
REMARK    7  A    between atoms: C_12  and  C_14
REMARK    8  A    between atoms: C_12  and  O_15
REMARK    9  A    between atoms: O_15  and  C_16
REMARK   10  A    between atoms: C_18  and  O_42
REMARK   11  A    between atoms: C_20  and  O_41
REMARK   12  A    between atoms: C_22  and  O_40
REMARK   13  A    between atoms: C_24  and  C_27
REMARK   14  A    between atoms: C_27  and  O_28
REMARK   15  A    between atoms: O_28  and  C_29
REMARK   16  A    between atoms: C_29  and  C_31
REMARK   17  A    between atoms: C_33  and  O_39
REMARK   18  A    between atoms: C_34  and  O_38
REMARK   19  A    between atoms: C_35  and  O_37
REMARK                            x       y       z     vdW  Elec       q    Type
REMARK                         _______ _______ _______ _____ _____    ______ ____
ROOT
ATOM      1  C   UNL     1       3.106   1.775   5.133  0.00  0.00    +0.282 C 
ATOM      2  C   UNL     1       3.444   0.814   6.275  0.00  0.00    +0.201 C 
ATOM      3  C   UNL     1       4.839   1.144   6.815  0.00  0.00    +0.179 C 
ATOM      4  C   UNL     1       4.868   2.609   7.260  0.00  0.00    +0.178 C 
ATOM      5  C   UNL     1       4.476   3.502   6.079  0.00  0.00    +0.190 C 
ATOM      6  O   UNL     1       3.182   3.121   5.606  0.00  0.00    -0.339 OA
ENDROOT
BRANCH   4   7
ATOM      7  O   UNL     1       3.944   2.801   8.333  0.00  0.00    -0.386 OA
ATOM      8  H   UNL     1       4.131   2.262   9.114  0.00  0.00    +0.210 HD
ENDBRANCH   4   7
BRANCH   3   9
ATOM      9  O   UNL     1       5.133   0.298   7.928  0.00  0.00    -0.386 OA
ATOM     10  H   UNL     1       5.125  -0.646   7.718  0.00  0.00    +0.210 HD
ENDBRANCH   3   9
BRANCH   2  11
ATOM     11  O   UNL     1       2.480   0.957   7.320  0.00  0.00    -0.384 OA
ATOM     12  H   UNL     1       1.572   0.767   7.047  0.00  0.00    +0.210 HD
ENDBRANCH   2  11
BRANCH   1  13
ATOM     13  O   UNL     1       1.784   1.510   4.661  0.00  0.00    -0.346 OA
BRANCH  13  14
ATOM     14  C   UNL     1       1.449   2.194   3.452  0.00  0.00    +0.118 C 
ATOM     15  C   UNL     1       0.832   3.553   3.790  0.00  0.00    +0.038 C 
BRANCH  14  16
ATOM     16  C   UNL     1       0.443   1.361   2.656  0.00  0.00    +0.032 C 
BRANCH  16  17
ATOM     17  C   UNL     1       1.102   0.054   2.211  0.00  0.00    +0.011 C 
BRANCH  17  25
ATOM     18  C   UNL     1      -0.252   1.188  -0.043  0.00  0.00    +0.039 C 
ATOM     19  C   UNL     1      -0.216  -0.306   0.155  0.00  0.00    -0.066 C 
ATOM     20  C   UNL     1      -0.426  -1.087  -0.897  0.00  0.00    +0.045 C 
ATOM     21  C   UNL     1      -0.393  -2.547  -0.761  0.00  0.00    +0.157 C 
ATOM     22  O   UNL     1      -0.378  -3.267  -1.738  0.00  0.00    -0.293 OA
ATOM     23  C   UNL     1      -0.378  -3.125   0.639  0.00  0.00    +0.086 C 
ATOM     24  C   UNL     1       0.584  -2.269   1.475  0.00  0.00    -0.021 C 
ATOM     25  C   UNL     1       0.061  -0.837   1.530  0.00  0.00    +0.021 C 
ATOM     26  C   UNL     1       1.971  -2.279   0.830  0.00  0.00    +0.012 C 
ATOM     27  C   UNL     1       0.673  -2.838   2.893  0.00  0.00    +0.012 C 
ENDBRANCH  17  25
ENDBRANCH  16  17
ENDBRANCH  14  16
ENDBRANCH  13  14
ENDBRANCH   1  13
BRANCH   5  28
ATOM     28  C   UNL     1       4.445   4.963   6.532  0.00  0.00    +0.266 C 
BRANCH  28  29
ATOM     29  O   UNL     1       4.193   5.805   5.406  0.00  0.00    -0.458 OA
BRANCH  29  30
ATOM     30  C   UNL     1       4.134   7.132   5.635  0.00  0.00    +0.340 C 
ATOM     31  O   UNL     1       4.292   7.561   6.760  0.00  0.00    -0.245 OA
BRANCH  30  32
ATOM     32  C   UNL     1       3.878   8.062   4.520  0.00  0.00    +0.066 A 
ATOM     33  C   UNL     1       3.690   7.569   3.225  0.00  0.00    +0.064 A 
ATOM     34  C   UNL     1       3.450   8.443   2.182  0.00  0.00    +0.163 A 
ATOM     35  C   UNL     1       3.395   9.814   2.420  0.00  0.00    +0.201 A 
ATOM     36  C   UNL     1       3.583  10.308   3.708  0.00  0.00    +0.163 A 
ATOM     37  C   UNL     1       3.816   9.438   4.756  0.00  0.00    +0.064 A 
BRANCH  36  38
ATOM     38  O   UNL     1       3.529  11.648   3.936  0.00  0.00    -0.503 OA
ATOM     39  H   UNL     1       2.645  11.975   4.151  0.00  0.00    +0.292 HD
ENDBRANCH  36  38
BRANCH  35  40
ATOM     40  O   UNL     1       3.160  10.671   1.392  0.00  0.00    -0.501 OA
ATOM     41  H   UNL     1       2.223  10.859   1.243  0.00  0.00    +0.292 HD
ENDBRANCH  35  40
BRANCH  34  42
ATOM     42  O   UNL     1       3.267   7.963   0.923  0.00  0.00    -0.503 OA
ATOM     43  H   UNL     1       2.345   7.764   0.708  0.00  0.00    +0.292 HD
ENDBRANCH  34  42
ENDBRANCH  30  32
ENDBRANCH  29  30
ENDBRANCH  28  29
ENDBRANCH   5  28
TORSDOF 15
