REMARK  Name = ZINC02283239
REMARK  12 active torsions:
REMARK  status: ('A' for Active; 'I' for Inactive)
REMARK    1  A    between atoms: C_1  and  O_2
REMARK    2  A    between atoms: O_2  and  C_3
REMARK    3  A    between atoms: C_5  and  C_23
REMARK    4  A    between atoms: C_8  and  N_9
REMARK    5  A    between atoms: N_9  and  C_10
REMARK    6  A    between atoms: C_10  and  N_12
REMARK    7  A    between atoms: C_13  and  C_15
REMARK    8  A    between atoms: C_23  and  C_24
REMARK    9  A    between atoms: C_23  and  C_28
REMARK   10  A    between atoms: C_23  and  O_32
REMARK   11  A    between atoms: C_24  and  O_26
REMARK   12  A    between atoms: O_26  and  C_27
REMARK                            x       y       z     vdW  Elec       q    Type
REMARK                         _______ _______ _______ _____ _____    ______ ____
ROOT
ATOM      1  C   UNL     1      -0.534   4.107  -0.543  0.00  0.00    +0.142 A 
ATOM      2  C   UNL     1      -1.568   3.185  -0.548  0.00  0.00    +0.054 A 
ATOM      3  C   UNL     1      -1.376   1.929  -0.003  0.00  0.00    +0.007 A 
ATOM      4  C   UNL     1      -0.157   1.593   0.557  0.00  0.00    +0.009 A 
ATOM      5  C   UNL     1       0.879   2.507   0.565  0.00  0.00    +0.027 A 
ATOM      6  C   UNL     1       0.696   3.768   0.016  0.00  0.00    +0.075 A 
ENDROOT
BRANCH   1   8
ATOM      7  C   UNL     1      -2.007   5.620  -1.638  0.00  0.00    +0.277 C 
ATOM      8  O   UNL     1      -0.720   5.342  -1.083  0.00  0.00    -0.493 OA
ENDBRANCH   1   8
BRANCH   6   9
ATOM      9  N   UNL     1       1.744   4.697   0.024  0.00  0.00    -0.294 N 
ATOM     10  H   UNL     1       1.567   5.627   0.234  0.00  0.00    +0.154 HD
BRANCH   9  11
ATOM     11  C   UNL     1       3.000   4.298  -0.261  0.00  0.00    +0.141 C 
ATOM     12  S   UNL     1       3.337   2.637  -0.502  0.00  0.00    -0.018 S 
BRANCH  11  13
ATOM     13  N   UNL     1       3.990   5.207  -0.357  0.00  0.00    -0.264 N 
ATOM     14  C   UNL     1       5.246   4.809  -0.642  0.00  0.00    +0.251 C 
ATOM     15  O   UNL     1       5.485   3.629  -0.813  0.00  0.00    -0.270 OA
ATOM     16  H   UNL     1       3.799   6.149  -0.221  0.00  0.00    +0.157 HD
BRANCH  14  17
ATOM     17  C   UNL     1       6.330   5.805  -0.747  0.00  0.00    +0.055 A 
ATOM     18  C   UNL     1       6.059   7.161  -0.551  0.00  0.00    +0.016 A 
ATOM     19  C   UNL     1       7.076   8.086  -0.650  0.00  0.00    +0.021 A 
ATOM     20  C   UNL     1       8.366   7.674  -0.943  0.00  0.00    +0.042 A 
ATOM     21  C   UNL     1       8.643   6.332  -1.139  0.00  0.00    +0.040 A 
ATOM     22  C   UNL     1       7.635   5.394  -1.036  0.00  0.00    +0.054 A 
ATOM     23 CL   UNL     1       7.984   3.710  -1.274  0.00  0.00    -0.083 Cl
ATOM     24 CL   UNL     1       9.641   8.846  -1.066  0.00  0.00    -0.083 Cl
ENDBRANCH  14  17
ENDBRANCH  11  13
ENDBRANCH   9  11
ENDBRANCH   6   9
BRANCH   3  25
ATOM     25  C   UNL     1      -2.500   0.925  -0.015  0.00  0.00    +0.283 C 
BRANCH  25  26
ATOM     26  C   UNL     1      -2.793   0.471   1.417  0.00  0.00    +0.433 C 
ATOM     27  F   UNL     1      -3.035   1.591   2.220  0.00  0.00    -0.167 F 
ATOM     28  F   UNL     1      -3.920  -0.358   1.421  0.00  0.00    -0.167 F 
ATOM     29  F   UNL     1      -1.693  -0.233   1.917  0.00  0.00    -0.167 F 
ENDBRANCH  25  26
BRANCH  25  30
ATOM     30  C   UNL     1      -2.101  -0.266  -0.847  0.00  0.00    +0.353 C 
ATOM     31  O   UNL     1      -0.932  -0.533  -0.999  0.00  0.00    -0.247 OA
BRANCH  30  32
ATOM     32  O   UNL     1      -3.044  -1.031  -1.420  0.00  0.00    -0.465 OA
ATOM     33  C   UNL     1      -2.586  -2.162  -2.208  0.00  0.00    +0.280 C 
ENDBRANCH  30  32
ENDBRANCH  25  30
BRANCH  25  34
ATOM     34  O   UNL     1      -3.670   1.526  -0.573  0.00  0.00    -0.367 OA
ATOM     35  H   UNL     1      -3.556   1.838  -1.482  0.00  0.00    +0.212 HD
ENDBRANCH  25  34
ENDBRANCH   3  25
TORSDOF 10
