REMARK  Name = ZINC26505266
REMARK  5 active torsions:
REMARK  status: ('A' for Active; 'I' for Inactive)
REMARK    1  A    between atoms: C_1  and  O_2
REMARK    2  A    between atoms: O_2  and  C_3
REMARK    3  A    between atoms: C_5  and  O_23
REMARK    4  A    between atoms: C_8  and  N_9
REMARK    5  A    between atoms: O_23  and  C_24
REMARK                            x       y       z     vdW  Elec       q    Type
REMARK                         _______ _______ _______ _____ _____    ______ ____
ROOT
ATOM      1  N   UNL     1      -0.070  -2.779  -0.012  0.00  0.00    -0.273 N 
ATOM      2  C   UNL     1       0.591  -3.203   1.183  0.00  0.00    +0.117 C 
ATOM      3  C   UNL     1      -0.026  -3.124   2.569  0.00  0.00    +0.190 C 
ATOM      4  S   UNL     1       1.156  -4.192   3.514  0.00  0.00    -0.028 S 
ATOM      5  O   UNL     1       1.979  -3.367   4.327  0.00  0.00    -0.174 OA
ATOM      6  O   UNL     1       0.440  -5.268   4.105  0.00  0.00    -0.174 OA
ATOM      7  C   UNL     1       2.163  -4.840   2.096  0.00  0.00    +0.182 C 
ATOM      8  C   UNL     1       1.103  -4.680   0.984  0.00  0.00    +0.097 C 
ATOM      9  S   UNL     1       1.810  -4.360  -0.679  0.00  0.00    -0.086 S 
ATOM     10  C   UNL     1       0.559  -3.178  -1.201  0.00  0.00    +0.133 C 
ATOM     11  N   UNL     1       0.297  -2.780  -2.416  0.00  0.00    -0.381 N 
ATOM     12  H   UNL     1      -0.407  -2.131  -2.572  0.00  0.00    +0.158 HD
ATOM     13  H   UNL     1       0.806  -3.132  -3.162  0.00  0.00    +0.158 HD
ENDROOT
BRANCH   1  19
ATOM     14  C   UNL     1      -1.201  -0.638   0.010  0.00  0.00    +0.145 A 
ATOM     15  C   UNL     1      -2.374   0.100   0.019  0.00  0.00    +0.094 A 
ATOM     16  C   UNL     1      -3.600  -0.548   0.027  0.00  0.00    +0.142 A 
ATOM     17  C   UNL     1      -3.653  -1.935   0.026  0.00  0.00    +0.084 A 
ATOM     18  C   UNL     1      -2.485  -2.674   0.017  0.00  0.00    +0.050 A 
ATOM     19  C   UNL     1      -1.256  -2.029   0.003  0.00  0.00    +0.080 A 
ATOM     20 CL   UNL     1      -5.190  -2.743   0.037  0.00  0.00    -0.080 Cl
BRANCH  14  22
ATOM     21  C   UNL     1      -0.017   1.425   0.010  0.00  0.00    +0.277 C 
ATOM     22  O   UNL     1       0.002  -0.004   0.002  0.00  0.00    -0.493 OA
ENDBRANCH  14  22
BRANCH  16  23
ATOM     23  O   UNL     1      -4.750   0.176   0.036  0.00  0.00    -0.494 OA
ATOM     24  C   UNL     1      -4.621   1.600   0.037  0.00  0.00    +0.277 C 
ENDBRANCH  16  23
ENDBRANCH   1  19
TORSDOF 3
