REMARK  Name = ZINC39680569
REMARK  9 active torsions:
REMARK  status: ('A' for Active; 'I' for Inactive)
REMARK    1  A    between atoms: C_1  and  C_2
REMARK    2  A    between atoms: C_2  and  C_4
REMARK    3  A    between atoms: C_2  and  O_26
REMARK    4  A    between atoms: C_8  and  C_17
REMARK    5  A    between atoms: N_19  and  C_20
REMARK    6  A    between atoms: C_20  and  C_21
REMARK    7  A    between atoms: N_23  and  C_24
REMARK    8  A    between atoms: N_23  and  C_25
REMARK    9  A    between atoms: O_26  and  C_27
REMARK                            x       y       z     vdW  Elec       q    Type
REMARK                         _______ _______ _______ _____ _____    ______ ____
ROOT
ATOM      1  C   UNL     1       0.494  -0.470   1.122  0.00  0.00    +0.256 C 
ATOM      2  O   UNL     1      -0.219  -0.911   1.998  0.00  0.00    -0.272 OA
ATOM      3  N   UNL     1       1.833  -0.463   1.282  0.00  0.00    -0.297 N 
ATOM      4  C   UNL     1       2.862  -0.040   0.303  0.00  0.00    +0.121 C 
ATOM      5  C   UNL     1       3.919   0.708   1.147  0.00  0.00    +0.100 C 
ATOM      6  C   UNL     1       3.747   0.155   2.571  0.00  0.00    -0.004 C 
ATOM      7  C   UNL     1       2.607  -0.869   2.479  0.00  0.00    +0.115 C 
ATOM      8  C   UNL     1       3.365   1.277   3.532  0.00  0.00    -0.010 C 
ATOM      9  C   UNL     1       3.256   0.713   4.951  0.00  0.00    -0.082 C 
ATOM     10  N   UNL     1       4.541   0.122   5.344  0.00  0.00    +0.379 N 
ATOM     11  C   UNL     1       4.857  -1.016   4.472  0.00  0.00    -0.082 C 
ATOM     12  C   UNL     1       5.033  -0.525   3.033  0.00  0.00    -0.010 C 
ATOM     13  H   UNL     1       5.268   0.817   5.264  0.00  0.00    -0.086 HD
ATOM     14  H   UNL     1       4.486  -0.194   6.301  0.00  0.00    -0.086 HD
ENDROOT
BRANCH   5  15
ATOM     15  C   UNL     1       5.304   0.417   0.631  0.00  0.00    +0.219 C 
ATOM     16  O   UNL     1       5.546  -0.653   0.113  0.00  0.00    -0.275 OA
ATOM     17  N   UNL     1       6.275   1.345   0.745  0.00  0.00    -0.306 N 
ATOM     18  H   UNL     1       6.082   2.200   1.159  0.00  0.00    +0.149 HD
BRANCH  17  19
ATOM     19  C   UNL     1       7.622   1.061   0.244  0.00  0.00    +0.200 C 
BRANCH  19  20
ATOM     20  C   UNL     1       8.511   2.252   0.492  0.00  0.00    +0.232 C 
ATOM     21  O   UNL     1       8.064   3.240   1.034  0.00  0.00    -0.274 OA
ATOM     22  N   UNL     1       9.804   2.219   0.111  0.00  0.00    -0.306 N 
ATOM     23  C   UNL     1      10.668   3.377   0.352  0.00  0.00    +0.131 C 
ATOM     24  C   UNL     1      10.344   1.025  -0.544  0.00  0.00    +0.131 C 
ENDBRANCH  19  20
ENDBRANCH  17  19
ENDBRANCH   5  15
BRANCH   1  26
ATOM     25  C   UNL     1       0.093   1.585  -0.207  0.00  0.00    +0.062 C 
ATOM     26  C   UNL     1      -0.116   0.071  -0.145  0.00  0.00    +0.256 C 
BRANCH  26  27
ATOM     27  O   UNL     1      -1.515  -0.218  -0.161  0.00  0.00    -0.480 OA
BRANCH  27  28
ATOM     28  C   UNL     1      -2.117  -0.291  -1.378  0.00  0.00    +0.122 A 
ATOM     29  C   UNL     1      -1.399   0.009  -2.526  0.00  0.00    +0.045 A 
ATOM     30  C   UNL     1      -2.013  -0.067  -3.762  0.00  0.00    +0.004 A 
ATOM     31  C   UNL     1      -3.341  -0.441  -3.854  0.00  0.00    +0.000 A 
ATOM     32  C   UNL     1      -4.058  -0.739  -2.710  0.00  0.00    +0.004 A 
ATOM     33  C   UNL     1      -3.448  -0.671  -1.473  0.00  0.00    +0.045 A 
ENDBRANCH  27  28
ENDBRANCH  26  27
ENDBRANCH   1  26
TORSDOF 6
