REMARK  Name = ZINC66740675
REMARK  6 active torsions:
REMARK  status: ('A' for Active; 'I' for Inactive)
REMARK    1  A    between atoms: C_1  and  C_2
REMARK    2  A    between atoms: C_5  and  O_8
REMARK    3  A    between atoms: O_8  and  C_9
REMARK    4  A    between atoms: C_9  and  C_10
REMARK    5  A    between atoms: C_12  and  C_15
REMARK    6  A    between atoms: C_19  and  C_27
REMARK                            x       y       z     vdW  Elec       q    Type
REMARK                         _______ _______ _______ _____ _____    ______ ____
ROOT
ATOM      1  C   UNL     1       0.090  -6.277   1.043  0.00  0.00    +0.116 A 
ATOM      2  N   UNL     1       1.126  -7.071   0.932  0.00  0.00    -0.242 NA
ATOM      3  C   UNL     1       0.980  -8.369   0.754  0.00  0.00    +0.087 A 
ATOM      4  C   UNL     1      -0.291  -8.842   0.691  0.00  0.00    +0.074 A 
ATOM      5  S   UNL     1      -1.216  -7.330   0.908  0.00  0.00    -0.077 S 
ENDROOT
BRANCH   3   6
ATOM      6  C   UNL     1       2.169  -9.285   0.625  0.00  0.00    +0.209 C 
ATOM      7  N   UNL     1       3.297  -8.711   1.377  0.00  0.00    -0.318 N 
ATOM      8  C   UNL     1       3.308  -8.927   2.761  0.00  0.00    +0.082 A 
ATOM      9  C   UNL     1       3.848  -8.289   3.805  0.00  0.00    +0.055 A 
ATOM     10  N   UNL     1       3.493  -8.990   4.922  0.00  0.00    -0.279 N 
ATOM     11  H   UNL     1       3.745  -8.754   5.828  0.00  0.00    +0.189 HD
ATOM     12  N   UNL     1       2.773 -10.013   4.598  0.00  0.00    -0.167 NA
ATOM     13  C   UNL     1       2.615 -10.055   3.309  0.00  0.00    +0.168 A 
ATOM     14  C   UNL     1       1.915 -10.988   2.404  0.00  0.00    +0.268 C 
ATOM     15  O   UNL     1       1.464 -12.044   2.802  0.00  0.00    -0.268 OA
ATOM     16  N   UNL     1       1.801 -10.609   1.111  0.00  0.00    -0.287 N 
ATOM     17  C   UNL     1       4.686  -7.038   3.757  0.00  0.00    +0.067 C 
ATOM     18  H   UNL     1       4.000  -8.209   0.935  0.00  0.00    +0.148 HD
ATOM     19  H   UNL     1       1.454 -11.253   0.473  0.00  0.00    +0.151 HD
ENDBRANCH   3   6
BRANCH   1  20
ATOM     20  C   UNL     1       0.072  -4.785   1.249  0.00  0.00    +0.291 C 
BRANCH  20  21
ATOM     21  O   UNL     1       0.057  -4.129  -0.021  0.00  0.00    -0.485 OA
BRANCH  21  26
ATOM     22  C   UNL     1      -0.018   1.503   0.010  0.00  0.00    +0.044 C 
ATOM     23  C   UNL     1       0.002  -0.004   0.002  0.00  0.00    -0.050 A 
ATOM     24  C   UNL     1       0.006  -0.688  -1.200  0.00  0.00    +0.007 A 
ATOM     25  C   UNL     1       0.024  -2.069  -1.210  0.00  0.00    +0.046 A 
ATOM     26  C   UNL     1       0.039  -2.770  -0.013  0.00  0.00    +0.121 A 
ATOM     27  C   UNL     1       0.036  -2.082   1.191  0.00  0.00    +0.046 A 
ATOM     28  C   UNL     1       0.023  -0.701   1.196  0.00  0.00    +0.007 A 
ENDBRANCH  21  26
ENDBRANCH  20  21
ENDBRANCH   1  20
TORSDOF 4
