REMARK  Name = ZINC40879914
REMARK  4 active torsions:
REMARK  status: ('A' for Active; 'I' for Inactive)
REMARK    1  A    between atoms: CA_8  and  C_20
REMARK    2  A    between atoms: C_10  and  O_11
REMARK    3  A    between atoms: O_11  and  C_12
REMARK    4  A    between atoms: C_20  and  O_21
REMARK                            x       y       z     vdW  Elec       q    Type
REMARK                         _______ _______ _______ _____ _____    ______ ____
ROOT
ATOM      1  C   UNL     1       0.024   1.329  -0.727  0.00  0.00    +0.001 A 
ATOM      2  C   UNL     1       1.203   2.066  -0.650  0.00  0.00    +0.001 A 
ATOM      3  C   UNL     1       2.404   1.452  -0.455  0.00  0.00    +0.014 A 
ATOM      4  C   UNL     1       2.454   0.057  -0.328  0.00  0.00    +0.044 A 
ATOM      5  C   UNL     1       1.253  -0.693  -0.406  0.00  0.00    -0.011 A 
ATOM      6  C   UNL     1       0.035  -0.029  -0.609  0.00  0.00    +0.009 A 
ATOM      7  C   UNL     1       1.331  -2.093  -0.275  0.00  0.00    +0.034 A 
ATOM      8  CA  UNL     1       2.550  -2.666  -0.081  0.00  0.00    +0.071 A 
ATOM      9  N   UNL     1       3.662  -1.946  -0.010  0.00  0.00    -0.215 NA
ATOM     10  C   UNL     1       3.667  -0.633  -0.124  0.00  0.00    +0.229 A 
ENDROOT
BRANCH  10  11
ATOM     11  O   UNL     1       4.834   0.051  -0.045  0.00  0.00    -0.436 OA
BRANCH  11  12
ATOM     12  C   UNL     1       5.988  -0.663   0.045  0.00  0.00    +0.149 A 
ATOM     13  C   UNL     1       6.536  -0.942   1.288  0.00  0.00    +0.050 A 
ATOM     14  C   UNL     1       7.708  -1.668   1.378  0.00  0.00    +0.042 A 
ATOM     15  C   UNL     1       8.336  -2.116   0.228  0.00  0.00    +0.125 A 
ATOM     16  C   UNL     1       7.791  -1.839  -1.014  0.00  0.00    +0.062 A 
ATOM     17  C   UNL     1       6.615  -1.117  -1.107  0.00  0.00    +0.086 A 
ATOM     18 CL   UNL     1       5.927  -0.775  -2.664  0.00  0.00    -0.080 Cl
ATOM     19  F   UNL     1       9.483  -2.825   0.318  0.00  0.00    -0.205 F 
ENDBRANCH  11  12
ENDBRANCH  10  11
BRANCH   8  20
ATOM     20  C   UNL     1       2.639  -4.164   0.060  0.00  0.00    +0.211 C 
BRANCH  20  21
ATOM     21  O   UNL     1       1.331  -4.731  -0.046  0.00  0.00    -0.389 OA
ATOM     22  H   UNL     1       1.313  -5.694   0.035  0.00  0.00    +0.210 HD
ENDBRANCH  20  21
ENDBRANCH   8  20
TORSDOF 4
