REMARK  Name = ZINC04312176
REMARK  6 active torsions:
REMARK  status: ('A' for Active; 'I' for Inactive)
REMARK    1  A    between atoms: C_3  and  O_31
REMARK    2  A    between atoms: C_6  and  C_7
REMARK    3  A    between atoms: C_9  and  C_22
REMARK    4  A    between atoms: N_13  and  C_14
REMARK    5  A    between atoms: C_14  and  C_15
REMARK    6  A    between atoms: C_22  and  C_24
REMARK                            x       y       z     vdW  Elec       q    Type
REMARK                         _______ _______ _______ _____ _____    ______ ____
ROOT
ATOM      1  C   UNL     1       2.162   0.719   0.033  0.00  0.00    +0.145 C 
ATOM      2  C   UNL     1       1.292   1.954   0.039  0.00  0.00    +0.076 C 
ATOM      3  C   UNL     1       0.011   1.530  -0.058  0.00  0.00    +0.249 C 
ATOM      4  C   UNL     1      -0.008   0.054  -0.128  0.00  0.00    +0.288 C 
ATOM      5  O   UNL     1      -1.010  -0.627  -0.219  0.00  0.00    -0.266 OA
ATOM      6  N   UNL     1       1.248  -0.424  -0.075  0.00  0.00    -0.281 N 
ATOM      7  O   UNL     1      -1.079   2.331  -0.091  0.00  0.00    -0.282 OA
ENDROOT
BRANCH   1  13
ATOM      8  C   UNL     1       2.307   0.328   2.501  0.00  0.00    +0.009 A 
ATOM      9  C   UNL     1       3.027   0.244   3.676  0.00  0.00    +0.046 A 
ATOM     10  C   UNL     1       4.395   0.477   3.669  0.00  0.00    +0.117 A 
ATOM     11  C   UNL     1       5.036   0.789   2.479  0.00  0.00    +0.046 A 
ATOM     12  C   UNL     1       4.312   0.866   1.305  0.00  0.00    +0.009 A 
ATOM     13  C   UNL     1       2.950   0.633   1.315  0.00  0.00    -0.022 A 
BRANCH  10  14
ATOM     14  O   UNL     1       5.105   0.400   4.825  0.00  0.00    -0.507 OA
ATOM     15  H   UNL     1       6.189   0.585   4.818  0.00  0.00    +0.292 HD
ENDBRANCH  10  14
ENDBRANCH   1  13
BRANCH   2  16
ATOM     16  C   UNL     1       1.749   3.344   0.130  0.00  0.00    +0.195 C 
ATOM     17  O   UNL     1       1.472   4.012   1.109  0.00  0.00    -0.287 OA
BRANCH  16  18
ATOM     18  C   UNL     1       2.545   3.934  -0.966  0.00  0.00    +0.022 A 
ATOM     19  C   UNL     1       2.769   3.210  -2.139  0.00  0.00    +0.013 A 
ATOM     20  C   UNL     1       3.507   3.768  -3.161  0.00  0.00    +0.021 A 
ATOM     21  C   UNL     1       4.037   5.040  -3.021  0.00  0.00    +0.041 A 
ATOM     22  C   UNL     1       3.824   5.762  -1.858  0.00  0.00    +0.021 A 
ATOM     23  C   UNL     1       3.082   5.217  -0.831  0.00  0.00    +0.013 A 
ATOM     24 CL   UNL     1       4.973   5.733  -4.309  0.00  0.00    -0.084 Cl
ENDBRANCH  16  18
ENDBRANCH   2  16
BRANCH   6  25
ATOM     25  C   UNL     1       1.635  -1.837  -0.118  0.00  0.00    +0.140 C 
BRANCH  25  26
ATOM     26  C   UNL     1       1.856  -2.261  -1.572  0.00  0.00    +0.136 C 
ATOM     27  C   UNL     1       2.257  -3.748  -1.629  0.00  0.00    +0.035 C 
ATOM     28  C   UNL     1       1.168  -4.400  -2.515  0.00  0.00    +0.031 C 
ATOM     29  C   UNL     1       0.607  -3.181  -3.291  0.00  0.00    +0.160 C 
ATOM     30  O   UNL     1       0.634  -2.115  -2.314  0.00  0.00    -0.375 OA
ENDBRANCH  25  26
ENDBRANCH   6  25
TORSDOF 6
