REMARK  Name = ZINC37020243
REMARK  4 active torsions:
REMARK  status: ('A' for Active; 'I' for Inactive)
REMARK    1  A    between atoms: C_5  and  O_16
REMARK    2  A    between atoms: C_6  and  N_7
REMARK    3  A    between atoms: C_8  and  C_10
REMARK    4  A    between atoms: O_16  and  C_17
REMARK                            x       y       z     vdW  Elec       q    Type
REMARK                         _______ _______ _______ _____ _____    ______ ____
ROOT
ATOM      1  C   UNL     1       0.054   1.247  -0.608  0.00  0.00    +0.047 A 
ATOM      2  C   UNL     1       1.241   1.956  -0.626  0.00  0.00    +0.044 A 
ATOM      3  C   UNL     1       2.379   1.421  -0.048  0.00  0.00    +0.039 A 
ATOM      4  C   UNL     1       2.333   0.174   0.550  0.00  0.00    +0.063 A 
ATOM      5  C   UNL     1       1.147  -0.542   0.572  0.00  0.00    +0.162 A 
ATOM      6  C   UNL     1       0.001  -0.003  -0.009  0.00  0.00    +0.078 A 
ATOM      7 BR   UNL     1       3.891  -0.553   1.338  0.00  0.00    -0.046 Br
ATOM      8 CL   UNL     1       1.305   3.521  -1.375  0.00  0.00    -0.083 Cl
ENDROOT
BRANCH   6   9
ATOM      9  N   UNL     1      -1.201  -0.723   0.010  0.00  0.00    -0.284 N 
ATOM     10  C   UNL     1      -2.374  -0.071   0.127  0.00  0.00    +0.204 C 
ATOM     11  O   UNL     1      -2.397   1.142   0.134  0.00  0.00    -0.277 OA
ATOM     12  H   UNL     1      -1.188  -1.690  -0.060  0.00  0.00    +0.155 HD
BRANCH  10  13
ATOM     13  C   UNL     1      -3.660  -0.849   0.249  0.00  0.00    +0.027 C 
ATOM     14  C   UNL     1      -3.805  -1.757  -0.996  0.00  0.00    +0.060 C 
ATOM     15  S   UNL     1      -5.628  -1.634  -1.274  0.00  0.00    -0.181 S 
ATOM     16  C   UNL     1      -5.830   0.068  -0.584  0.00  0.00    -0.011 C 
ATOM     17  N   UNL     1      -4.755   0.095   0.433  0.00  0.00    +0.393 N 
ATOM     18  H   UNL     1      -5.176  -0.086   1.333  0.00  0.00    -0.084 HD
ATOM     19  H   UNL     1      -4.367   1.026   0.453  0.00  0.00    -0.084 HD
ENDBRANCH  10  13
ENDBRANCH   6   9
BRANCH   5  20
ATOM     20  O   UNL     1       1.101  -1.768   1.159  0.00  0.00    -0.431 OA
BRANCH  20  21
ATOM     21  C   UNL     1       0.772  -1.810   2.549  0.00  0.00    +0.541 C 
ATOM     22  F   UNL     1       1.720  -1.080   3.275  0.00  0.00    -0.166 F 
ATOM     23  F   UNL     1      -0.496  -1.251   2.745  0.00  0.00    -0.166 F 
ENDBRANCH  20  21
ENDBRANCH   5  20
TORSDOF 4
