REMARK  Name = ZINC04555763
REMARK  4 active torsions:
REMARK  status: ('A' for Active; 'I' for Inactive)
REMARK    1  A    between atoms: C_6  and  C_7
REMARK    2  A    between atoms: C_14  and  N_26
REMARK    3  A    between atoms: C_15  and  C_24
REMARK    4  A    between atoms: C_16  and  C_18
REMARK                            x       y       z     vdW  Elec       q    Type
REMARK                         _______ _______ _______ _____ _____    ______ ____
ROOT
ATOM      1  C   UNL     1      -1.272  -0.765   0.011  0.00  0.00    +0.100 A 
ATOM      2  C   UNL     1      -2.448  -0.392   0.668  0.00  0.00    +0.054 A 
ATOM      3  C   UNL     1      -3.388  -1.353   0.431  0.00  0.00    +0.223 A 
ATOM      4  N   UNL     1      -2.821  -2.298  -0.347  0.00  0.00    -0.246 N 
ATOM      5  H   UNL     1      -3.253  -3.103  -0.674  0.00  0.00    +0.192 HD
ATOM      6  N   UNL     1      -1.497  -1.910  -0.606  0.00  0.00    -0.171 NA
ATOM      7  O   UNL     1      -4.647  -1.286   0.931  0.00  0.00    -0.423 OA
ATOM      8  C   UNL     1      -5.051  -0.108   1.450  0.00  0.00    +0.200 C 
ATOM      9  C   UNL     1      -4.213   0.913   1.739  0.00  0.00    +0.098 C 
ATOM     10  C   UNL     1      -2.725   0.828   1.509  0.00  0.00    +0.102 C 
ENDROOT
BRANCH   1  16
ATOM     11  C   UNL     1      -0.017   1.389   0.010  0.00  0.00    +0.014 A 
ATOM     12  C   UNL     1       1.169   2.096   0.002  0.00  0.00    +0.050 A 
ATOM     13  C   UNL     1       2.381   1.423  -0.013  0.00  0.00    +0.166 A 
ATOM     14  C   UNL     1       2.405   0.029  -0.021  0.00  0.00    +0.167 A 
ATOM     15  C   UNL     1       1.220  -0.682  -0.014  0.00  0.00    +0.059 A 
ATOM     16  C   UNL     1       0.002  -0.004   0.002  0.00  0.00    +0.006 A 
ATOM     17  O   UNL     1       3.707  -0.384  -0.036  0.00  0.00    -0.453 OA
ATOM     18  C   UNL     1       4.470   0.765  -0.450  0.00  0.00    +0.466 C 
ATOM     19  O   UNL     1       3.667   1.881  -0.023  0.00  0.00    -0.453 OA
ENDBRANCH   1  16
BRANCH  10  20
ATOM     20  C   UNL     1      -2.013   0.706   2.832  0.00  0.00    -0.032 A 
ATOM     21  C   UNL     1      -2.283  -0.350   3.689  0.00  0.00    +0.024 A 
ATOM     22  C   UNL     1      -1.610  -0.428   4.894  0.00  0.00    +0.111 A 
ATOM     23  N   UNL     1      -0.721   0.485   5.230  0.00  0.00    -0.263 NA
ATOM     24  C   UNL     1      -0.438   1.502   4.440  0.00  0.00    +0.111 A 
ATOM     25  C   UNL     1      -1.067   1.643   3.217  0.00  0.00    +0.024 A 
ENDBRANCH  10  20
BRANCH   8  26
ATOM     26  N   UNL     1      -6.390   0.064   1.698  0.00  0.00    -0.328 N 
ATOM     27  H   UNL     1      -7.015  -0.650   1.500  0.00  0.00    +0.145 HD
ATOM     28  H   UNL     1      -6.710   0.900   2.071  0.00  0.00    +0.145 HD
ENDBRANCH   8  26
BRANCH   9  29
ATOM     29  C   UNL     1      -4.759   2.120   2.283  0.00  0.00    +0.101 C 
ATOM     30  N   UNL     1      -5.192   3.077   2.715  0.00  0.00    -0.191 NA
ENDBRANCH   9  29
TORSDOF 4
