REMARK  Name = ZINC50448340
REMARK  11 active torsions:
REMARK  status: ('A' for Active; 'I' for Inactive)
REMARK    1  A    between atoms: C_1  and  C_2
REMARK    2  A    between atoms: C_5  and  C_11
REMARK    3  A    between atoms: C_6  and  C_10
REMARK    4  A    between atoms: C_7  and  O_8
REMARK    5  A    between atoms: O_8  and  C_9
REMARK    6  A    between atoms: C_11  and  N_12
REMARK    7  A    between atoms: C_13  and  C_15
REMARK    8  A    between atoms: C_21  and  C_23
REMARK    9  A    between atoms: C_23  and  C_24
REMARK   10  A    between atoms: C_23  and  C_25
REMARK   11  A    between atoms: C_23  and  C_26
REMARK                            x       y       z     vdW  Elec       q    Type
REMARK                         _______ _______ _______ _____ _____    ______ ____
ROOT
ATOM      1  N   UNL     1       1.706  -4.691  -0.002  0.00  0.00    -0.308 N 
ATOM      2  C   UNL     1       1.934  -6.015  -0.117  0.00  0.00    +0.234 C 
ATOM      3  O   UNL     1       1.008  -6.796  -0.066  0.00  0.00    -0.274 OA
ATOM      4  H   UNL     1       2.447  -4.066  -0.043  0.00  0.00    +0.149 HD
ENDROOT
BRANCH   2   5
ATOM      5  C   UNL     1       3.340  -6.523  -0.310  0.00  0.00    +0.162 C 
ATOM      6  C   UNL     1       4.208  -6.140   0.908  0.00  0.00    +0.033 C 
ATOM      7  C   UNL     1       4.179  -7.428   1.773  0.00  0.00    +0.021 C 
ATOM      8  C   UNL     1       4.172  -8.533   0.688  0.00  0.00    +0.108 C 
ATOM      9  N   UNL     1       3.333  -7.990  -0.401  0.00  0.00    -0.289 N 
ATOM     10  C   UNL     1       2.669  -8.717  -1.322  0.00  0.00    +0.222 C 
ATOM     11  O   UNL     1       1.948  -8.165  -2.125  0.00  0.00    -0.275 OA
BRANCH  10  12
ATOM     12  C   UNL     1       2.825 -10.216  -1.354  0.00  0.00    +0.039 C 
ATOM     13  C   UNL     1       2.174 -10.769  -2.624  0.00  0.00    +0.020 C 
ATOM     14  C   UNL     1       4.312 -10.575  -1.345  0.00  0.00    +0.020 C 
ATOM     15  C   UNL     1       2.146 -10.825  -0.126  0.00  0.00    +0.020 C 
ENDBRANCH  10  12
ENDBRANCH   2   5
BRANCH   1  16
ATOM     16  C   UNL     1       0.340  -4.197   0.185  0.00  0.00    +0.160 C 
BRANCH  16  21
ATOM     17  C   UNL     1       0.398   1.534   0.452  0.00  0.00    +0.049 C 
ATOM     18  C   UNL     1       0.387   0.027   0.421  0.00  0.00    +0.010 A 
ATOM     19  C   UNL     1       0.249  -0.647  -0.775  0.00  0.00    +0.118 A 
ATOM     20  N   UNL     1       0.239  -1.966  -0.810  0.00  0.00    -0.258 NA
ATOM     21  C   UNL     1       0.359  -2.694   0.285  0.00  0.00    +0.065 A 
ATOM     22  C   UNL     1       0.500  -2.095   1.519  0.00  0.00    +0.014 A 
ATOM     23  C   UNL     1       0.521  -0.704   1.599  0.00  0.00    +0.129 A 
ATOM     24  C   UNL     1       0.636  -2.933   2.764  0.00  0.00    +0.049 C 
BRANCH  23  25
ATOM     25  O   UNL     1       0.664  -0.078   2.795  0.00  0.00    -0.494 OA
ATOM     26  C   UNL     1      -0.532   0.228   3.514  0.00  0.00    +0.277 C 
ENDBRANCH  23  25
ENDBRANCH  16  21
ENDBRANCH   1  16
TORSDOF 5
