REMARK  Name = ZINC32972005
REMARK  14 active torsions:
REMARK  status: ('A' for Active; 'I' for Inactive)
REMARK    1  A    between atoms: C_1  and  C_2
REMARK    2  A    between atoms: C_2  and  C_3
REMARK    3  A    between atoms: C_2  and  C_4
REMARK    4  A    between atoms: C_4  and  N_5
REMARK    5  A    between atoms: C_6  and  N_33
REMARK    6  A    between atoms: C_7  and  N_14
REMARK    7  A    between atoms: N_14  and  C_15
REMARK    8  A    between atoms: C_15  and  C_16
REMARK    9  A    between atoms: C_16  and  C_17
REMARK   10  A    between atoms: C_16  and  C_18
REMARK   11  A    between atoms: C_19  and  C_21
REMARK   12  A    between atoms: C_21  and  N_22
REMARK   13  A    between atoms: N_22  and  C_23
REMARK   14  A    between atoms: C_24  and  C_26
REMARK                            x       y       z     vdW  Elec       q    Type
REMARK                         _______ _______ _______ _____ _____    ______ ____
ROOT
ATOM      1  N   UNL     1      -3.130   2.252   0.635  0.00  0.00    -0.263 N 
ATOM      2  C   UNL     1      -1.917   1.833   0.216  0.00  0.00    +0.237 C 
ATOM      3  O   UNL     1      -1.333   0.961   0.826  0.00  0.00    -0.274 OA
ENDROOT
BRANCH   1   6
ATOM      4  N   UNL     1      -5.369   0.592   3.029  0.00  0.00    -0.280 N 
ATOM      5  C   UNL     1      -4.866   1.065   1.839  0.00  0.00    +0.127 A 
ATOM      6  C   UNL     1      -3.671   1.754   1.839  0.00  0.00    +0.140 A 
ATOM      7  C   UNL     1      -2.998   1.948   3.060  0.00  0.00    +0.277 A 
ATOM      8  O   UNL     1      -1.938   2.550   3.088  0.00  0.00    -0.266 OA
ATOM      9  N   UNL     1      -3.537   1.469   4.199  0.00  0.00    -0.273 N 
ATOM     10  H   UNL     1      -3.022   1.625   5.159  0.00  0.00    +0.173 HD
ATOM     11  C   UNL     1      -4.703   0.799   4.180  0.00  0.00    +0.331 A 
ATOM     12  O   UNL     1      -5.164   0.374   5.221  0.00  0.00    -0.246 OA
BRANCH   5  13
ATOM     13  N   UNL     1      -5.547   0.853   0.664  0.00  0.00    -0.343 N 
ATOM     14  H   UNL     1      -5.139   1.234  -0.284  0.00  0.00    +0.144 HD
ATOM     15  H   UNL     1      -6.499   0.302   0.672  0.00  0.00    +0.144 HD
ENDBRANCH   5  13
BRANCH   4  16
ATOM     16  C   UNL     1      -6.636  -0.143   3.044  0.00  0.00    +0.131 C 
BRANCH  16  18
ATOM     17  C   UNL     1      -5.575  -2.163   4.061  0.00  0.00    +0.009 C 
ATOM     18  C   UNL     1      -6.362  -1.637   2.859  0.00  0.00    +0.003 C 
ATOM     19  C   UNL     1      -7.690  -2.389   2.749  0.00  0.00    +0.009 C 
ENDBRANCH  16  18
ENDBRANCH   4  16
ENDBRANCH   1   6
BRANCH   1  20
ATOM     20  C   UNL     1      -3.884   3.224  -0.161  0.00  0.00    +0.117 C 
BRANCH  20  21
ATOM     21  C   UNL     1      -3.428   4.640   0.198  0.00  0.00    +0.001 C 
ATOM     22  C   UNL     1      -4.105   5.645  -0.737  0.00  0.00    +0.009 C 
ATOM     23  C   UNL     1      -3.815   4.949   1.645  0.00  0.00    +0.009 C 
ENDBRANCH  20  21
ENDBRANCH   1  20
BRANCH   2  24
ATOM     24  C   UNL     1      -1.289   2.447  -1.008  0.00  0.00    +0.204 C 
BRANCH  24  25
ATOM     25  N   UNL     1       0.061   1.908  -1.186  0.00  0.00    -0.292 N 
ATOM     26  C   UNL     1       0.268   0.699  -1.987  0.00  0.00    +0.133 C 
ATOM     27  C   UNL     1       1.115   2.528  -0.618  0.00  0.00    +0.248 C 
ATOM     28  O   UNL     1       0.934   3.466   0.134  0.00  0.00    -0.270 OA
BRANCH  27  29
ATOM     29  C   UNL     1       2.489   2.068  -0.910  0.00  0.00    +0.056 A 
ATOM     30  C   UNL     1       3.523   2.992  -1.102  0.00  0.00    +0.031 A 
ATOM     31  C   UNL     1       4.792   2.509  -1.372  0.00  0.00    +0.037 A 
ATOM     32  C   UNL     1       4.995   1.141  -1.444  0.00  0.00    +0.126 A 
ATOM     33  N   UNL     1       4.001   0.295  -1.259  0.00  0.00    -0.261 NA
ATOM     34  C   UNL     1       2.778   0.706  -0.994  0.00  0.00    +0.123 A 
ATOM     35 BR   UNL     1       6.233   3.705  -1.641  0.00  0.00    -0.049 Br
ENDBRANCH  27  29
ENDBRANCH  24  25
ENDBRANCH   2  24
TORSDOF 9
