REMARK  Name = ZINC39694408
REMARK  7 active torsions:
REMARK  status: ('A' for Active; 'I' for Inactive)
REMARK    1  A    between atoms: C_1  and  C_2
REMARK    2  A    between atoms: C_7  and  C_8
REMARK    3  A    between atoms: C_8  and  C_9
REMARK    4  A    between atoms: C_13  and  C_22
REMARK    5  A    between atoms: N_24  and  C_25
REMARK    6  A    between atoms: C_25  and  C_26
REMARK    7  A    between atoms: C_31  and  N_32
REMARK                            x       y       z     vdW  Elec       q    Type
REMARK                         _______ _______ _______ _____ _____    ______ ____
ROOT
ATOM      1  C   UNL     1      -2.189   0.451   3.015  0.00  0.00    +0.220 C 
ATOM      2  O   UNL     1      -3.136   0.421   2.258  0.00  0.00    -0.275 OA
ATOM      3  N   UNL     1      -2.222   1.244   4.105  0.00  0.00    -0.300 N 
ATOM      4  C   UNL     1      -1.169   1.418   5.133  0.00  0.00    +0.121 C 
ATOM      5  C   UNL     1      -1.190   2.928   5.460  0.00  0.00    +0.100 C 
ATOM      6  C   UNL     1      -2.603   3.394   5.074  0.00  0.00    -0.004 C 
ATOM      7  C   UNL     1      -3.317   2.143   4.542  0.00  0.00    +0.115 C 
ATOM      8  C   UNL     1      -2.530   4.457   3.982  0.00  0.00    -0.010 C 
ATOM      9  C   UNL     1      -3.943   4.946   3.655  0.00  0.00    -0.082 C 
ATOM     10  N   UNL     1      -4.563   5.500   4.865  0.00  0.00    +0.379 N 
ATOM     11  C   UNL     1      -4.715   4.449   5.878  0.00  0.00    -0.082 C 
ATOM     12  C   UNL     1      -3.333   3.939   6.298  0.00  0.00    -0.010 C 
ATOM     13  H   UNL     1      -3.979   6.237   5.232  0.00  0.00    -0.086 HD
ATOM     14  H   UNL     1      -5.470   5.877   4.634  0.00  0.00    -0.086 HD
ENDROOT
BRANCH   5  15
ATOM     15  C   UNL     1      -0.945   3.149   6.931  0.00  0.00    +0.218 C 
ATOM     16  O   UNL     1      -1.498   2.447   7.750  0.00  0.00    -0.275 OA
ATOM     17  N   UNL     1      -0.111   4.128   7.335  0.00  0.00    -0.311 N 
ATOM     18  H   UNL     1       0.332   4.690   6.680  0.00  0.00    +0.149 HD
BRANCH  17  19
ATOM     19  C   UNL     1       0.127   4.343   8.765  0.00  0.00    +0.141 C 
BRANCH  19  20
ATOM     20  C   UNL     1       1.090   5.488   8.947  0.00  0.00    -0.009 A 
ATOM     21  C   UNL     1       2.425   5.235   9.194  0.00  0.00    +0.007 A 
ATOM     22  C   UNL     1       3.310   6.284   9.362  0.00  0.00    +0.000 A 
ATOM     23  C   UNL     1       2.861   7.590   9.282  0.00  0.00    +0.002 A 
ATOM     24  C   UNL     1       1.528   7.850   9.035  0.00  0.00    +0.023 A 
ATOM     25  C   UNL     1       0.637   6.798   8.861  0.00  0.00    +0.035 A 
BRANCH  25  26
ATOM     26  N   UNL     1      -0.711   7.057   8.605  0.00  0.00    -0.325 N 
ATOM     27  C   UNL     1      -1.676   7.204   9.706  0.00  0.00    +0.133 C 
ATOM     28  C   UNL     1      -2.464   8.501   9.489  0.00  0.00    +0.178 C 
ATOM     29  O   UNL     1      -3.005   8.507   8.165  0.00  0.00    -0.377 OA
ATOM     30  C   UNL     1      -2.019   8.489   7.130  0.00  0.00    +0.178 C 
ATOM     31  C   UNL     1      -1.207   7.197   7.227  0.00  0.00    +0.133 C 
ENDBRANCH  25  26
ENDBRANCH  19  20
ENDBRANCH  17  19
ENDBRANCH   5  15
BRANCH   1  32
ATOM     32  C   UNL     1      -0.976  -0.399   2.738  0.00  0.00    +0.131 C 
BRANCH  32  39
ATOM     33  C   UNL     1      -0.381   0.798   0.177  0.00  0.00    +0.044 C 
ATOM     34  C   UNL     1      -0.908  -0.612   0.245  0.00  0.00    -0.047 A 
ATOM     35  C   UNL     1      -1.101  -1.335  -0.918  0.00  0.00    +0.003 A 
ATOM     36  C   UNL     1      -1.584  -2.628  -0.855  0.00  0.00    +0.000 A 
ATOM     37  C   UNL     1      -1.874  -3.199   0.370  0.00  0.00    +0.000 A 
ATOM     38  C   UNL     1      -1.680  -2.477   1.532  0.00  0.00    +0.004 A 
ATOM     39  C   UNL     1      -1.192  -1.185   1.470  0.00  0.00    -0.036 A 
ENDBRANCH  32  39
ENDBRANCH   1  32
TORSDOF 6
