REMARK  Name = ZINC35745398
REMARK  15 active torsions:
REMARK  status: ('A' for Active; 'I' for Inactive)
REMARK    1  A    between atoms: C_1  and  C_2
REMARK    2  A    between atoms: C_5  and  C_7
REMARK    3  A    between atoms: C_7  and  N_8
REMARK    4  A    between atoms: N_8  and  C_9
REMARK    5  A    between atoms: N_8  and  C_33
REMARK    6  A    between atoms: C_9  and  C_10
REMARK    7  A    between atoms: C_13  and  C_15
REMARK    8  A    between atoms: C_15  and  C_16
REMARK    9  A    between atoms: C_15  and  C_24
REMARK   10  A    between atoms: C_15  and  O_32
REMARK   11  A    between atoms: C_19  and  O_22
REMARK   12  A    between atoms: O_22  and  C_23
REMARK   13  A    between atoms: C_27  and  O_30
REMARK   14  A    between atoms: O_30  and  C_31
REMARK   15  A    between atoms: C_33  and  C_34
REMARK                            x       y       z     vdW  Elec       q    Type
REMARK                         _______ _______ _______ _____ _____    ______ ____
ROOT
ATOM      1  C   UNL     1       2.809  -5.655  -3.609  0.00  0.00    +0.089 A 
ATOM      2  C   UNL     1       3.351  -5.513  -4.832  0.00  0.00    +0.043 A 
ATOM      3  C   UNL     1       2.467  -6.132  -5.746  0.00  0.00    +0.048 A 
ATOM      4  C   UNL     1       1.438  -6.615  -5.027  0.00  0.00    +0.146 A 
ATOM      5  O   UNL     1       1.653  -6.328  -3.733  0.00  0.00    -0.463 OA
ENDROOT
BRANCH   1   6
ATOM      6  C   UNL     1       3.401  -5.150  -2.319  0.00  0.00    -0.003 C 
BRANCH   6   7
ATOM      7  N   UNL     1       2.914  -3.789  -2.056  0.00  0.00    +0.389 N 
ATOM      8  H   UNL     1       3.117  -3.200  -2.850  0.00  0.00    -0.081 HD
BRANCH   7   9
ATOM      9  C   UNL     1       3.583  -3.252  -0.864  0.00  0.00    -0.035 C 
BRANCH   9  14
ATOM     10  C   UNL     1       9.206  -3.491  -1.506  0.00  0.00    +0.051 C 
ATOM     11  C   UNL     1       7.730  -3.193  -1.452  0.00  0.00    -0.013 A 
ATOM     12  C   UNL     1       7.063  -2.100  -1.898  0.00  0.00    +0.011 A 
ATOM     13  C   UNL     1       5.691  -2.042  -1.742  0.00  0.00    +0.009 A 
ATOM     14  C   UNL     1       5.053  -3.079  -1.147  0.00  0.00    -0.026 A 
ATOM     15  S   UNL     1       6.404  -4.190  -0.792  0.00  0.00    -0.100 S 
ENDBRANCH   9  14
ENDBRANCH   7   9
BRANCH   7  16
ATOM     16  C   UNL     1       1.463  -3.824  -1.830  0.00  0.00    -0.046 C 
BRANCH  16  17
ATOM     17  C   UNL     1       0.930  -2.394  -1.718  0.00  0.00    +0.102 C 
ATOM     18  C   UNL     1      -0.589  -2.421  -1.443  0.00  0.00    +0.032 C 
ATOM     19  C   UNL     1      -1.102  -1.240  -2.311  0.00  0.00    +0.030 C 
ATOM     20  C   UNL     1      -0.131  -1.317  -3.516  0.00  0.00    +0.160 C 
ATOM     21  O   UNL     1       1.136  -1.700  -2.954  0.00  0.00    -0.378 OA
ENDBRANCH  16  17
ENDBRANCH   7  16
ENDBRANCH   6   7
ENDBRANCH   1   6
BRANCH   4  22
ATOM     22  C   UNL     1       0.248  -7.357  -5.579  0.00  0.00    +0.174 C 
BRANCH  22  23
ATOM     23  C   UNL     1      -0.262  -8.327  -4.545  0.00  0.00    -0.004 A 
ATOM     24  C   UNL     1      -0.230  -9.686  -4.799  0.00  0.00    +0.011 A 
ATOM     25  C   UNL     1      -0.698 -10.578  -3.853  0.00  0.00    +0.046 A 
ATOM     26  C   UNL     1      -1.200 -10.109  -2.648  0.00  0.00    +0.120 A 
ATOM     27  C   UNL     1      -1.232  -8.745  -2.396  0.00  0.00    +0.046 A 
ATOM     28  C   UNL     1      -0.757  -7.857  -3.343  0.00  0.00    +0.011 A 
BRANCH  26  29
ATOM     29  O   UNL     1      -1.662 -10.984  -1.716  0.00  0.00    -0.495 OA
ATOM     30  C   UNL     1      -2.165 -10.430  -0.499  0.00  0.00    +0.277 C 
ENDBRANCH  26  29
ENDBRANCH  22  23
BRANCH  22  31
ATOM     31  C   UNL     1      -0.840  -6.374  -5.926  0.00  0.00    -0.004 A 
ATOM     32  C   UNL     1      -1.109  -5.314  -5.079  0.00  0.00    +0.011 A 
ATOM     33  C   UNL     1      -2.106  -4.412  -5.395  0.00  0.00    +0.046 A 
ATOM     34  C   UNL     1      -2.838  -4.569  -6.563  0.00  0.00    +0.120 A 
ATOM     35  C   UNL     1      -2.566  -5.633  -7.412  0.00  0.00    +0.046 A 
ATOM     36  C   UNL     1      -1.564  -6.529  -7.094  0.00  0.00    +0.011 A 
BRANCH  34  37
ATOM     37  O   UNL     1      -3.820  -3.683  -6.876  0.00  0.00    -0.495 OA
ATOM     38  C   UNL     1      -4.532  -3.908  -8.094  0.00  0.00    +0.277 C 
ENDBRANCH  34  37
ENDBRANCH  22  31
BRANCH  22  39
ATOM     39  O   UNL     1       0.636  -8.072  -6.754  0.00  0.00    -0.372 OA
ATOM     40  H   UNL     1       0.976  -7.509  -7.463  0.00  0.00    +0.212 HD
ENDBRANCH  22  39
ENDBRANCH   4  22
TORSDOF 12
