REMARK  Name = ZINC09467654
REMARK  6 active torsions:
REMARK  status: ('A' for Active; 'I' for Inactive)
REMARK    1  A    between atoms: C_4  and  C_7
REMARK    2  A    between atoms: C_16  and  C_18
REMARK    3  A    between atoms: C_18  and  O_19
REMARK    4  A    between atoms: O_19  and  C_20
REMARK    5  A    between atoms: C_20  and  C_22
REMARK    6  A    between atoms: C_22  and  N_23
REMARK                            x       y       z     vdW  Elec       q    Type
REMARK                         _______ _______ _______ _____ _____    ______ ____
ROOT
ATOM      1  C   UNL     1       2.266   0.998  -0.014  0.00  0.00    +0.004 A 
ATOM      2  C   UNL     1       1.766  -0.261  -0.016  0.00  0.00    +0.056 A 
ATOM      3  S   UNL     1       0.002  -0.004   0.002  0.00  0.00    -0.076 S 
ATOM      4  C   UNL     1      -0.022   1.770   0.012  0.00  0.00    +0.116 A 
ATOM      5  C   UNL     1       1.338   2.122   0.001  0.00  0.00    +0.080 A 
ATOM      6  C   UNL     1       1.615   3.526   0.006  0.00  0.00    +0.260 A 
ATOM      7  O   UNL     1       2.765   3.930  -0.003  0.00  0.00    -0.267 OA
ATOM      8  N   UNL     1       0.586   4.394   0.021  0.00  0.00    -0.308 N 
ATOM      9  H   UNL     1       0.768   5.347   0.025  0.00  0.00    +0.170 HD
ATOM     10  C   UNL     1      -0.701   3.962   0.031  0.00  0.00    +0.149 A 
ATOM     11  N   UNL     1      -0.986   2.687   0.031  0.00  0.00    -0.223 NA
ENDROOT
BRANCH   1  15
ATOM     12  C   UNL     1       6.466   1.659  -0.052  0.00  0.00    +0.000 A 
ATOM     13  C   UNL     1       5.914   0.785   0.868  0.00  0.00    +0.001 A 
ATOM     14  C   UNL     1       4.551   0.567   0.885  0.00  0.00    +0.008 A 
ATOM     15  C   UNL     1       3.731   1.228  -0.027  0.00  0.00    -0.017 A 
ATOM     16  C   UNL     1       4.293   2.103  -0.956  0.00  0.00    +0.008 A 
ATOM     17  C   UNL     1       5.656   2.318  -0.960  0.00  0.00    +0.001 A 
ENDBRANCH   1  15
BRANCH  10  18
ATOM     18  C   UNL     1      -1.821   4.971   0.049  0.00  0.00    +0.306 C 
BRANCH  18  19
ATOM     19  O   UNL     1      -3.096   4.278   0.058  0.00  0.00    -0.456 OA
BRANCH  19  20
ATOM     20  C   UNL     1      -4.203   5.038   0.073  0.00  0.00    +0.326 C 
ATOM     21  O   UNL     1      -4.108   6.242   0.080  0.00  0.00    -0.249 OA
BRANCH  20  22
ATOM     22  C   UNL     1      -5.563   4.389   0.083  0.00  0.00    +0.238 C 
BRANCH  22  23
ATOM     23  N   UNL     1      -6.598   5.425   0.100  0.00  0.00    -0.213 N 
ATOM     24  C   UNL     1      -7.146   5.969  -1.008  0.00  0.00    +0.247 C 
ATOM     25  O   UNL     1      -6.887   5.705  -2.163  0.00  0.00    -0.273 OA
ATOM     26  C   UNL     1      -8.149   6.974  -0.503  0.00  0.00    +0.113 C 
ATOM     27  C   UNL     1      -9.564   6.633  -0.988  0.00  0.00    +0.035 C 
ATOM     28  C   UNL     1     -10.225   8.017  -1.219  0.00  0.00    +0.003 C 
ATOM     29  C   UNL     1      -9.060   8.865  -1.788  0.00  0.00    +0.003 C 
ATOM     30  C   UNL     1      -7.821   8.384  -1.000  0.00  0.00    +0.035 C 
ATOM     31  N   UNL     1      -8.055   6.886   0.955  0.00  0.00    -0.285 N 
ATOM     32  C   UNL     1      -7.123   5.947   1.216  0.00  0.00    +0.310 C 
ATOM     33  O   UNL     1      -6.795   5.613   2.338  0.00  0.00    -0.252 OA
ATOM     34  H   UNL     1      -8.563   7.397   1.604  0.00  0.00    +0.151 HD
ENDBRANCH  22  23
ENDBRANCH  20  22
ENDBRANCH  19  20
ENDBRANCH  18  19
ENDBRANCH  10  18
TORSDOF 6
