REMARK  Name = ZINC14562651
REMARK  8 active torsions:
REMARK  status: ('A' for Active; 'I' for Inactive)
REMARK    1  A    between atoms: C_1  and  C_2
REMARK    2  A    between atoms: C_7  and  C_8
REMARK    3  A    between atoms: C_8  and  C_9
REMARK    4  A    between atoms: N_11  and  C_12
REMARK    5  A    between atoms: C_12  and  N_14
REMARK    6  A    between atoms: N_14  and  C_15
REMARK    7  A    between atoms: C_17  and  N_22
REMARK    8  A    between atoms: C_20  and  O_21
REMARK                            x       y       z     vdW  Elec       q    Type
REMARK                         _______ _______ _______ _____ _____    ______ ____
ROOT
ATOM      1  C   UNL     1      -2.854   1.581   4.288  0.00  0.00    +0.141 C 
ATOM      2  S   UNL     1      -4.100   1.405   3.127  0.00  0.00    -0.018 S 
ENDROOT
BRANCH   1   5
ATOM      3  C   UNL     1      -1.292   0.827   2.726  0.00  0.00    +0.223 C 
ATOM      4  O   UNL     1      -2.174   0.703   1.903  0.00  0.00    -0.275 OA
ATOM      5  N   UNL     1      -1.583   1.273   3.964  0.00  0.00    -0.267 N 
ATOM      6  H   UNL     1      -0.877   1.373   4.622  0.00  0.00    +0.157 HD
BRANCH   3   7
ATOM      7  C   UNL     1       0.130   0.483   2.364  0.00  0.00    +0.131 C 
BRANCH   7  14
ATOM      8  C   UNL     1       0.341   2.407   0.218  0.00  0.00    +0.044 C 
ATOM      9  C   UNL     1       0.286   0.933  -0.093  0.00  0.00    -0.047 A 
ATOM     10  C   UNL     1       0.341   0.501  -1.406  0.00  0.00    +0.003 A 
ATOM     11  C   UNL     1       0.290  -0.850  -1.691  0.00  0.00    +0.000 A 
ATOM     12  C   UNL     1       0.184  -1.770  -0.665  0.00  0.00    +0.000 A 
ATOM     13  C   UNL     1       0.129  -1.338   0.647  0.00  0.00    +0.004 A 
ATOM     14  C   UNL     1       0.185   0.013   0.933  0.00  0.00    -0.036 A 
ENDBRANCH   7  14
ENDBRANCH   3   7
ENDBRANCH   1   5
BRANCH   1  15
ATOM     15  N   UNL     1      -3.145   2.027   5.526  0.00  0.00    -0.294 N 
ATOM     16  H   UNL     1      -2.451   2.067   6.202  0.00  0.00    +0.154 HD
BRANCH  15  17
ATOM     17  C   UNL     1      -4.450   2.432   5.836  0.00  0.00    +0.077 A 
ATOM     18  C   UNL     1      -5.529   1.636   5.480  0.00  0.00    +0.059 A 
ATOM     19  C   UNL     1      -6.815   2.037   5.787  0.00  0.00    +0.128 A 
ATOM     20  C   UNL     1      -7.030   3.232   6.448  0.00  0.00    +0.036 A 
ATOM     21  C   UNL     1      -5.960   4.032   6.806  0.00  0.00    +0.049 A 
ATOM     22  C   UNL     1      -4.668   3.633   6.507  0.00  0.00    +0.138 A 
BRANCH  19  23
ATOM     23  N   UNL     1      -7.965   1.186   5.406  0.00  0.00    +0.056 N 
ATOM     24  O   UNL     1      -7.778   0.141   4.828  0.00  0.00    -0.126 OA
ATOM     25  O   UNL     1      -9.091   1.536   5.674  0.00  0.00    -0.126 OA
ENDBRANCH  19  23
BRANCH  22  26
ATOM     26  O   UNL     1      -3.614   4.415   6.864  0.00  0.00    -0.505 OA
ATOM     27  H   UNL     1      -3.361   5.065   6.193  0.00  0.00    +0.292 HD
ENDBRANCH  22  26
ENDBRANCH  15  17
ENDBRANCH   1  15
TORSDOF 7
