REMARK  Name = ZINC63038412
REMARK  7 active torsions:
REMARK  status: ('A' for Active; 'I' for Inactive)
REMARK    1  A    between atoms: C_1  and  C_2
REMARK    2  A    between atoms: C_2  and  C_3
REMARK    3  A    between atoms: C_3  and  C_5
REMARK    4  A    between atoms: C_3  and  C_20
REMARK    5  A    between atoms: C_10  and  N_11
REMARK    6  A    between atoms: C_20  and  C_22
REMARK    7  A    between atoms: C_20  and  O_23
REMARK                            x       y       z     vdW  Elec       q    Type
REMARK                         _______ _______ _______ _____ _____    ______ ____
ROOT
ATOM      1  C   UNL     1      -2.668  -0.651  -1.371  0.00  0.00    -0.010 A 
ATOM      2  C   UNL     1      -2.122  -1.002  -2.585  0.00  0.00    +0.034 A 
ATOM      3  C   UNL     1      -2.220  -0.125  -3.667  0.00  0.00    +0.078 A 
ATOM      4  C   UNL     1      -2.881   1.112  -3.498  0.00  0.00    +0.067 A 
ATOM      5  C   UNL     1      -3.428   1.448  -2.261  0.00  0.00    +0.048 A 
ATOM      6  C   UNL     1      -3.322   0.563  -1.210  0.00  0.00    +0.131 A 
ATOM      7  C   UNL     1      -2.967   2.013  -4.656  0.00  0.00    +0.259 A 
ATOM      8  O   UNL     1      -3.522   3.094  -4.578  0.00  0.00    -0.267 OA
ATOM      9  N   UNL     1      -2.404   1.595  -5.814  0.00  0.00    -0.313 N 
ATOM     10  H   UNL     1      -2.441   2.163  -6.599  0.00  0.00    +0.170 HD
ATOM     11  C   UNL     1      -1.787   0.387  -5.886  0.00  0.00    +0.199 A 
ATOM     12  N   UNL     1      -1.695  -0.429  -4.881  0.00  0.00    -0.237 NA
ENDROOT
BRANCH   6  13
ATOM     13  N   UNL     1      -3.906   0.913   0.105  0.00  0.00    +0.057 N 
ATOM     14  O   UNL     1      -4.992   1.442   0.162  0.00  0.00    -0.126 OA
ATOM     15  O   UNL     1      -3.298   0.669   1.121  0.00  0.00    -0.126 OA
ENDBRANCH   6  13
BRANCH   1  16
ATOM     16  C   UNL     1      -2.562  -1.600  -0.205  0.00  0.00    +0.049 C 
BRANCH  16  18
ATOM     17  C   UNL     1      -0.378  -0.626   0.522  0.00  0.00    +0.004 C 
ATOM     18  C   UNL     1      -1.088  -1.905   0.071  0.00  0.00    +0.007 C 
ENDBRANCH  16  18
BRANCH  16  19
ATOM     19  C   UNL     1      -3.298  -2.899  -0.536  0.00  0.00    +0.119 C 
ATOM     20  C   UNL     1      -3.297  -3.813   0.692  0.00  0.00    +0.038 C 
BRANCH  19  21
ATOM     21  O   UNL     1      -2.640  -3.557  -1.620  0.00  0.00    -0.391 OA
ATOM     22  H   UNL     1      -1.719  -3.790  -1.438  0.00  0.00    +0.210 HD
ENDBRANCH  19  21
ENDBRANCH  16  19
ENDBRANCH   1  16
TORSDOF 5
