REMARK  Name = ZINC15391725
REMARK  7 active torsions:
REMARK  status: ('A' for Active; 'I' for Inactive)
REMARK    1  A    between atoms: N_9  and  C_11
REMARK    2  A    between atoms: C_11  and  C_12
REMARK    3  A    between atoms: C_16  and  O_19
REMARK    4  A    between atoms: O_19  and  C_20
REMARK    5  A    between atoms: C_20  and  C_21
REMARK    6  A    between atoms: N_23  and  C_24
REMARK    7  A    between atoms: C_28  and  N_30
REMARK                            x       y       z     vdW  Elec       q    Type
REMARK                         _______ _______ _______ _____ _____    ______ ____
ROOT
ATOM      1  C   UNL     1       5.910  -2.195   1.131  0.00  0.00    +0.092 A 
ATOM      2  C   UNL     1       6.416  -2.950   2.126  0.00  0.00    +0.094 A 
ATOM      3  C   UNL     1       7.375  -2.382   3.001  0.00  0.00    +0.226 A 
ATOM      4  O   UNL     1       7.857  -3.035   3.914  0.00  0.00    -0.284 OA
ATOM      5  C   UNL     1       7.761  -1.030   2.786  0.00  0.00    +0.202 A 
ATOM      6  C   UNL     1       7.202  -0.346   1.764  0.00  0.00    +0.244 A 
ATOM      7  O   UNL     1       6.302  -0.927   0.958  0.00  0.00    -0.466 OA
ENDROOT
BRANCH   1   8
ATOM      8  C   UNL     1       4.889  -2.789   0.194  0.00  0.00    -0.003 C 
BRANCH   8  17
ATOM      9  C   UNL     1       0.011   1.370  -0.056  0.00  0.00    +0.000 A 
ATOM     10  C   UNL     1       1.201   2.073  -0.058  0.00  0.00    +0.000 A 
ATOM     11  C   UNL     1       2.402   1.393  -0.065  0.00  0.00    +0.002 A 
ATOM     12  C   UNL     1       2.422   0.006  -0.069  0.00  0.00    -0.061 A 
ATOM     13  C   UNL     1       1.234  -0.694  -0.064  0.00  0.00    -0.048 A 
ATOM     14  C   UNL     1       0.029  -0.010  -0.059  0.00  0.00    +0.004 A 
ATOM     15  C   UNL     1       1.211  -2.201  -0.060  0.00  0.00    +0.017 C 
ATOM     16  C   UNL     1       2.582  -2.741  -0.470  0.00  0.00    -0.073 C 
ATOM     17  N   UNL     1       3.609  -2.087   0.355  0.00  0.00    +0.387 N 
ATOM     18  C   UNL     1       3.755  -0.695  -0.081  0.00  0.00    -0.042 C 
ATOM     19  H   UNL     1       3.329  -2.110   1.324  0.00  0.00    -0.081 HD
ENDBRANCH   8  17
ENDBRANCH   1   8
BRANCH   5  20
ATOM     20  O   UNL     1       8.678  -0.434   3.597  0.00  0.00    -0.476 OA
BRANCH  20  21
ATOM     21  C   UNL     1       9.009   0.926   3.312  0.00  0.00    +0.325 C 
BRANCH  21  22
ATOM     22  C   UNL     1      10.032   1.413   4.307  0.00  0.00    +0.255 C 
ATOM     23  O   UNL     1      10.437   0.667   5.174  0.00  0.00    -0.272 OA
ATOM     24  N   UNL     1      10.496   2.675   4.233  0.00  0.00    -0.283 N 
ATOM     25  H   UNL     1      10.224   3.250   3.500  0.00  0.00    +0.155 HD
BRANCH  24  26
ATOM     26  C   UNL     1      11.372   3.158   5.212  0.00  0.00    +0.036 A 
ATOM     27  C   UNL     1      11.301   4.485   5.616  0.00  0.00    +0.023 A 
ATOM     28  C   UNL     1      12.167   4.957   6.583  0.00  0.00    +0.004 A 
ATOM     29  C   UNL     1      13.103   4.111   7.148  0.00  0.00    +0.033 A 
ATOM     30  C   UNL     1      13.176   2.790   6.748  0.00  0.00    +0.128 A 
ATOM     31  C   UNL     1      12.309   2.309   5.786  0.00  0.00    +0.056 A 
BRANCH  30  32
ATOM     32  N   UNL     1      14.180   1.888   7.355  0.00  0.00    +0.056 N 
ATOM     33  O   UNL     1      14.936   2.306   8.201  0.00  0.00    -0.126 OA
ATOM     34  O   UNL     1      14.245   0.732   7.005  0.00  0.00    -0.126 OA
ENDBRANCH  30  32
ENDBRANCH  24  26
ENDBRANCH  21  22
ENDBRANCH  20  21
ENDBRANCH   5  20
TORSDOF 7
