REMARK  Name = ZINC35453352
REMARK  5 active torsions:
REMARK  status: ('A' for Active; 'I' for Inactive)
REMARK    1  A    between atoms: C_1  and  C_2
REMARK    2  A    between atoms: C_2  and  C_3
REMARK    3  A    between atoms: C_6  and  O_9
REMARK    4  A    between atoms: O_9  and  C_10
REMARK    5  A    between atoms: C_15  and  N_16
REMARK                            x       y       z     vdW  Elec       q    Type
REMARK                         _______ _______ _______ _____ _____    ______ ____
ROOT
ATOM      1  C   UNL     1       3.994  -1.923  -4.596  0.00  0.00    +0.151 A 
ATOM      2  C   UNL     1       4.676  -1.688  -3.412  0.00  0.00    +0.075 A 
ATOM      3  C   UNL     1       6.057  -1.792  -3.379  0.00  0.00    +0.079 A 
ATOM      4  C   UNL     1       6.761  -2.131  -4.533  0.00  0.00    +0.144 A 
ATOM      5  C   UNL     1       6.081  -2.366  -5.715  0.00  0.00    +0.074 A 
ATOM      6  C   UNL     1       4.697  -2.268  -5.748  0.00  0.00    +0.071 A 
ATOM      7  O   UNL     1       8.118  -2.227  -4.485  0.00  0.00    -0.481 OA
ATOM      8  C   UNL     1       8.793  -1.344  -3.585  0.00  0.00    +0.325 C 
ATOM      9  C   UNL     1       8.098  -1.355  -2.248  0.00  0.00    +0.255 C 
ATOM     10  O   UNL     1       8.733  -1.180  -1.229  0.00  0.00    -0.272 OA
ATOM     11  N   UNL     1       6.764  -1.559  -2.188  0.00  0.00    -0.280 N 
ATOM     12  H   UNL     1       6.301  -1.544  -1.335  0.00  0.00    +0.155 HD
ENDROOT
BRANCH   6  13
ATOM     13  N   UNL     1       4.006  -2.510  -6.943  0.00  0.00    -0.355 N 
ATOM     14  H   UNL     1       3.039  -2.438  -6.968  0.00  0.00    +0.142 HD
ATOM     15  H   UNL     1       4.495  -2.751  -7.746  0.00  0.00    +0.142 HD
ENDBRANCH   6  13
BRANCH   1  16
ATOM     16  O   UNL     1       2.638  -1.822  -4.631  0.00  0.00    -0.454 OA
BRANCH  16  20
ATOM     17  C   UNL     1       0.710  -0.432  -1.260  0.00  0.00    -0.047 A 
ATOM     18  C   UNL     1       1.522   0.416  -1.989  0.00  0.00    +0.007 A 
ATOM     19  C   UNL     1       2.169  -0.046  -3.119  0.00  0.00    +0.046 A 
ATOM     20  C   UNL     1       2.003  -1.364  -3.521  0.00  0.00    +0.129 A 
ATOM     21  C   UNL     1       1.188  -2.214  -2.786  0.00  0.00    +0.046 A 
ATOM     22  C   UNL     1       0.548  -1.747  -1.655  0.00  0.00    +0.007 A 
BRANCH  17  24
ATOM     23  C   UNL     1       0.900  -0.134   1.195  0.00  0.00    +0.009 C 
ATOM     24  C   UNL     1       0.005   0.075  -0.028  0.00  0.00    +0.032 C 
ENDBRANCH  17  24
ENDBRANCH  16  20
ENDBRANCH   1  16
TORSDOF 4
