REMARK  Name = ZINC14019483
REMARK  6 active torsions:
REMARK  status: ('A' for Active; 'I' for Inactive)
REMARK    1  A    between atoms: C_1  and  C_2
REMARK    2  A    between atoms: N_4  and  C_5
REMARK    3  A    between atoms: C_5  and  C_16
REMARK    4  A    between atoms: C_6  and  C_7
REMARK    5  A    between atoms: C_11  and  N_13
REMARK    6  A    between atoms: N_18  and  C_19
REMARK                            x       y       z     vdW  Elec       q    Type
REMARK                         _______ _______ _______ _____ _____    ______ ____
ROOT
ATOM      1  C   UNL     1      -1.223   5.602  -0.292  0.00  0.00    +0.097 C 
ATOM      2  C   UNL     1      -0.164   4.767  -0.400  0.00  0.00    +0.036 C 
ENDROOT
BRANCH   2   3
ATOM      3  C   UNL     1      -0.314   3.342  -0.067  0.00  0.00    -0.021 A 
ATOM      4  C   UNL     1      -1.337   2.925   0.791  0.00  0.00    +0.008 A 
ATOM      5  C   UNL     1      -1.475   1.587   1.094  0.00  0.00    +0.003 A 
ATOM      6  C   UNL     1      -0.596   0.659   0.560  0.00  0.00    +0.033 A 
ATOM      7  C   UNL     1       0.418   1.064  -0.289  0.00  0.00    +0.127 A 
ATOM      8  C   UNL     1       0.566   2.398  -0.606  0.00  0.00    +0.040 A 
BRANCH   7   9
ATOM      9  N   UNL     1       1.348   0.063  -0.858  0.00  0.00    +0.056 N 
ATOM     10  O   UNL     1       1.219  -1.116  -0.580  0.00  0.00    -0.126 OA
ATOM     11  O   UNL     1       2.242   0.418  -1.606  0.00  0.00    -0.126 OA
ENDBRANCH   7   9
ENDBRANCH   2   3
BRANCH   1  15
ATOM     12  C   UNL     1      -4.589   5.072   1.305  0.00  0.00    +0.109 C 
ATOM     13  C   UNL     1      -3.179   5.543   1.060  0.00  0.00    +0.214 C 
ATOM     14  O   UNL     1      -2.662   6.332   1.823  0.00  0.00    -0.276 OA
ATOM     15  N   UNL     1      -2.493   5.088  -0.007  0.00  0.00    -0.282 N 
ATOM     16  H   UNL     1      -2.879   4.405  -0.577  0.00  0.00    +0.155 HD
ENDBRANCH   1  15
BRANCH   1  17
ATOM     17  C   UNL     1      -1.040   7.049  -0.475  0.00  0.00    +0.262 C 
ATOM     18  O   UNL     1       0.064   7.496  -0.724  0.00  0.00    -0.268 OA
ATOM     19  N   UNL     1      -2.095   7.881  -0.368  0.00  0.00    -0.280 N 
ATOM     20  H   UNL     1      -2.963   7.533  -0.109  0.00  0.00    +0.155 HD
BRANCH  19  21
ATOM     21  C   UNL     1      -1.940   9.245  -0.630  0.00  0.00    +0.034 A 
ATOM     22  C   UNL     1      -0.817   9.919  -0.168  0.00  0.00    +0.024 A 
ATOM     23  C   UNL     1      -0.663  11.265  -0.433  0.00  0.00    +0.016 A 
ATOM     24  C   UNL     1      -1.631  11.946  -1.149  0.00  0.00    +0.013 A 
ATOM     25  C   UNL     1      -2.754  11.279  -1.606  0.00  0.00    +0.016 A 
ATOM     26  C   UNL     1      -2.910   9.931  -1.349  0.00  0.00    +0.024 A 
ATOM     27  I   UNL     1      -1.397  13.990  -1.543  0.00  0.00    -0.044 I 
ENDBRANCH  19  21
ENDBRANCH   1  17
TORSDOF 5
