REMARK  Name = ZINC04024729
REMARK  4 active torsions:
REMARK  status: ('A' for Active; 'I' for Inactive)
REMARK    1  A    between atoms: C_9  and  C_11
REMARK    2  A    between atoms: C_12  and  O_30
REMARK    3  A    between atoms: C_13  and  N_25
REMARK    4  A    between atoms: C_15  and  C_20
REMARK                            x       y       z     vdW  Elec       q    Type
REMARK                         _______ _______ _______ _____ _____    ______ ____
ROOT
ATOM      1  C   UNL     1       0.407   1.900   0.696  0.00  0.00    +0.025 C 
ATOM      2  C   UNL     1       0.640   2.892  -0.182  0.00  0.00    +0.124 C 
ATOM      3  C   UNL     1       1.644   2.731  -1.293  0.00  0.00    +0.185 C 
ATOM      4  C   UNL     1       2.751   1.773  -0.846  0.00  0.00    +0.094 C 
ATOM      5  C   UNL     1       2.118   0.435  -0.450  0.00  0.00    +0.093 C 
ATOM      6  C   UNL     1       1.088   0.676   0.623  0.00  0.00    +0.162 C 
ATOM      7  O   UNL     1       0.846  -0.197   1.433  0.00  0.00    -0.292 OA
ENDROOT
BRANCH   1  16
ATOM      8  C   UNL     1       1.442   2.393   5.524  0.00  0.00    +0.000 A 
ATOM      9  C   UNL     1       1.940   3.021   4.398  0.00  0.00    +0.000 A 
ATOM     10  C   UNL     1       1.266   2.919   3.198  0.00  0.00    +0.002 A 
ATOM     11  C   UNL     1       0.089   2.188   3.115  0.00  0.00    -0.054 A 
ATOM     12  C   UNL     1      -0.405   1.560   4.238  0.00  0.00    -0.047 A 
ATOM     13  C   UNL     1       0.273   1.665   5.443  0.00  0.00    +0.004 A 
ATOM     14  C   UNL     1      -1.673   0.746   4.195  0.00  0.00    +0.016 C 
ATOM     15  C   UNL     1      -2.469   1.086   2.934  0.00  0.00    -0.077 C 
ATOM     16  C   UNL     1      -0.613   2.109   1.785  0.00  0.00    -0.003 C 
ATOM     17  N   UNL     1      -1.568   0.992   1.771  0.00  0.00    +0.387 N 
ATOM     18  H   UNL     1      -2.122   1.029   0.907  0.00  0.00    -0.085 HD
ATOM     19  H   UNL     1      -1.054   0.104   1.810  0.00  0.00    -0.085 HD
ENDBRANCH   1  16
BRANCH   4  20
ATOM     20  C   UNL     1       3.477   2.357   0.339  0.00  0.00    +0.111 A 
ATOM     21  C   UNL     1       3.771   3.657   0.518  0.00  0.00    +0.045 A 
ATOM     22  C   UNL     1       4.449   3.757   1.755  0.00  0.00    +0.041 A 
ATOM     23  C   UNL     1       4.535   2.511   2.253  0.00  0.00    +0.195 A 
ATOM     24  O   UNL     1       3.945   1.667   1.391  0.00  0.00    -0.467 OA
ENDBRANCH   4  20
BRANCH   3  25
ATOM     25  N   UNL     1       0.977   2.188  -2.479  0.00  0.00    -0.241 N 
ATOM     26  C   UNL     1      -0.032   1.301  -2.500  0.00  0.00    +0.219 A 
ATOM     27  N   UNL     1      -0.341   1.067  -3.750  0.00  0.00    -0.223 NA
ATOM     28  C   UNL     1       0.440   1.790  -4.551  0.00  0.00    +0.245 A 
ATOM     29  N   UNL     1       1.266   2.491  -3.820  0.00  0.00    -0.158 NA
ENDBRANCH   3  25
BRANCH   2  30
ATOM     30  O   UNL     1      -0.038   4.050  -0.067  0.00  0.00    -0.509 OA
ATOM     31  H   UNL     1       0.249   4.678  -0.790  0.00  0.00    +0.292 HD
ENDBRANCH   2  30
TORSDOF 4
