REMARK  Name = ZINC13629539
REMARK  7 active torsions:
REMARK  status: ('A' for Active; 'I' for Inactive)
REMARK    1  A    between atoms: C_1  and  C_2
REMARK    2  A    between atoms: C_2  and  C_3
REMARK    3  A    between atoms: C_8  and  N_9
REMARK    4  A    between atoms: C_10  and  C_12
REMARK    5  A    between atoms: C_12  and  C_14
REMARK    6  A    between atoms: C_12  and  N_21
REMARK    7  A    between atoms: C_14  and  C_15
REMARK                            x       y       z     vdW  Elec       q    Type
REMARK                         _______ _______ _______ _____ _____    ______ ____
ROOT
ATOM      1  C   UNL     1      -3.481  -0.338   3.695  0.00  0.00    +0.165 C 
ENDROOT
BRANCH   1   2
ATOM      2  N   UNL     1      -3.979  -0.676   5.031  0.00  0.00    -0.287 N 
ATOM      3  C   UNL     1      -5.266  -1.038   5.198  0.00  0.00    +0.308 C 
ATOM      4  O   UNL     1      -5.989  -1.179   4.230  0.00  0.00    -0.252 OA
ATOM      5  N   UNL     1      -5.753  -1.245   6.438  0.00  0.00    -0.245 N 
ATOM      6  C   UNL     1      -4.876  -1.184   7.617  0.00  0.00    +0.211 C 
ATOM      7  C   UNL     1      -5.231  -2.312   8.552  0.00  0.00    +0.235 C 
ATOM      8  O   UNL     1      -4.377  -2.784   9.273  0.00  0.00    -0.274 OA
ATOM      9  N   UNL     1      -6.484  -2.801   8.597  0.00  0.00    -0.283 N 
ATOM     10  C   UNL     1      -7.476  -2.310   7.741  0.00  0.00    +0.055 A 
ATOM     11  C   UNL     1      -7.114  -1.519   6.646  0.00  0.00    +0.059 A 
ATOM     12  C   UNL     1      -8.081  -1.026   5.789  0.00  0.00    +0.025 A 
ATOM     13  C   UNL     1      -9.415  -1.310   6.023  0.00  0.00    +0.002 A 
ATOM     14  C   UNL     1      -9.780  -2.084   7.109  0.00  0.00    +0.002 A 
ATOM     15  C   UNL     1      -8.813  -2.594   7.968  0.00  0.00    +0.025 A 
ATOM     16  H   UNL     1      -3.382  -0.640   5.795  0.00  0.00    +0.151 HD
ATOM     17  H   UNL     1      -6.702  -3.503   9.230  0.00  0.00    +0.155 HD
ENDBRANCH   1   2
BRANCH   1  19
ATOM     18  N   UNL     1      -1.313  -0.322   2.503  0.00  0.00    -0.284 N 
ATOM     19  C   UNL     1      -1.992  -0.569   3.641  0.00  0.00    +0.238 C 
ATOM     20  O   UNL     1      -1.406  -0.976   4.621  0.00  0.00    -0.273 OA
ATOM     21  H   UNL     1      -1.770   0.067   1.740  0.00  0.00    +0.155 HD
BRANCH  18  27
ATOM     22  C   UNL     1       0.591  -1.079   1.226  0.00  0.00    -0.026 A 
ATOM     23  C   UNL     1       1.938  -1.374   1.147  0.00  0.00    +0.005 A 
ATOM     24  C   UNL     1       2.746  -1.226   2.259  0.00  0.00    +0.000 A 
ATOM     25  C   UNL     1       2.209  -0.781   3.453  0.00  0.00    +0.002 A 
ATOM     26  C   UNL     1       0.863  -0.484   3.538  0.00  0.00    +0.023 A 
ATOM     27  C   UNL     1       0.050  -0.628   2.422  0.00  0.00    +0.037 A 
BRANCH  22  29
ATOM     28  C   UNL     1      -0.405   0.099  -0.716  0.00  0.00    +0.009 C 
ATOM     29  C   UNL     1      -0.288  -1.242   0.013  0.00  0.00    +0.033 C 
ENDBRANCH  22  29
ENDBRANCH  18  27
ENDBRANCH   1  19
BRANCH   1  30
ATOM     30  C   UNL     1      -3.780   1.133   3.397  0.00  0.00    +0.067 C 
BRANCH  30  31
ATOM     31  C   UNL     1      -5.271   1.339   3.330  0.00  0.00    -0.045 A 
ATOM     32  C   UNL     1      -5.936   1.194   2.127  0.00  0.00    +0.004 A 
ATOM     33  C   UNL     1      -7.304   1.382   2.066  0.00  0.00    +0.000 A 
ATOM     34  C   UNL     1      -8.007   1.716   3.208  0.00  0.00    +0.000 A 
ATOM     35  C   UNL     1      -7.343   1.860   4.412  0.00  0.00    +0.000 A 
ATOM     36  C   UNL     1      -5.976   1.667   4.474  0.00  0.00    +0.004 A 
ENDBRANCH  30  31
ENDBRANCH   1  30
TORSDOF 6
