REMARK  Name = ZINC26122072
REMARK  9 active torsions:
REMARK  status: ('A' for Active; 'I' for Inactive)
REMARK    1  A    between atoms: C_1  and  C_2
REMARK    2  A    between atoms: C_6  and  N_28
REMARK    3  A    between atoms: C_7  and  C_8
REMARK    4  A    between atoms: C_8  and  O_10
REMARK    5  A    between atoms: O_10  and  C_11
REMARK    6  A    between atoms: C_11  and  C_13
REMARK    7  A    between atoms: C_11  and  C_14
REMARK    8  A    between atoms: N_16  and  C_17
REMARK    9  A    between atoms: C_18  and  C_25
REMARK                            x       y       z     vdW  Elec       q    Type
REMARK                         _______ _______ _______ _____ _____    ______ ____
ROOT
ATOM      1  C   UNL     1       2.310   1.979   4.444  0.00  0.00    +0.258 C 
ATOM      2  O   UNL     1       3.140   2.025   3.560  0.00  0.00    -0.271 OA
ATOM      3  N   UNL     1       2.453   2.744   5.543  0.00  0.00    -0.276 N 
ATOM      4  H   UNL     1       1.790   2.707   6.250  0.00  0.00    +0.155 HD
ENDROOT
BRANCH   3   5
ATOM      5  C   UNL     1       3.549   3.585   5.665  0.00  0.00    +0.084 A 
ATOM      6  C   UNL     1       3.860   4.430   6.715  0.00  0.00    +0.068 A 
ATOM      7  C   UNL     1       5.086   5.218   6.599  0.00  0.00    -0.023 A 
ATOM      8  C   UNL     1       5.765   5.013   5.456  0.00  0.00    -0.004 A 
ATOM      9  S   UNL     1       4.806   3.805   4.577  0.00  0.00    -0.077 S 
ATOM     10  C   UNL     1       7.013   5.850   5.387  0.00  0.00    +0.043 C 
ATOM     11  C   UNL     1       6.811   6.941   6.462  0.00  0.00    +0.010 C 
ATOM     12  C   UNL     1       5.843   6.245   7.439  0.00  0.00    +0.037 C 
BRANCH   6  13
ATOM     13  C   UNL     1       2.996   4.531   7.895  0.00  0.00    +0.244 C 
ATOM     14  O   UNL     1       3.180   3.797   8.848  0.00  0.00    -0.270 OA
ATOM     15  N   UNL     1       1.998   5.436   7.923  0.00  0.00    -0.325 N 
ATOM     16  H   UNL     1       1.851   6.020   7.163  0.00  0.00    +0.145 HD
ATOM     17  H   UNL     1       1.426   5.503   8.704  0.00  0.00    +0.145 HD
ENDBRANCH   6  13
ENDBRANCH   3   5
BRANCH   1  18
ATOM     18  C   UNL     1       1.119   1.065   4.311  0.00  0.00    +0.259 C 
ATOM     19  C   UNL     1       1.117   0.059   5.464  0.00  0.00    +0.062 C 
BRANCH  18  20
ATOM     20  O   UNL     1       1.192   0.364   3.068  0.00  0.00    -0.449 OA
BRANCH  20  21
ATOM     21  C   UNL     1       0.025   0.017   2.492  0.00  0.00    +0.342 C 
ATOM     22  O   UNL     1      -1.026   0.300   3.031  0.00  0.00    -0.245 OA
BRANCH  21  29
ATOM     23  C   UNL     1      -0.018   1.503   0.010  0.00  0.00    +0.044 C 
ATOM     24  C   UNL     1       0.002  -0.004   0.002  0.00  0.00    -0.034 A 
ATOM     25  C   UNL     1       0.006  -0.689  -1.196  0.00  0.00    +0.004 A 
ATOM     26  C   UNL     1       0.025  -2.072  -1.205  0.00  0.00    +0.003 A 
ATOM     27  C   UNL     1       0.040  -2.779  -0.015  0.00  0.00    +0.033 A 
ATOM     28  C   UNL     1       0.037  -2.107   1.189  0.00  0.00    +0.140 A 
ATOM     29  C   UNL     1       0.023  -0.710   1.206  0.00  0.00    +0.092 A 
BRANCH  28  30
ATOM     30  N   UNL     1       0.052  -2.864   2.461  0.00  0.00    +0.057 N 
ATOM     31  O   UNL     1       0.068  -4.072   2.445  0.00  0.00    -0.126 OA
ATOM     32  O   UNL     1       0.050  -2.273   3.516  0.00  0.00    -0.126 OA
ENDBRANCH  28  30
ENDBRANCH  21  29
ENDBRANCH  20  21
ENDBRANCH  18  20
ENDBRANCH   1  18
TORSDOF 7
