REMARK  Name = ZINC09600982
REMARK  9 active torsions:
REMARK  status: ('A' for Active; 'I' for Inactive)
REMARK    1  A    between atoms: C_1  and  C_2
REMARK    2  A    between atoms: C_2  and  C_3
REMARK    3  A    between atoms: C_2  and  C_4
REMARK    4  A    between atoms: C_2  and  C_5
REMARK    5  A    between atoms: C_8  and  C_11
REMARK    6  A    between atoms: C_16  and  C_32
REMARK    7  A    between atoms: C_26  and  C_28
REMARK    8  A    between atoms: C_28  and  C_29
REMARK    9  A    between atoms: C_29  and  C_30
REMARK                            x       y       z     vdW  Elec       q    Type
REMARK                         _______ _______ _______ _____ _____    ______ ____
ROOT
ATOM      1  C   UNL     1       0.951   3.520   0.583  0.00  0.00    +0.032 C 
ATOM      2  C   UNL     1      -0.235   4.179  -0.119  0.00  0.00    +0.059 C 
ATOM      3  C   UNL     1      -1.459   3.284  -0.018  0.00  0.00    +0.017 C 
ATOM      4  C   UNL     1      -1.325   1.948  -0.013  0.00  0.00    +0.037 C 
ATOM      5  C   UNL     1      -2.451   0.943   0.064  0.00  0.00    +0.148 C 
ATOM      6  N   UNL     1      -3.740   1.513   0.393  0.00  0.00    -0.258 N 
ATOM      7  C   UNL     1      -4.372   2.413  -0.467  0.00  0.00    +0.058 A 
ATOM      8  C   UNL     1      -5.537   2.075  -1.136  0.00  0.00    +0.025 A 
ATOM      9  C   UNL     1      -6.069   2.956  -2.062  0.00  0.00    +0.002 A 
ATOM     10  C   UNL     1      -5.446   4.164  -2.317  0.00  0.00    +0.002 A 
ATOM     11  C   UNL     1      -4.293   4.513  -1.635  0.00  0.00    +0.025 A 
ATOM     12  C   UNL     1      -3.769   3.640  -0.697  0.00  0.00    +0.053 A 
ATOM     13  N   UNL     1      -2.642   3.946   0.055  0.00  0.00    -0.316 N 
ATOM     14  C   UNL     1      -4.341   1.170   1.550  0.00  0.00    +0.221 C 
ATOM     15  O   UNL     1      -3.801   0.389   2.305  0.00  0.00    -0.275 OA
ATOM     16  C   UNL     1      -0.038   1.360  -0.067  0.00  0.00    +0.163 C 
ATOM     17  O   UNL     1       0.052   0.148  -0.081  0.00  0.00    -0.292 OA
ATOM     18  C   UNL     1       1.217   2.179  -0.112  0.00  0.00    +0.088 C 
ATOM     19  H   UNL     1      -2.704   4.688   0.678  0.00  0.00    +0.152 HD
ENDROOT
BRANCH   1  23
ATOM     20  C   UNL     1       4.397   6.024   0.264  0.00  0.00    -0.042 A 
ATOM     21  C   UNL     1       3.919   5.661   1.509  0.00  0.00    +0.004 A 
ATOM     22  C   UNL     1       2.804   4.850   1.612  0.00  0.00    +0.004 A 
ATOM     23  C   UNL     1       2.166   4.404   0.470  0.00  0.00    -0.043 A 
ATOM     24  C   UNL     1       2.647   4.763  -0.775  0.00  0.00    +0.004 A 
ATOM     25  C   UNL     1       3.759   5.577  -0.878  0.00  0.00    +0.004 A 
BRANCH  20  27
ATOM     26  C   UNL     1       6.806   6.221   0.819  0.00  0.00    +0.015 C 
ATOM     27  C   UNL     1       5.613   6.907   0.151  0.00  0.00    -0.013 C 
ATOM     28  C   UNL     1       5.928   7.155  -1.325  0.00  0.00    +0.015 C 
ATOM     29  C   UNL     1       5.339   8.243   0.846  0.00  0.00    +0.015 C 
ENDBRANCH  20  27
ENDBRANCH   1  23
BRANCH   5  30
ATOM     30  C   UNL     1      -2.561   0.251  -1.270  0.00  0.00    -0.004 A 
ATOM     31  C   UNL     1      -2.948   0.958  -2.398  0.00  0.00    +0.009 A 
ATOM     32  C   UNL     1      -3.031   0.280  -3.605  0.00  0.00    +0.020 A 
ATOM     33  C   UNL     1      -2.738  -1.070  -3.641  0.00  0.00    +0.111 A 
ATOM     34  N   UNL     1      -2.378  -1.711  -2.546  0.00  0.00    -0.263 NA
ATOM     35  C   UNL     1      -2.283  -1.098  -1.383  0.00  0.00    +0.116 A 
ENDBRANCH   5  30
BRANCH  14  36
ATOM     36  C   UNL     1      -5.683   1.755   1.905  0.00  0.00    +0.107 C 
BRANCH  36  37
ATOM     37  C   UNL     1      -6.138   1.205   3.258  0.00  0.00    +0.134 C 
BRANCH  37  38
ATOM     38  C   UNL     1      -7.481   1.790   3.613  0.00  0.00    +0.356 C 
ATOM     39  O   UNL     1      -8.018   2.568   2.861  0.00  0.00    -0.246 OA
ATOM     40  O   UNL     1      -8.079   1.448   4.764  0.00  0.00    -0.246 OA
ENDBRANCH  37  38
ENDBRANCH  36  37
ENDBRANCH  14  36
TORSDOF 6
