REMARK  Name = ZINC34906191
REMARK  11 active torsions:
REMARK  status: ('A' for Active; 'I' for Inactive)
REMARK    1  A    between atoms: C_1  and  C_2
REMARK    2  A    between atoms: C_4  and  C_31
REMARK    3  A    between atoms: C_6  and  O_8
REMARK    4  A    between atoms: O_8  and  C_9
REMARK    5  A    between atoms: C_9  and  C_10
REMARK    6  A    between atoms: C_12  and  C_15
REMARK    7  A    between atoms: N_17  and  C_18
REMARK    8  A    between atoms: C_18  and  C_19
REMARK    9  A    between atoms: C_19  and  C_20
REMARK   10  A    between atoms: C_20  and  N_21
REMARK   11  A    between atoms: N_24  and  C_25
REMARK                            x       y       z     vdW  Elec       q    Type
REMARK                         _______ _______ _______ _____ _____    ______ ____
ROOT
ATOM      1  C   UNL     1       2.002  -4.804   7.195  0.00  0.00    +0.263 C 
ATOM      2  O   UNL     1       1.770  -5.541   8.135  0.00  0.00    -0.269 OA
ATOM      3  N   UNL     1       3.277  -4.522   6.859  0.00  0.00    -0.310 N 
ATOM      4  H   UNL     1       3.462  -3.935   6.110  0.00  0.00    +0.149 HD
ENDROOT
BRANCH   1   7
ATOM      5  C   UNL     1       0.064  -2.932   4.751  0.00  0.00    +0.116 A 
ATOM      6  N   UNL     1       1.101  -3.408   5.385  0.00  0.00    -0.236 NA
ATOM      7  C   UNL     1       0.891  -4.221   6.425  0.00  0.00    +0.133 A 
ATOM      8  C   UNL     1      -0.418  -4.481   6.731  0.00  0.00    +0.080 A 
ATOM      9  S   UNL     1      -1.244  -3.586   5.574  0.00  0.00    -0.076 S 
BRANCH   5  10
ATOM     10  C   UNL     1       0.046  -2.005   3.563  0.00  0.00    +0.291 C 
BRANCH  10  11
ATOM     11  O   UNL     1       0.051  -2.775   2.359  0.00  0.00    -0.485 OA
BRANCH  11  17
ATOM     12  C   UNL     1      -0.018   1.503   0.010  0.00  0.00    +0.044 C 
ATOM     13  C   UNL     1       0.002  -0.004   0.002  0.00  0.00    -0.047 A 
ATOM     14  C   UNL     1       0.006  -0.688  -1.200  0.00  0.00    +0.007 A 
ATOM     15  C   UNL     1       0.025  -2.071  -1.210  0.00  0.00    -0.047 A 
ATOM     16  C   UNL     1       0.040  -2.772  -0.020  0.00  0.00    +0.049 A 
ATOM     17  C   UNL     1       0.036  -2.088   1.187  0.00  0.00    +0.122 A 
ATOM     18  C   UNL     1       0.023  -0.701   1.195  0.00  0.00    +0.049 A 
ATOM     19  C   UNL     1       0.029  -2.813  -2.522  0.00  0.00    +0.044 C 
ENDBRANCH  11  17
ENDBRANCH  10  11
ENDBRANCH   5  10
ENDBRANCH   1   7
BRANCH   3  20
ATOM     20  C   UNL     1       4.382  -5.102   7.626  0.00  0.00    +0.106 C 
BRANCH  20  21
ATOM     21  C   UNL     1       5.713  -4.625   7.042  0.00  0.00    +0.037 C 
BRANCH  21  22
ATOM     22  C   UNL     1       6.868  -5.230   7.842  0.00  0.00    +0.107 C 
BRANCH  22  23
ATOM     23  N   UNL     1       8.143  -4.774   7.283  0.00  0.00    -0.299 N 
ATOM     24  C   UNL     1       9.304  -5.182   7.831  0.00  0.00    +0.300 C 
ATOM     25  O   UNL     1       9.294  -5.930   8.790  0.00  0.00    -0.253 OA
ATOM     26  N   UNL     1      10.477  -4.762   7.316  0.00  0.00    -0.297 N 
ATOM     27  H   UNL     1       8.151  -4.177   6.518  0.00  0.00    +0.150 HD
ATOM     28  H   UNL     1      10.485  -4.166   6.551  0.00  0.00    +0.151 HD
BRANCH  26  29
ATOM     29  C   UNL     1      11.739  -5.206   7.912  0.00  0.00    +0.074 C 
ATOM     30  C   UNL     1      12.097  -4.295   9.088  0.00  0.00    +0.022 C 
ATOM     31  C   UNL     1      13.415  -4.758   9.710  0.00  0.00    +0.002 C 
ATOM     32  C   UNL     1      14.526  -4.694   8.660  0.00  0.00    +0.000 C 
ATOM     33  C   UNL     1      14.168  -5.606   7.484  0.00  0.00    +0.002 C 
ATOM     34  C   UNL     1      12.850  -5.142   6.862  0.00  0.00    +0.022 C 
ENDBRANCH  26  29
ENDBRANCH  22  23
ENDBRANCH  21  22
ENDBRANCH  20  21
ENDBRANCH   3  20
TORSDOF 9
