REMARK  Name = ZINC43735935
REMARK  10 active torsions:
REMARK  status: ('A' for Active; 'I' for Inactive)
REMARK    1  A    between atoms: C_1  and  C_2
REMARK    2  A    between atoms: C_2  and  C_3
REMARK    3  A    between atoms: C_4  and  O_38
REMARK    4  A    between atoms: C_7  and  C_9
REMARK    5  A    between atoms: N_10  and  C_11
REMARK    6  A    between atoms: C_11  and  C_12
REMARK    7  A    between atoms: C_12  and  C_14
REMARK    8  A    between atoms: C_14  and  O_37
REMARK    9  A    between atoms: C_19  and  C_36
REMARK   10  A    between atoms: C_34  and  C_35
REMARK                            x       y       z     vdW  Elec       q    Type
REMARK                         _______ _______ _______ _____ _____    ______ ____
ROOT
ATOM      1  C   UNL     1       6.578  -1.470  -5.104  0.00  0.00    +0.131 C 
ATOM      2  C   UNL     1       7.714  -2.433  -4.677  0.00  0.00    +0.043 C 
ATOM      3  C   UNL     1       9.049  -1.717  -5.020  0.00  0.00    +0.008 C 
ATOM      4  C   UNL     1       8.639  -0.741  -6.128  0.00  0.00    +0.002 C 
ATOM      5  C   UNL     1       7.282  -0.208  -5.593  0.00  0.00    +0.007 C 
ATOM      6  C   UNL     1       6.614   0.541  -6.730  0.00  0.00    +0.010 C 
ATOM      7  C   UNL     1       7.497   1.757  -7.054  0.00  0.00    +0.005 C 
ATOM      8  C   UNL     1       8.918   1.339  -7.416  0.00  0.00    +0.002 C 
ATOM      9  C   UNL     1       9.556   0.450  -6.332  0.00  0.00    -0.003 C 
ATOM     10  C   UNL     1      10.940  -0.024  -6.776  0.00  0.00    +0.008 C 
ATOM     11  C   UNL     1      11.873   1.179  -6.957  0.00  0.00    +0.032 C 
ATOM     12  C   UNL     1      11.207   2.135  -7.932  0.00  0.00    -0.060 C 
ATOM     13  C   UNL     1      11.885   2.537  -9.003  0.00  0.00    +0.046 C 
ATOM     14  C   UNL     1      11.227   3.428  -9.970  0.00  0.00    +0.156 C 
ATOM     15  O   UNL     1      11.859   4.175 -10.688  0.00  0.00    -0.293 OA
ATOM     16  C   UNL     1       9.713   3.357 -10.016  0.00  0.00    +0.080 C 
ATOM     17  C   UNL     1       9.197   3.549  -8.590  0.00  0.00    +0.019 C 
ATOM     18  C   UNL     1       9.787   2.583  -7.599  0.00  0.00    -0.007 C 
ATOM     19  C   UNL     1       9.820   3.292  -6.244  0.00  0.00    +0.016 C 
ATOM     20  C   UNL     1       7.524   0.739  -4.416  0.00  0.00    +0.015 C 
ENDROOT
BRANCH   1  21
ATOM     21  C   UNL     1       5.693  -1.152  -3.927  0.00  0.00    +0.184 C 
ATOM     22  O   UNL     1       6.130  -1.230  -2.804  0.00  0.00    -0.292 OA
BRANCH  21  23
ATOM     23  C   UNL     1       4.262  -0.736  -4.151  0.00  0.00    +0.190 C 
BRANCH  23  31
ATOM     24  C   UNL     1       0.974  -1.867  -0.787  0.00  0.00    +0.060 A 
ATOM     25  C   UNL     1       2.017  -1.082  -1.130  0.00  0.00    +0.159 A 
ATOM     26  C   UNL     1       2.596  -1.230  -2.473  0.00  0.00    +0.081 A 
ATOM     27  C   UNL     1       2.025  -2.198  -3.346  0.00  0.00    +0.050 A 
ATOM     28  C   UNL     1       0.985  -2.937  -2.916  0.00  0.00    +0.015 A 
ATOM     29  N   UNL     1       0.474  -2.782  -1.667  0.00  0.00    -0.359 N 
ATOM     30  C   UNL     1       0.379  -3.963  -3.839  0.00  0.00    +0.063 C 
ATOM     31  N   UNL     1       3.619  -0.484  -2.860  0.00  0.00    -0.375 N 
ATOM     32  H   UNL     1       3.942   0.229  -2.288  0.00  0.00    +0.160 HD
ATOM     33  H   UNL     1      -0.273  -3.337  -1.394  0.00  0.00    +0.165 HD
BRANCH  24  35
ATOM     34  C   UNL     1      -0.846  -0.798   0.515  0.00  0.00    +0.010 C 
ATOM     35  C   UNL     1       0.360  -1.737   0.584  0.00  0.00    +0.053 C 
ENDBRANCH  24  35
BRANCH  25  36
ATOM     36  O   UNL     1       2.521  -0.172  -0.252  0.00  0.00    -0.503 OA
ATOM     37  H   UNL     1       3.266   0.338  -0.599  0.00  0.00    +0.292 HD
ENDBRANCH  25  36
ENDBRANCH  23  31
ENDBRANCH  21  23
ENDBRANCH   1  21
BRANCH   1  38
ATOM     38  O   UNL     1       5.808  -2.048  -6.160  0.00  0.00    -0.380 OA
ATOM     39  H   UNL     1       5.353  -2.865  -5.913  0.00  0.00    +0.211 HD
ENDBRANCH   1  38
TORSDOF 6
