REMARK  Name = ZINC08994291
REMARK  5 active torsions:
REMARK  status: ('A' for Active; 'I' for Inactive)
REMARK    1  A    between atoms: C_1  and  C_2
REMARK    2  A    between atoms: C_14  and  C_16
REMARK    3  A    between atoms: C_19  and  O_22
REMARK    4  A    between atoms: O_22  and  C_23
REMARK    5  A    between atoms: C_23  and  C_24
REMARK                            x       y       z     vdW  Elec       q    Type
REMARK                         _______ _______ _______ _____ _____    ______ ____
ROOT
ATOM      1  C   UNL     1       3.660  -0.640  -0.037  0.00  0.00    +0.086 C 
ATOM      2  C   UNL     1       2.340   0.086  -0.020  0.00  0.00    +0.109 A 
ATOM      3  N   UNL     1       1.199  -0.631  -0.013  0.00  0.00    -0.311 N 
ATOM      4  H   UNL     1       1.240  -1.730  -0.018  0.00  0.00    +0.170 HD
ATOM      5  C   UNL     1       0.002  -0.004   0.002  0.00  0.00    +0.257 A 
ATOM      6  O   UNL     1      -1.038  -0.643   0.009  0.00  0.00    -0.267 OA
ATOM      7  C   UNL     1      -0.017   1.397   0.010  0.00  0.00    +0.065 A 
ATOM      8  C   UNL     1       1.183   2.080   0.002  0.00  0.00    +0.136 A 
ATOM      9  N   UNL     1       2.334   1.391  -0.014  0.00  0.00    -0.219 NA
ATOM     10  N   UNL     1       1.192   3.464   0.010  0.00  0.00    -0.270 N 
ATOM     11  C   UNL     1       0.093   4.159  -0.336  0.00  0.00    +0.219 C 
ATOM     12  O   UNL     1       0.116   5.371  -0.305  0.00  0.00    -0.275 OA
ATOM     13  C   UNL     1      -1.165   3.451  -0.762  0.00  0.00    +0.109 C 
ATOM     14  C   UNL     1      -1.319   2.149   0.032  0.00  0.00    +0.066 C 
ATOM     15  H   UNL     1       2.103   4.007   0.302  0.00  0.00    +0.156 HD
ENDROOT
BRANCH  14  16
ATOM     16  C   UNL     1      -1.692   2.465   1.458  0.00  0.00    -0.039 A 
ATOM     17  C   UNL     1      -0.845   3.229   2.240  0.00  0.00    +0.008 A 
ATOM     18  C   UNL     1      -1.188   3.525   3.545  0.00  0.00    +0.046 A 
ATOM     19  C   UNL     1      -2.377   3.046   4.075  0.00  0.00    +0.121 A 
ATOM     20  C   UNL     1      -3.222   2.274   3.290  0.00  0.00    +0.046 A 
ATOM     21  C   UNL     1      -2.878   1.986   1.984  0.00  0.00    +0.008 A 
BRANCH  19  22
ATOM     22  O   UNL     1      -2.713   3.331   5.360  0.00  0.00    -0.483 OA
BRANCH  22  23
ATOM     23  C   UNL     1      -1.795   4.130   6.109  0.00  0.00    +0.324 C 
BRANCH  23  24
ATOM     24  C   UNL     1      -2.332   4.340   7.501  0.00  0.00    +0.248 C 
ATOM     25  O   UNL     1      -3.396   3.854   7.821  0.00  0.00    -0.272 OA
ATOM     26  N   UNL     1      -1.630   5.069   8.391  0.00  0.00    -0.327 N 
ATOM     27  H   UNL     1      -2.022   5.223   9.407  0.00  0.00    +0.145 HD
ATOM     28  H   UNL     1      -0.665   5.511   8.101  0.00  0.00    +0.145 HD
ENDBRANCH  23  24
ENDBRANCH  22  23
ENDBRANCH  19  22
ENDBRANCH  14  16
TORSDOF 4
