REMARK  Name = ZINC58385112
REMARK  9 active torsions:
REMARK  status: ('A' for Active; 'I' for Inactive)
REMARK    1  A    between atoms: C_1  and  C_2
REMARK    2  A    between atoms: C_2  and  C_3
REMARK    3  A    between atoms: C_2  and  C_4
REMARK    4  A    between atoms: C_4  and  C_5
REMARK    5  A    between atoms: C_4  and  N_22
REMARK    6  A    between atoms: N_7  and  C_8
REMARK    7  A    between atoms: C_8  and  C_9
REMARK    8  A    between atoms: C_8  and  C_10
REMARK    9  A    between atoms: C_23  and  C_25
REMARK                            x       y       z     vdW  Elec       q    Type
REMARK                         _______ _______ _______ _____ _____    ______ ____
ROOT
ATOM      1  C   UNL     1      -2.074  -0.231  -1.335  0.00  0.00    +0.234 C 
ATOM      2  O   UNL     1      -2.506  -1.081  -2.084  0.00  0.00    -0.274 OA
ATOM      3  N   UNL     1      -2.204   1.073  -1.649  0.00  0.00    -0.307 N 
ATOM      4  H   UNL     1      -1.924   1.754  -1.018  0.00  0.00    +0.149 HD
ENDROOT
BRANCH   3   5
ATOM      5  C   UNL     1      -2.768   1.462  -2.944  0.00  0.00    +0.100 C 
ATOM      6  C   UNL     1      -1.662   1.468  -4.001  0.00  0.00    +0.033 C 
BRANCH   5   7
ATOM      7  C   UNL     1      -3.369   2.840  -2.837  0.00  0.00    -0.025 A 
ATOM      8  C   UNL     1      -2.717   3.821  -2.109  0.00  0.00    +0.007 A 
ATOM      9  C   UNL     1      -3.259   5.087  -2.005  0.00  0.00    +0.028 A 
ATOM     10  C   UNL     1      -4.462   5.377  -2.632  0.00  0.00    +0.067 A 
ATOM     11  C   UNL     1      -5.119   4.387  -3.367  0.00  0.00    +0.067 A 
ATOM     12  C   UNL     1      -4.563   3.121  -3.470  0.00  0.00    +0.033 A 
ATOM     13  N   UNL     1      -6.280   4.966  -3.872  0.00  0.00    -0.306 N 
ATOM     14  H   UNL     1      -6.942   4.521  -4.424  0.00  0.00    +0.170 HD
ATOM     15  C   UNL     1      -6.328   6.248  -3.464  0.00  0.00    +0.325 A 
ATOM     16  O   UNL     1      -7.215   7.036  -3.732  0.00  0.00    -0.247 OA
ATOM     17  N   UNL     1      -5.244   6.526  -2.715  0.00  0.00    -0.306 N 
ATOM     18  H   UNL     1      -5.043   7.380  -2.302  0.00  0.00    +0.170 HD
ENDBRANCH   5   7
ENDBRANCH   3   5
BRANCH   1  19
ATOM     19  C   UNL     1      -1.393  -0.633  -0.052  0.00  0.00    +0.162 C 
BRANCH  19  20
ATOM     20  N   UNL     1      -1.762  -2.010   0.286  0.00  0.00    -0.300 N 
ATOM     21  C   UNL     1      -1.716  -2.425   1.568  0.00  0.00    +0.245 C 
ATOM     22  O   UNL     1      -1.370  -1.656   2.443  0.00  0.00    -0.270 OA
ATOM     23  H   UNL     1      -2.038  -2.623  -0.413  0.00  0.00    +0.150 HD
BRANCH  21  24
ATOM     24  C   UNL     1      -2.088  -3.813   1.908  0.00  0.00    +0.037 A 
ATOM     25  C   UNL     1      -2.480  -4.700   0.903  0.00  0.00    +0.016 A 
ATOM     26  C   UNL     1      -2.825  -5.995   1.226  0.00  0.00    +0.039 A 
ATOM     27  C   UNL     1      -2.784  -6.417   2.546  0.00  0.00    +0.123 A 
ATOM     28  C   UNL     1      -2.395  -5.541   3.548  0.00  0.00    +0.039 A 
ATOM     29  C   UNL     1      -2.042  -4.246   3.235  0.00  0.00    +0.016 A 
ATOM     30  F   UNL     1      -3.124  -7.687   2.858  0.00  0.00    -0.205 F 
ENDBRANCH  21  24
ENDBRANCH  19  20
BRANCH  19  32
ATOM     31  C   UNL     1       0.813  -0.878   1.095  0.00  0.00    +0.009 C 
ATOM     32  C   UNL     1       0.123  -0.539  -0.228  0.00  0.00    +0.012 C 
ATOM     33  C   UNL     1       0.574  -1.527  -1.306  0.00  0.00    +0.009 C 
ENDBRANCH  19  32
ENDBRANCH   1  19
TORSDOF 6
