REMARK  Name = ZINC35066397
REMARK  8 active torsions:
REMARK  status: ('A' for Active; 'I' for Inactive)
REMARK    1  A    between atoms: C_1  and  O_2
REMARK    2  A    between atoms: O_2  and  C_3
REMARK    3  A    between atoms: C_5  and  C_10
REMARK    4  A    between atoms: C_8  and  O_9
REMARK    5  A    between atoms: C_12  and  C_24
REMARK    6  A    between atoms: C_14  and  C_19
REMARK    7  A    between atoms: C_14  and  O_23
REMARK    8  A    between atoms: C_24  and  C_26
REMARK                            x       y       z     vdW  Elec       q    Type
REMARK                         _______ _______ _______ _____ _____    ______ ____
ROOT
ATOM      1  C   UNL     1      -4.674   0.446   0.415  0.00  0.00    +0.120 C 
ATOM      2  C   UNL     1      -5.607   0.546   1.626  0.00  0.00    +0.144 C 
ATOM      3  C   UNL     1      -6.983   1.019   1.145  0.00  0.00    +0.243 C 
ATOM      4  N   UNL     1      -7.465   0.113   0.102  0.00  0.00    -0.264 N 
ATOM      5  C   UNL     1      -6.614  -0.547  -0.698  0.00  0.00    +0.302 C 
ATOM      6  O   UNL     1      -7.067  -1.280  -1.555  0.00  0.00    -0.253 OA
ATOM      7  N   UNL     1      -5.281  -0.428  -0.590  0.00  0.00    -0.292 N 
ATOM      8  H   UNL     1      -8.420  -0.014  -0.013  0.00  0.00    +0.153 HD
ATOM      9  H   UNL     1      -4.709  -0.933  -1.189  0.00  0.00    +0.151 HD
ENDROOT
BRANCH   1  12
ATOM     10  C   UNL     1      -1.088   0.196   1.576  0.00  0.00    +0.162 A 
ATOM     11  C   UNL     1      -2.308   0.721   1.180  0.00  0.00    +0.055 A 
ATOM     12  C   UNL     1      -3.348  -0.126   0.845  0.00  0.00    -0.023 A 
ATOM     13  C   UNL     1      -3.175  -1.496   0.906  0.00  0.00    +0.009 A 
ATOM     14  C   UNL     1      -1.961  -2.026   1.301  0.00  0.00    +0.049 A 
ATOM     15  C   UNL     1      -0.912  -1.183   1.631  0.00  0.00    +0.158 A 
BRANCH  10  17
ATOM     16  C   UNL     1      -0.316   2.432   1.825  0.00  0.00    +0.277 C 
ATOM     17  O   UNL     1      -0.063   1.028   1.905  0.00  0.00    -0.491 OA
ENDBRANCH  10  17
BRANCH  15  18
ATOM     18  O   UNL     1       0.285  -1.702   2.014  0.00  0.00    -0.503 OA
ATOM     19  H   UNL     1       0.362  -1.853   2.966  0.00  0.00    +0.292 HD
ENDBRANCH  15  18
ENDBRANCH   1  12
BRANCH   3  20
ATOM     20  C   UNL     1      -7.964   1.016   2.319  0.00  0.00    +0.436 C 
ATOM     21  F   UNL     1      -7.435   1.771   3.371  0.00  0.00    -0.166 F 
ATOM     22  F   UNL     1      -9.181   1.573   1.911  0.00  0.00    -0.166 F 
ATOM     23  F   UNL     1      -8.174  -0.299   2.748  0.00  0.00    -0.166 F 
ENDBRANCH   3  20
BRANCH   3  24
ATOM     24  O   UNL     1      -6.874   2.342   0.616  0.00  0.00    -0.364 OA
ATOM     25  H   UNL     1      -7.709   2.706   0.292  0.00  0.00    +0.212 HD
ENDBRANCH   3  24
BRANCH   2  26
ATOM     26  C   UNL     1      -5.733  -0.806   2.280  0.00  0.00    +0.173 C 
ATOM     27  O   UNL     1      -6.215  -1.734   1.665  0.00  0.00    -0.292 OA
BRANCH  26  28
ATOM     28  C   UNL     1      -5.273  -1.000   3.663  0.00  0.00    +0.018 A 
ATOM     29  C   UNL     1      -4.613   0.035   4.335  0.00  0.00    +0.014 A 
ATOM     30  C   UNL     1      -4.184  -0.153   5.630  0.00  0.00    +0.039 A 
ATOM     31  C   UNL     1      -4.404  -1.366   6.268  0.00  0.00    +0.123 A 
ATOM     32  C   UNL     1      -5.057  -2.396   5.607  0.00  0.00    +0.039 A 
ATOM     33  C   UNL     1      -5.497  -2.218   4.314  0.00  0.00    +0.014 A 
ATOM     34  F   UNL     1      -3.980  -1.544   7.538  0.00  0.00    -0.205 F 
ENDBRANCH  26  28
ENDBRANCH   2  26
TORSDOF 7
