REMARK  Name = ZINC50441739
REMARK  6 active torsions:
REMARK  status: ('A' for Active; 'I' for Inactive)
REMARK    1  A    between atoms: C_1  and  C_2
REMARK    2  A    between atoms: C_5  and  S_8
REMARK    3  A    between atoms: S_8  and  C_9
REMARK    4  A    between atoms: C_12  and  C_18
REMARK    5  A    between atoms: C_14  and  N_15
REMARK    6  A    between atoms: N_19  and  O_20
REMARK                            x       y       z     vdW  Elec       q    Type
REMARK                         _______ _______ _______ _____ _____    ______ ____
ROOT
ATOM      1  C   UNL     1       0.040  -5.016   1.643  0.00  0.00    +0.046 A 
ATOM      2  C   UNL     1      -0.069  -4.106   2.690  0.00  0.00    +0.018 A 
ATOM      3  C   UNL     1      -0.088  -4.552   3.993  0.00  0.00    +0.012 A 
ATOM      4  C   UNL     1       0.003  -5.919   4.263  0.00  0.00    +0.020 A 
ATOM      5  C   UNL     1       0.113  -6.830   3.211  0.00  0.00    +0.045 A 
ATOM      6  C   UNL     1       0.126  -6.379   1.910  0.00  0.00    +0.141 A 
ENDROOT
BRANCH   4   7
ATOM      7  C   UNL     1      -0.016  -6.400   5.661  0.00  0.00    +0.162 C 
ATOM      8  N   UNL     1       0.069  -7.675   5.912  0.00  0.00    -0.072 NA
ATOM      9  N   UNL     1      -0.124  -5.495   6.704  0.00  0.00    -0.340 N 
ATOM     10  H   UNL     1      -0.188  -4.546   6.517  0.00  0.00    +0.144 HD
ATOM     11  H   UNL     1      -0.137  -5.811   7.621  0.00  0.00    +0.144 HD
BRANCH   8  12
ATOM     12  O   UNL     1       0.050  -8.136   7.251  0.00  0.00    -0.408 OA
ATOM     13  H   UNL     1       0.118  -9.097   7.337  0.00  0.00    +0.328 HD
ENDBRANCH   8  12
ENDBRANCH   4   7
BRANCH   6  14
ATOM     14  N   UNL     1       0.236  -7.345   0.793  0.00  0.00    +0.058 N 
ATOM     15  O   UNL     1       0.311  -8.530   1.024  0.00  0.00    -0.126 OA
ATOM     16  O   UNL     1       0.252  -6.950  -0.349  0.00  0.00    -0.126 OA
ENDBRANCH   6  14
BRANCH   1  17
ATOM     17  S   UNL     1       0.064  -4.443  -0.022  0.00  0.00    -0.048 S 
BRANCH  17  22
ATOM     18  C   UNL     1       5.792  -4.784  -1.581  0.00  0.00    +0.047 C 
ATOM     19  C   UNL     1       4.340  -4.697  -1.186  0.00  0.00    -0.014 A 
ATOM     20  C   UNL     1       3.374  -4.341  -2.114  0.00  0.00    +0.118 A 
ATOM     21  N   UNL     1       2.109  -4.275  -1.735  0.00  0.00    -0.230 NA
ATOM     22  C   UNL     1       1.761  -4.544  -0.484  0.00  0.00    +0.193 A 
ATOM     23  N   UNL     1       2.660  -4.887   0.427  0.00  0.00    -0.230 NA
ATOM     24  C   UNL     1       3.942  -4.977   0.112  0.00  0.00    +0.118 A 
ENDBRANCH  17  22
ENDBRANCH   1  17
TORSDOF 5
