REMARK  Name = ZINC39636005
REMARK  6 active torsions:
REMARK  status: ('A' for Active; 'I' for Inactive)
REMARK    1  A    between atoms: C_1  and  C_2
REMARK    2  A    between atoms: C_8  and  N_10
REMARK    3  A    between atoms: C_11  and  C_13
REMARK    4  A    between atoms: C_24  and  C_26
REMARK    5  A    between atoms: C_28  and  O_33
REMARK    6  A    between atoms: O_33  and  C_34
REMARK                            x       y       z     vdW  Elec       q    Type
REMARK                         _______ _______ _______ _____ _____    ______ ____
ROOT
ATOM      1  C   UNL     1       4.633   1.581   2.435  0.00  0.00    +0.100 C 
ATOM      2  C   UNL     1       5.256   0.371   1.704  0.00  0.00    +0.121 C 
ATOM      3  N   UNL     1       6.468   0.042   2.492  0.00  0.00    -0.296 N 
ATOM      4  C   UNL     1       6.053   0.231   3.903  0.00  0.00    +0.115 C 
ATOM      5  C   UNL     1       5.157   1.485   3.878  0.00  0.00    -0.004 C 
ATOM      6  C   UNL     1       3.996   1.322   4.853  0.00  0.00    -0.010 C 
ATOM      7  C   UNL     1       4.538   1.287   6.285  0.00  0.00    -0.082 C 
ATOM      8  N   UNL     1       5.267   2.530   6.564  0.00  0.00    +0.379 N 
ATOM      9  C   UNL     1       6.437   2.633   5.684  0.00  0.00    -0.082 C 
ATOM     10  C   UNL     1       5.975   2.725   4.227  0.00  0.00    -0.010 C 
ATOM     11  C   UNL     1       7.675  -0.341   2.029  0.00  0.00    +0.248 C 
ATOM     12  O   UNL     1       8.551  -0.659   2.809  0.00  0.00    -0.270 OA
ATOM     13  H   UNL     1       4.658   3.319   6.406  0.00  0.00    -0.086 HD
ATOM     14  H   UNL     1       5.571   2.531   7.526  0.00  0.00    -0.086 HD
ENDROOT
BRANCH  11  15
ATOM     15  C   UNL     1       7.931  -0.376   0.574  0.00  0.00    +0.054 A 
ATOM     16  C   UNL     1       6.961  -0.872  -0.297  0.00  0.00    +0.059 A 
ATOM     17  C   UNL     1       7.208  -0.901  -1.658  0.00  0.00    +0.121 A 
ATOM     18  C   UNL     1       8.419  -0.437  -2.155  0.00  0.00    +0.047 A 
ATOM     19  C   UNL     1       9.383   0.055  -1.295  0.00  0.00    +0.019 A 
ATOM     20  C   UNL     1       9.145   0.093   0.066  0.00  0.00    +0.030 A 
ATOM     21 BR   UNL     1      10.463   0.774   1.238  0.00  0.00    -0.050 Br
BRANCH  17  22
ATOM     22  O   UNL     1       6.265  -1.384  -2.510  0.00  0.00    -0.495 OA
ATOM     23  C   UNL     1       6.588  -1.384  -3.902  0.00  0.00    +0.277 C 
ENDBRANCH  17  22
ENDBRANCH  11  15
BRANCH   1  25
ATOM     24  N   UNL     1       2.383   2.610   2.432  0.00  0.00    -0.312 N 
ATOM     25  C   UNL     1       3.129   1.488   2.417  0.00  0.00    +0.218 C 
ATOM     26  O   UNL     1       2.589   0.402   2.388  0.00  0.00    -0.275 OA
ATOM     27  H   UNL     1       2.815   3.479   2.454  0.00  0.00    +0.149 HD
BRANCH  24  34
ATOM     28  C   UNL     1       0.809   3.907   4.488  0.00  0.00    +0.009 C 
ATOM     29  C   UNL     1       0.324   3.780   3.042  0.00  0.00    +0.006 C 
ATOM     30  C   UNL     1       0.768   5.007   2.245  0.00  0.00    +0.005 C 
ATOM     31  C   UNL     1       0.283   4.880   0.800  0.00  0.00    +0.000 C 
ATOM     32  C   UNL     1       0.880   3.619   0.171  0.00  0.00    +0.002 C 
ATOM     33  C   UNL     1       0.436   2.392   0.968  0.00  0.00    +0.022 C 
ATOM     34  C   UNL     1       0.921   2.519   2.413  0.00  0.00    +0.076 C 
ENDBRANCH  24  34
ENDBRANCH   1  25
TORSDOF 4
