REMARK  Name = ZINC05145811
REMARK  6 active torsions:
REMARK  status: ('A' for Active; 'I' for Inactive)
REMARK    1  A    between atoms: C_1  and  C_2
REMARK    2  A    between atoms: C_2  and  O_3
REMARK    3  A    between atoms: O_3  and  C_4
REMARK    4  A    between atoms: C_7  and  C_9
REMARK    5  A    between atoms: C_13  and  N_14
REMARK    6  A    between atoms: C_15  and  C_17
REMARK                            x       y       z     vdW  Elec       q    Type
REMARK                         _______ _______ _______ _____ _____    ______ ____
ROOT
ATOM      1  C   UNL     1      -2.504   1.113   0.014  0.00  0.00    +0.069 A 
ATOM      2  C   UNL     1      -3.615   2.051   0.029  0.00  0.00    -0.023 A 
ATOM      3  C   UNL     1      -3.267   3.355   0.034  0.00  0.00    -0.004 A 
ATOM      4  S   UNL     1      -1.496   3.352   0.027  0.00  0.00    -0.077 S 
ATOM      5  C   UNL     1      -1.220   1.642   0.017  0.00  0.00    +0.085 A 
ATOM      6  C   UNL     1      -4.188   4.536   0.044  0.00  0.00    +0.043 C 
ATOM      7  C   UNL     1      -5.597   4.053  -0.331  0.00  0.00    +0.005 C 
ATOM      8  C   UNL     1      -5.930   2.811   0.501  0.00  0.00    +0.005 C 
ATOM      9  C   UNL     1      -5.079   1.629   0.034  0.00  0.00    +0.037 C 
ENDROOT
BRANCH   1  13
ATOM     10  C   UNL     1      -3.046  -2.319  -1.185  0.00  0.00    +0.407 C 
ATOM     11  O   UNL     1      -3.138  -2.930  -0.139  0.00  0.00    -0.226 OA
ATOM     12  N   UNL     1      -2.837  -0.988  -1.173  0.00  0.00    -0.217 N 
ATOM     13  C   UNL     1      -2.731  -0.334   0.001  0.00  0.00    +0.255 C 
ATOM     14  O   UNL     1      -2.823  -0.945   1.049  0.00  0.00    -0.270 OA
ATOM     15  H   UNL     1      -2.763  -0.501  -2.008  0.00  0.00    +0.161 HD
BRANCH  10  16
ATOM     16  O   UNL     1      -3.152  -2.973  -2.357  0.00  0.00    -0.450 OA
BRANCH  16  18
ATOM     17  C   UNL     1      -3.469  -4.970  -3.714  0.00  0.00    +0.048 C 
ATOM     18  C   UNL     1      -3.376  -4.406  -2.295  0.00  0.00    +0.230 C 
ENDBRANCH  16  18
ENDBRANCH  10  16
ENDBRANCH   1  13
BRANCH   5  19
ATOM     19  N   UNL     1      -0.011   0.966   0.007  0.00  0.00    -0.273 N 
ATOM     20  C   UNL     1       1.147   1.655   0.000  0.00  0.00    +0.284 C 
ATOM     21  O   UNL     1       1.130   2.872   0.007  0.00  0.00    -0.266 OA
ATOM     22  H   UNL     1       0.002  -0.004   0.002  0.00  0.00    +0.156 HD
BRANCH  20  23
ATOM     23  C   UNL     1       2.426   0.940  -0.016  0.00  0.00    +0.189 A 
ATOM     24  C   UNL     1       3.666   1.513  -0.025  0.00  0.00    +0.054 A 
ATOM     25  C   UNL     1       4.596   0.461  -0.038  0.00  0.00    +0.042 A 
ATOM     26  C   UNL     1       3.892  -0.692  -0.037  0.00  0.00    +0.196 A 
ATOM     27  O   UNL     1       2.585  -0.400  -0.019  0.00  0.00    -0.458 OA
ENDBRANCH  20  23
ENDBRANCH   5  19
TORSDOF 5
