REMARK  Name = ZINC09009096
REMARK  5 active torsions:
REMARK  status: ('A' for Active; 'I' for Inactive)
REMARK    1  A    between atoms: C_1  and  C_2
REMARK    2  A    between atoms: C_2  and  C_3
REMARK    3  A    between atoms: C_2  and  C_4
REMARK    4  A    between atoms: C_11  and  N_26
REMARK    5  A    between atoms: C_12  and  C_24
REMARK                            x       y       z     vdW  Elec       q    Type
REMARK                         _______ _______ _______ _____ _____    ______ ____
ROOT
ATOM      1  C   UNL     1      -1.412  -0.526   0.013  0.00  0.00    +0.047 A 
ATOM      2  C   UNL     1      -1.974  -1.307  -0.921  0.00  0.00    +0.061 A 
ATOM      3  C   UNL     1      -3.308  -1.568  -0.530  0.00  0.00    +0.245 A 
ATOM      4  N   UNL     1      -3.522  -0.957   0.599  0.00  0.00    -0.135 NA
ATOM      5  N   UNL     1      -2.341  -0.295   0.969  0.00  0.00    -0.278 N 
ATOM      6  H   UNL     1      -2.213   0.237   1.770  0.00  0.00    +0.189 HD
ATOM      7  O   UNL     1      -4.139  -2.339  -1.280  0.00  0.00    -0.421 OA
ATOM      8  C   UNL     1      -3.594  -3.068  -2.273  0.00  0.00    +0.201 C 
ATOM      9  C   UNL     1      -2.336  -2.903  -2.740  0.00  0.00    +0.110 C 
ATOM     10  C   UNL     1      -1.397  -1.866  -2.192  0.00  0.00    +0.145 C 
ATOM     11  C   UNL     1      -1.134  -0.785  -3.190  0.00  0.00    -0.000 A 
ATOM     12  C   UNL     1      -1.976   0.111  -3.812  0.00  0.00    +0.027 A 
ATOM     13  C   UNL     1      -1.398   1.006  -4.707  0.00  0.00    +0.041 A 
ATOM     14  C   UNL     1      -0.040   0.993  -4.959  0.00  0.00    +0.022 A 
ATOM     15  C   UNL     1       0.813   0.094  -4.338  0.00  0.00    +0.025 A 
ATOM     16  C   UNL     1       0.245  -0.808  -3.438  0.00  0.00    +0.038 A 
ATOM     17  N   UNL     1       0.851  -1.802  -2.688  0.00  0.00    -0.284 N 
ATOM     18  C   UNL     1      -0.037  -2.475  -1.927  0.00  0.00    +0.238 C 
ATOM     19  O   UNL     1       0.207  -3.394  -1.174  0.00  0.00    -0.274 OA
ATOM     20 CL   UNL     1      -2.403   2.160  -5.525  0.00  0.00    -0.084 Cl
ATOM     21  H   UNL     1       1.802  -1.992  -2.708  0.00  0.00    +0.155 HD
ENDROOT
BRANCH   1  23
ATOM     22  C   UNL     1      -0.019   1.526   0.010  0.00  0.00    +0.014 C 
ATOM     23  C   UNL     1       0.002  -0.004   0.002  0.00  0.00    +0.031 C 
ATOM     24  C   UNL     1       0.742  -0.511   1.242  0.00  0.00    +0.014 C 
ENDBRANCH   1  23
BRANCH   8  25
ATOM     25  N   UNL     1      -4.367  -4.045  -2.850  0.00  0.00    -0.328 N 
ATOM     26  H   UNL     1      -5.274  -4.191  -2.539  0.00  0.00    +0.145 HD
ATOM     27  H   UNL     1      -4.007  -4.589  -3.568  0.00  0.00    +0.145 HD
ENDBRANCH   8  25
BRANCH   9  28
ATOM     28  C   UNL     1      -1.880  -3.751  -3.801  0.00  0.00    +0.102 C 
ATOM     29  N   UNL     1      -1.518  -4.423  -4.643  0.00  0.00    -0.191 NA
ENDBRANCH   9  28
TORSDOF 3
