REMARK  Name = ZINC12715293
REMARK  12 active torsions:
REMARK  status: ('A' for Active; 'I' for Inactive)
REMARK    1  A    between atoms: C_1  and  C_2
REMARK    2  A    between atoms: C_5  and  C_7
REMARK    3  A    between atoms: C_7  and  C_9
REMARK    4  A    between atoms: C_7  and  N_16
REMARK    5  A    between atoms: N_11  and  C_12
REMARK    6  A    between atoms: C_12  and  C_13
REMARK    7  A    between atoms: C_12  and  C_14
REMARK    8  A    between atoms: C_12  and  C_15
REMARK    9  A    between atoms: N_16  and  C_17
REMARK   10  A    between atoms: C_24  and  C_26
REMARK   11  A    between atoms: C_27  and  N_34
REMARK   12  A    between atoms: C_28  and  C_31
REMARK                            x       y       z     vdW  Elec       q    Type
REMARK                         _______ _______ _______ _____ _____    ______ ____
ROOT
ATOM      1  N   UNL     1      -3.422  -0.045   4.117  0.00  0.00    -0.248 N 
ATOM      2  C   UNL     1      -4.675   0.353   3.819  0.00  0.00    +0.262 C 
ATOM      3  O   UNL     1      -5.047   1.472   4.120  0.00  0.00    -0.269 OA
ENDROOT
BRANCH   1   4
ATOM      4  C   UNL     1      -2.973  -1.306   3.711  0.00  0.00    +0.038 A 
ATOM      5  C   UNL     1      -2.296  -1.448   2.506  0.00  0.00    +0.026 A 
ATOM      6  C   UNL     1      -1.849  -2.693   2.110  0.00  0.00    +0.040 A 
ATOM      7  C   UNL     1      -2.084  -3.801   2.906  0.00  0.00    +0.124 A 
ATOM      8  C   UNL     1      -2.763  -3.662   4.105  0.00  0.00    +0.040 A 
ATOM      9  C   UNL     1      -3.208  -2.418   4.508  0.00  0.00    +0.026 A 
ATOM     10  F   UNL     1      -1.649  -5.019   2.514  0.00  0.00    -0.205 F 
ENDBRANCH   1   4
BRANCH   2  11
ATOM     11  C   UNL     1      -5.589  -0.562   3.133  0.00  0.00    +0.116 A 
ATOM     12  C   UNL     1      -6.906  -0.352   2.717  0.00  0.00    +0.076 A 
ATOM     13  C   UNL     1      -7.452  -1.470   2.089  0.00  0.00    +0.155 A 
ATOM     14  N   UNL     1      -6.724  -2.558   1.963  0.00  0.00    -0.203 NA
ATOM     15  S   UNL     1      -5.323  -2.244   2.611  0.00  0.00    +0.019 S 
BRANCH  13  16
ATOM     16  C   UNL     1      -8.835  -1.436   1.576  0.00  0.00    +0.262 C 
ATOM     17  O   UNL     1      -9.502  -0.427   1.697  0.00  0.00    -0.269 OA
ATOM     18  N   UNL     1      -9.358  -2.522   0.975  0.00  0.00    -0.324 N 
ATOM     19  H   UNL     1      -8.825  -3.327   0.879  0.00  0.00    +0.145 HD
ATOM     20  H   UNL     1     -10.267  -2.500   0.638  0.00  0.00    +0.145 HD
ENDBRANCH  13  16
BRANCH  12  21
ATOM     21  N   UNL     1      -7.593   0.840   2.907  0.00  0.00    -0.355 N 
ATOM     22  H   UNL     1      -7.158   1.585   3.350  0.00  0.00    +0.142 HD
ATOM     23  H   UNL     1      -8.508   0.926   2.596  0.00  0.00    +0.142 HD
ENDBRANCH  12  21
ENDBRANCH   2  11
BRANCH   1  24
ATOM     24  C   UNL     1      -2.531   0.844   4.867  0.00  0.00    +0.233 C 
BRANCH  24  29
ATOM     25  C   UNL     1       1.614  -0.207   2.192  0.00  0.00    +0.086 C 
ATOM     26  C   UNL     1       0.559   0.565   2.942  0.00  0.00    +0.102 A 
ATOM     27  C   UNL     1       0.550   1.896   3.139  0.00  0.00    +0.045 A 
ATOM     28  C   UNL     1      -0.615   2.191   3.885  0.00  0.00    +0.047 A 
ATOM     29  C   UNL     1      -1.243   1.022   4.106  0.00  0.00    +0.135 A 
ATOM     30  O   UNL     1      -0.527   0.041   3.532  0.00  0.00    -0.462 OA
ENDBRANCH  24  29
BRANCH  24  31
ATOM     31  C   UNL     1      -2.238   0.240   6.216  0.00  0.00    +0.242 C 
ATOM     32  O   UNL     1      -2.726  -0.827   6.521  0.00  0.00    -0.273 OA
ATOM     33  N   UNL     1      -1.434   0.887   7.083  0.00  0.00    -0.309 N 
ATOM     34  H   UNL     1      -1.044   1.741   6.839  0.00  0.00    +0.149 HD
BRANCH  33  35
ATOM     35  C   UNL     1      -1.149   0.300   8.395  0.00  0.00    +0.026 C 
ATOM     36  C   UNL     1      -0.474  -1.061   8.209  0.00  0.00    +0.031 C 
ATOM     37  C   UNL     1      -0.218   1.228   9.178  0.00  0.00    +0.031 C 
ATOM     38  C   UNL     1      -2.457   0.119   9.168  0.00  0.00    +0.031 C 
ENDBRANCH  33  35
ENDBRANCH  24  31
ENDBRANCH   1  24
TORSDOF 8
