REMARK  Name = ZINC65393710
REMARK  4 active torsions:
REMARK  status: ('A' for Active; 'I' for Inactive)
REMARK    1  A    between atoms: C_1  and  N_2
REMARK    2  A    between atoms: C_3  and  C_5
REMARK    3  A    between atoms: C_15  and  C_17
REMARK    4  A    between atoms: C_20  and  C_22
REMARK                            x       y       z     vdW  Elec       q    Type
REMARK                         _______ _______ _______ _____ _____    ______ ____
ROOT
ATOM      1  C   UNL     1       0.605  -2.142  -1.026  0.00  0.00    +0.152 A 
ATOM      2  C   UNL     1       1.177  -2.952  -2.013  0.00  0.00    +0.035 A 
ATOM      3  C   UNL     1       0.991  -4.255  -1.647  0.00  0.00    +0.125 A 
ATOM      4  N   UNL     1       0.316  -4.265  -0.480  0.00  0.00    -0.263 N 
ATOM      5  H   UNL     1       0.040  -5.054   0.013  0.00  0.00    +0.190 HD
ATOM      6  N   UNL     1       0.090  -2.932  -0.099  0.00  0.00    -0.167 NA
ATOM      7  N   UNL     1       1.470  -5.313  -2.421  0.00  0.00    -0.270 N 
ATOM      8  C   UNL     1       2.303  -5.027  -3.444  0.00  0.00    +0.219 C 
ATOM      9  O   UNL     1       2.581  -5.901  -4.237  0.00  0.00    -0.275 OA
ATOM     10  C   UNL     1       2.897  -3.659  -3.630  0.00  0.00    +0.112 C 
ATOM     11  C   UNL     1       1.884  -2.563  -3.286  0.00  0.00    +0.099 C 
ATOM     12  H   UNL     1       1.213  -6.229  -2.228  0.00  0.00    +0.156 HD
ENDROOT
BRANCH   1  15
ATOM     13  C   UNL     1      -0.018   1.461   0.010  0.00  0.00    +0.128 C 
ATOM     14  N   UNL     1       0.002  -0.004   0.002  0.00  0.00    -0.313 N 
ATOM     15  C   UNL     1       0.585  -0.664  -1.018  0.00  0.00    +0.264 C 
ATOM     16  O   UNL     1       1.095  -0.045  -1.931  0.00  0.00    -0.268 OA
ATOM     17  H   UNL     1      -0.404  -0.499   0.731  0.00  0.00    +0.149 HD
ENDBRANCH   1  15
BRANCH  11  18
ATOM     18  C   UNL     1       2.602  -1.253  -3.088  0.00  0.00    +0.114 A 
ATOM     19  C   UNL     1       2.379  -0.121  -3.784  0.00  0.00    +0.046 A 
ATOM     20  C   UNL     1       3.260   0.855  -3.279  0.00  0.00    +0.050 A 
ATOM     21  C   UNL     1       3.981   0.260  -2.292  0.00  0.00    +0.135 A 
ATOM     22  O   UNL     1       3.567  -1.018  -2.184  0.00  0.00    -0.459 OA
BRANCH  21  23
ATOM     23  C   UNL     1       5.032   0.903  -1.476  0.00  0.00    +0.019 A 
ATOM     24  C   UNL     1       5.359   2.244  -1.685  0.00  0.00    +0.011 A 
ATOM     25  C   UNL     1       6.340   2.840  -0.921  0.00  0.00    +0.002 A 
ATOM     26  C   UNL     1       7.002   2.110   0.051  0.00  0.00    +0.020 A 
ATOM     27  C   UNL     1       6.684   0.780   0.264  0.00  0.00    +0.042 A 
ATOM     28  C   UNL     1       5.698   0.174  -0.490  0.00  0.00    +0.031 A 
ATOM     29 CL   UNL     1       7.520  -0.127   1.485  0.00  0.00    -0.084 Cl
ENDBRANCH  21  23
ENDBRANCH  11  18
TORSDOF 3
