REMARK  Name = ZINC56612839
REMARK  7 active torsions:
REMARK  status: ('A' for Active; 'I' for Inactive)
REMARK    1  A    between atoms: C_1  and  C_2
REMARK    2  A    between atoms: C_2  and  N_3
REMARK    3  A    between atoms: N_3  and  C_4
REMARK    4  A    between atoms: C_4  and  C_6
REMARK    5  A    between atoms: C_4  and  C_7
REMARK    6  A    between atoms: N_18  and  C_19
REMARK    7  A    between atoms: C_19  and  C_20
REMARK                            x       y       z     vdW  Elec       q    Type
REMARK                         _______ _______ _______ _____ _____    ______ ____
ROOT
ATOM      1  N   UNL     1       0.688  -0.476  -1.203  0.00  0.00    -0.276 N 
ATOM      2  C   UNL     1      -0.013  -0.705  -2.332  0.00  0.00    +0.303 C 
ATOM      3  O   UNL     1       0.556  -1.097  -3.332  0.00  0.00    -0.253 OA
ATOM      4  N   UNL     1      -1.345  -0.498  -2.351  0.00  0.00    -0.295 N 
ATOM      5  H   UNL     1      -1.799  -0.185  -1.553  0.00  0.00    +0.151 HD
ENDROOT
BRANCH   1   7
ATOM      6  C   UNL     1      -0.019   1.526   0.010  0.00  0.00    +0.024 C 
ATOM      7  C   UNL     1       0.002  -0.004   0.002  0.00  0.00    +0.107 C 
ENDBRANCH   1   7
BRANCH   1   8
ATOM      8  C   UNL     1       2.135  -0.701  -1.182  0.00  0.00    +0.140 C 
ATOM      9  C   UNL     1       2.850   0.608  -0.840  0.00  0.00    +0.036 C 
BRANCH   8  10
ATOM     10  C   UNL     1       2.467  -1.741  -0.143  0.00  0.00    +0.126 A 
ATOM     11  C   UNL     1       3.384  -2.707  -0.290  0.00  0.00    +0.055 A 
ATOM     12  C   UNL     1       3.369  -3.479   0.958  0.00  0.00    +0.020 A 
ATOM     13  C   UNL     1       4.073  -4.587   1.428  0.00  0.00    +0.011 A 
ATOM     14  C   UNL     1       3.811  -5.076   2.678  0.00  0.00    +0.001 A 
ATOM     15  C   UNL     1       2.851  -4.477   3.480  0.00  0.00    +0.004 A 
ATOM     16  C   UNL     1       2.146  -3.380   3.033  0.00  0.00    +0.047 A 
ATOM     17  C   UNL     1       2.397  -2.867   1.766  0.00  0.00    +0.135 A 
ATOM     18  O   UNL     1       1.889  -1.831   1.068  0.00  0.00    -0.458 OA
ENDBRANCH   8  10
ENDBRANCH   1   8
BRANCH   4  19
ATOM     19  C   UNL     1      -2.107  -0.746  -3.578  0.00  0.00    +0.142 C 
BRANCH  19  20
ATOM     20  C   UNL     1      -3.562  -0.440  -3.335  0.00  0.00    -0.014 A 
ATOM     21  C   UNL     1      -4.420  -1.431  -2.876  0.00  0.00    +0.010 A 
ATOM     22  C   UNL     1      -5.748  -1.109  -2.666  0.00  0.00    +0.042 A 
ATOM     23  C   UNL     1      -6.178   0.189  -2.922  0.00  0.00    +0.099 A 
ATOM     24  N   UNL     1      -5.330   1.106  -3.360  0.00  0.00    -0.349 N 
ATOM     25  C   UNL     1      -4.056   0.829  -3.563  0.00  0.00    +0.089 A 
ATOM     26  N   UNL     1      -7.511   0.526  -2.716  0.00  0.00    -0.317 N 
ATOM     27  C   UNL     1      -8.560  -0.382  -2.229  0.00  0.00    +0.106 C 
ATOM     28  C   UNL     1      -9.877   0.420  -2.184  0.00  0.00    +0.020 C 
ATOM     29  C   UNL     1      -9.613   1.577  -3.183  0.00  0.00    +0.020 C 
ATOM     30  C   UNL     1      -8.106   1.856  -2.943  0.00  0.00    +0.106 C 
ATOM     31  H   UNL     1      -5.652   2.005  -3.531  0.00  0.00    +0.167 HD
ENDBRANCH  19  20
ENDBRANCH   4  19
TORSDOF 5
