REMARK  Name = ZINC39662874
REMARK  5 active torsions:
REMARK  status: ('A' for Active; 'I' for Inactive)
REMARK    1  A    between atoms: C_3  and  C_30
REMARK    2  A    between atoms: C_6  and  C_7
REMARK    3  A    between atoms: C_7  and  N_8
REMARK    4  A    between atoms: C_9  and  C_11
REMARK    5  A    between atoms: C_22  and  C_24
REMARK                            x       y       z     vdW  Elec       q    Type
REMARK                         _______ _______ _______ _____ _____    ______ ____
ROOT
ATOM      1  C   UNL     1      -1.938  -4.322  -0.020  0.00  0.00    +0.100 C 
ATOM      2  C   UNL     1      -1.065  -4.842  -1.183  0.00  0.00    +0.121 C 
ATOM      3  N   UNL     1      -1.676  -6.139  -1.559  0.00  0.00    -0.300 N 
ATOM      4  C   UNL     1      -3.136  -5.903  -1.456  0.00  0.00    +0.115 C 
ATOM      5  C   UNL     1      -3.297  -5.019  -0.203  0.00  0.00    -0.004 C 
ATOM      6  C   UNL     1      -4.396  -3.985  -0.425  0.00  0.00    -0.010 C 
ATOM      7  C   UNL     1      -5.745  -4.699  -0.546  0.00  0.00    -0.082 C 
ATOM      8  N   UNL     1      -6.007  -5.466   0.678  0.00  0.00    +0.379 N 
ATOM      9  C   UNL     1      -4.997  -6.519   0.835  0.00  0.00    -0.082 C 
ATOM     10  C   UNL     1      -3.616  -5.882   1.014  0.00  0.00    -0.010 C 
ATOM     11  C   UNL     1      -1.046  -7.277  -1.913  0.00  0.00    +0.219 C 
ATOM     12  O   UNL     1      -1.691  -8.264  -2.195  0.00  0.00    -0.275 OA
ATOM     13  H   UNL     1      -5.972  -4.847   1.474  0.00  0.00    -0.086 HD
ATOM     14  H   UNL     1      -6.923  -5.886   0.621  0.00  0.00    -0.086 HD
ENDROOT
BRANCH  11  15
ATOM     15  C   UNL     1       0.460  -7.322  -1.958  0.00  0.00    +0.079 C 
ATOM     16  C   UNL     1       0.973  -6.295  -2.972  0.00  0.00    +0.041 C 
ATOM     17  C   UNL     1       2.497  -6.403  -3.069  0.00  0.00    +0.160 C 
ATOM     18  O   UNL     1       2.857  -7.735  -3.441  0.00  0.00    -0.380 OA
ATOM     19  C   UNL     1       2.444  -8.734  -2.506  0.00  0.00    +0.160 C 
ATOM     20  C   UNL     1       0.918  -8.720  -2.386  0.00  0.00    +0.041 C 
ENDBRANCH  11  15
BRANCH   1  22
ATOM     21  N   UNL     1      -2.311  -2.100   1.002  0.00  0.00    -0.315 N 
ATOM     22  C   UNL     1      -2.100  -2.826  -0.114  0.00  0.00    +0.218 C 
ATOM     23  O   UNL     1      -2.039  -2.276  -1.193  0.00  0.00    -0.275 OA
ATOM     24  H   UNL     1      -2.360  -2.540   1.865  0.00  0.00    +0.149 HD
BRANCH  21  25
ATOM     25  C   UNL     1      -2.468  -0.646   0.911  0.00  0.00    +0.107 C 
BRANCH  25  31
ATOM     26  C   UNL     1      -2.983   1.429   2.203  0.00  0.00    +0.006 C 
ATOM     27  C   UNL     1      -3.210   2.006   3.602  0.00  0.00    +0.015 C 
ATOM     28  C   UNL     1      -1.958   1.787   4.453  0.00  0.00    +0.102 C 
ATOM     29  C   UNL     1      -1.670   0.288   4.560  0.00  0.00    +0.015 C 
ATOM     30  C   UNL     1      -1.443  -0.289   3.161  0.00  0.00    +0.006 C 
ATOM     31  C   UNL     1      -2.695  -0.069   2.310  0.00  0.00    +0.006 C 
BRANCH  28  32
ATOM     32  C   UNL     1      -0.784   2.479   3.809  0.00  0.00    +0.359 C 
ATOM     33  O   UNL     1      -0.965   3.457   3.104  0.00  0.00    -0.246 OA
ATOM     34  O   UNL     1       0.346   2.060   3.992  0.00  0.00    -0.246 OA
ENDBRANCH  28  32
ENDBRANCH  25  31
ENDBRANCH  21  25
ENDBRANCH   1  22
TORSDOF 5
