REMARK  Name = ZINC48569641
REMARK  6 active torsions:
REMARK  status: ('A' for Active; 'I' for Inactive)
REMARK    1  A    between atoms: C_1  and  O_2
REMARK    2  A    between atoms: O_2  and  C_3
REMARK    3  A    between atoms: C_15  and  N_16
REMARK    4  A    between atoms: C_17  and  C_19
REMARK    5  A    between atoms: N_21  and  C_22
REMARK    6  A    between atoms: C_22  and  C_23
REMARK                            x       y       z     vdW  Elec       q    Type
REMARK                         _______ _______ _______ _____ _____    ______ ____
ROOT
ATOM      1  C   UNL     1       0.600  -0.611  -1.069  0.00  0.00    +0.142 A 
ATOM      2  C   UNL     1       1.157   0.150  -2.078  0.00  0.00    +0.059 A 
ATOM      3  C   UNL     1       1.766  -0.477  -3.161  0.00  0.00    +0.031 A 
ATOM      4  C   UNL     1       2.441   0.012  -4.378  0.00  0.00    +0.028 A 
ATOM      5  C   UNL     1       2.716   1.277  -4.888  0.00  0.00    +0.012 A 
ATOM      6  C   UNL     1       3.385   1.400  -6.088  0.00  0.00    +0.001 A 
ATOM      7  C   UNL     1       3.780   0.268  -6.783  0.00  0.00    +0.004 A 
ATOM      8  C   UNL     1       3.512  -0.991  -6.287  0.00  0.00    +0.047 A 
ATOM      9  C   UNL     1       2.840  -1.135  -5.079  0.00  0.00    +0.136 A 
ATOM     10  O   UNL     1       2.456  -2.223  -4.376  0.00  0.00    -0.455 OA
ATOM     11  C   UNL     1       1.817  -1.877  -3.235  0.00  0.00    +0.138 A 
ATOM     12  C   UNL     1       1.253  -2.632  -2.216  0.00  0.00    +0.074 A 
ATOM     13  C   UNL     1       0.654  -2.005  -1.136  0.00  0.00    +0.079 A 
ENDROOT
BRANCH  13  14
ATOM     14  N   UNL     1       0.095  -2.772  -0.110  0.00  0.00    -0.275 N 
ATOM     15  C   UNL     1       0.541  -4.024   0.116  0.00  0.00    +0.303 C 
ATOM     16  O   UNL     1       1.494  -4.450  -0.504  0.00  0.00    -0.265 OA
ATOM     17  H   UNL     1      -0.614  -2.404   0.440  0.00  0.00    +0.155 HD
BRANCH  15  18
ATOM     18  C   UNL     1      -0.138  -4.888   1.127  0.00  0.00    +0.300 C 
ATOM     19  O   UNL     1      -1.091  -4.462   1.747  0.00  0.00    -0.265 OA
ATOM     20  N   UNL     1       0.308  -6.139   1.353  0.00  0.00    -0.300 N 
ATOM     21  H   UNL     1       1.070  -6.479   0.858  0.00  0.00    +0.150 HD
BRANCH  20  22
ATOM     22  C   UNL     1      -0.357  -6.987   2.346  0.00  0.00    +0.179 C 
BRANCH  22  23
ATOM     23  C   UNL     1       0.330  -8.326   2.404  0.00  0.00    +0.122 A 
ATOM     24  C   UNL     1       1.357  -8.649   3.211  0.00  0.00    +0.046 A 
ATOM     25  C   UNL     1       1.685  -9.997   2.937  0.00  0.00    +0.041 A 
ATOM     26  C   UNL     1       0.840 -10.416   1.978  0.00  0.00    +0.195 A 
ATOM     27  O   UNL     1       0.018  -9.402   1.664  0.00  0.00    -0.466 OA
ENDBRANCH  22  23
ENDBRANCH  20  22
ENDBRANCH  15  18
ENDBRANCH  13  14
BRANCH   1  29
ATOM     28  C   UNL     1      -0.015   1.425  -0.005  0.00  0.00    +0.277 C 
ATOM     29  O   UNL     1       0.004  -0.004  -0.007  0.00  0.00    -0.493 OA
ENDBRANCH   1  29
TORSDOF 5
