REMARK  Name = ZINC37928724
REMARK  3 active torsions:
REMARK  status: ('A' for Active; 'I' for Inactive)
REMARK    1  A    between atoms: C_3  and  N_18
REMARK    2  A    between atoms: C_4  and  S_8
REMARK    3  A    between atoms: S_8  and  N_11
REMARK                            x       y       z     vdW  Elec       q    Type
REMARK                         _______ _______ _______ _____ _____    ______ ____
ROOT
ATOM      1  C   UNL     1      -0.050   1.275   0.041  0.00  0.00    +0.017 A 
ATOM      2  C   UNL     1       1.122   2.000   0.137  0.00  0.00    +0.026 A 
ATOM      3  C   UNL     1       2.347   1.347   0.077  0.00  0.00    +0.051 A 
ATOM      4  C   UNL     1       2.388  -0.033  -0.079  0.00  0.00    +0.127 A 
ATOM      5  C   UNL     1       1.213  -0.751  -0.174  0.00  0.00    +0.045 A 
ATOM      6  C   UNL     1      -0.005  -0.098  -0.114  0.00  0.00    +0.020 A 
ATOM      7 BR   UNL     1      -1.613  -1.086  -0.245  0.00  0.00    -0.050 Br
ENDROOT
BRANCH   4   8
ATOM      8  S   UNL     1       3.939  -0.865  -0.156  0.00  0.00    +0.063 S 
ATOM      9  O   UNL     1       4.720  -0.370   0.923  0.00  0.00    -0.153 OA
ATOM     10  O   UNL     1       3.651  -2.247  -0.317  0.00  0.00    -0.153 OA
BRANCH   8  11
ATOM     11  N   UNL     1       4.691  -0.373  -1.548  0.00  0.00    -0.177 NA
ATOM     12  C   UNL     1       4.348  -1.030  -2.789  0.00  0.00    +0.109 C 
ATOM     13  C   UNL     1       5.271  -2.255  -3.001  0.00  0.00    +0.017 C 
ATOM     14  C   UNL     1       6.637  -1.815  -3.324  0.00  0.00    +0.001 C 
ATOM     15  C   UNL     1       7.318  -1.016  -2.217  0.00  0.00    +0.001 C 
ATOM     16  C   UNL     1       6.924   0.436  -2.334  0.00  0.00    +0.017 C 
ATOM     17  C   UNL     1       5.678   0.722  -1.470  0.00  0.00    +0.109 C 
ENDBRANCH   8  11
ENDBRANCH   4   8
BRANCH   3  18
ATOM     18  N   UNL     1       3.534   2.077   0.174  0.00  0.00    -0.356 N 
ATOM     19  H   UNL     1       3.509   3.046   0.176  0.00  0.00    +0.142 HD
ATOM     20  H   UNL     1       4.384   1.614   0.238  0.00  0.00    +0.142 HD
ENDBRANCH   3  18
TORSDOF 3
