REMARK  Name = ZINC16593984
REMARK  10 active torsions:
REMARK  status: ('A' for Active; 'I' for Inactive)
REMARK    1  A    between atoms: C_1  and  C_2
REMARK    2  A    between atoms: N_5  and  C_8
REMARK    3  A    between atoms: C_11  and  C_17
REMARK    4  A    between atoms: C_13  and  N_14
REMARK    5  A    between atoms: N_19  and  N_20
REMARK    6  A    between atoms: C_21  and  C_23
REMARK    7  A    between atoms: C_27  and  S_29
REMARK    8  A    between atoms: S_29  and  N_32
REMARK    9  A    between atoms: N_32  and  C_33
REMARK   10  A    between atoms: N_32  and  C_34
REMARK                            x       y       z     vdW  Elec       q    Type
REMARK                         _______ _______ _______ _____ _____    ______ ____
ROOT
ATOM      1  C   UNL     1      -2.529   3.847   0.027  0.00  0.00    +0.260 C 
ATOM      2  O   UNL     1      -2.555   5.060  -0.055  0.00  0.00    -0.269 OA
ATOM      3  N   UNL     1      -3.681   3.154   0.124  0.00  0.00    -0.230 N 
ATOM      4  H   UNL     1      -3.660   2.186   0.190  0.00  0.00    +0.173 HD
ENDROOT
BRANCH   1   8
ATOM      5  C   UNL     1       1.190   1.797   0.010  0.00  0.00    +0.060 A 
ATOM      6  C   UNL     1       0.001   1.079   0.110  0.00  0.00    +0.026 A 
ATOM      7  C   UNL     1      -1.206   1.740   0.110  0.00  0.00    +0.015 A 
ATOM      8  C   UNL     1      -1.237   3.135   0.021  0.00  0.00    +0.040 A 
ATOM      9  C   UNL     1      -0.042   3.853  -0.079  0.00  0.00    +0.047 A 
ATOM     10  C   UNL     1       1.161   3.186  -0.084  0.00  0.00    +0.148 A 
BRANCH   5  15
ATOM     11  C   UNL     1       5.598  -1.718   0.027  0.00  0.00    +0.007 C 
ATOM     12  C   UNL     1       4.175  -1.157   0.041  0.00  0.00    -0.011 C 
ATOM     13  C   UNL     1       3.935  -0.338  -1.230  0.00  0.00    +0.022 C 
ATOM     14  C   UNL     1       2.531   0.270  -1.182  0.00  0.00    +0.105 C 
ATOM     15  N   UNL     1       2.407   1.126   0.005  0.00  0.00    -0.328 N 
ATOM     16  C   UNL     1       2.587   0.351   1.239  0.00  0.00    +0.105 C 
ATOM     17  C   UNL     1       3.992  -0.254   1.264  0.00  0.00    +0.022 C 
ENDBRANCH   5  15
BRANCH  10  18
ATOM     18  N   UNL     1       2.428   3.946  -0.190  0.00  0.00    +0.058 N 
ATOM     19  O   UNL     1       2.410   5.163  -0.173  0.00  0.00    -0.126 OA
ATOM     20  O   UNL     1       3.486   3.353  -0.294  0.00  0.00    -0.126 OA
ENDBRANCH  10  18
ENDBRANCH   1   8
BRANCH   3  21
ATOM     21  N   UNL     1      -4.907   3.830   0.130  0.00  0.00    -0.230 N 
ATOM     22  C   UNL     1      -6.059   3.136   0.227  0.00  0.00    +0.260 C 
ATOM     23  O   UNL     1      -6.033   1.924   0.309  0.00  0.00    -0.269 OA
ATOM     24  H   UNL     1      -4.928   4.797   0.064  0.00  0.00    +0.173 HD
BRANCH  22  25
ATOM     25  C   UNL     1      -7.354   3.850   0.233  0.00  0.00    +0.040 A 
ATOM     26  C   UNL     1      -7.387   5.242   0.144  0.00  0.00    +0.013 A 
ATOM     27  C   UNL     1      -8.598   5.902   0.147  0.00  0.00    +0.003 A 
ATOM     28  C   UNL     1      -9.779   5.187   0.246  0.00  0.00    +0.028 A 
ATOM     29  C   UNL     1      -9.753   3.807   0.339  0.00  0.00    +0.106 A 
ATOM     30  C   UNL     1      -8.548   3.134   0.333  0.00  0.00    +0.041 A 
BRANCH  29  31
ATOM     31  S   UNL     1     -11.262   2.905   0.465  0.00  0.00    +0.060 S 
ATOM     32  O   UNL     1     -12.274   3.727  -0.101  0.00  0.00    -0.153 OA
ATOM     33  O   UNL     1     -10.992   1.593  -0.010  0.00  0.00    -0.153 OA
BRANCH  31  34
ATOM     34  N   UNL     1     -11.613   2.763   2.077  0.00  0.00    -0.183 NA
ATOM     35  C   UNL     1     -12.422   3.786   2.743  0.00  0.00    +0.131 C 
ATOM     36  C   UNL     1     -11.116   1.613   2.836  0.00  0.00    +0.131 C 
ENDBRANCH  31  34
ENDBRANCH  29  31
ENDBRANCH  22  25
ENDBRANCH   3  21
TORSDOF 7
