REMARK  Name = ZINC20247997
REMARK  7 active torsions:
REMARK  status: ('A' for Active; 'I' for Inactive)
REMARK    1  A    between atoms: C_1  and  O_2
REMARK    2  A    between atoms: O_2  and  C_3
REMARK    3  A    between atoms: C_6  and  N_9
REMARK    4  A    between atoms: N_11  and  C_21
REMARK    5  A    between atoms: C_14  and  C_17
REMARK    6  A    between atoms: C_17  and  C_18
REMARK    7  A    between atoms: C_21  and  C_22
REMARK                            x       y       z     vdW  Elec       q    Type
REMARK                         _______ _______ _______ _____ _____    ______ ____
ROOT
ATOM      1  N   UNL     1      -3.023  -0.764  -3.579  0.00  0.00    -0.226 NA
ATOM      2  C   UNL     1      -2.171  -0.015  -2.920  0.00  0.00    +0.164 C 
ATOM      3  N   UNL     1      -0.873   0.301  -3.263  0.00  0.00    -0.245 N 
ATOM      4  C   UNL     1      -0.110   1.073  -2.507  0.00  0.00    +0.235 C 
ATOM      5  O   UNL     1       1.030   1.348  -2.813  0.00  0.00    -0.274 OA
ATOM      6  C   UNL     1      -0.753   1.593  -1.232  0.00  0.00    +0.149 C 
ATOM      7  S   UNL     1      -2.419   0.834  -1.368  0.00  0.00    -0.077 S 
ENDROOT
BRANCH   1  11
ATOM      8  C   UNL     1      -6.832  -1.384  -2.072  0.00  0.00    +0.120 A 
ATOM      9  C   UNL     1      -6.660  -1.082  -3.416  0.00  0.00    +0.048 A 
ATOM     10  C   UNL     1      -5.394  -0.875  -3.922  0.00  0.00    +0.031 A 
ATOM     11  C   UNL     1      -4.284  -0.969  -3.080  0.00  0.00    +0.067 A 
ATOM     12  C   UNL     1      -4.461  -1.279  -1.731  0.00  0.00    +0.031 A 
ATOM     13  C   UNL     1      -5.731  -1.480  -1.232  0.00  0.00    +0.048 A 
BRANCH   8  15
ATOM     14  C   UNL     1      -8.187  -1.895  -0.186  0.00  0.00    +0.277 C 
ATOM     15  O   UNL     1      -8.082  -1.588  -1.578  0.00  0.00    -0.495 OA
ENDBRANCH   8  15
ENDBRANCH   1  11
BRANCH   6  16
ATOM     16  C   UNL     1      -0.013   1.086   0.008  0.00  0.00    +0.119 C 
BRANCH  16  17
ATOM     17  C   UNL     1      -0.718   1.572   1.248  0.00  0.00    +0.212 C 
ATOM     18  O   UNL     1      -1.714   2.256   1.150  0.00  0.00    -0.276 OA
ATOM     19  N   UNL     1      -0.242   1.246   2.466  0.00  0.00    -0.329 N 
ATOM     20  H   UNL     1      -0.756   1.601   3.371  0.00  0.00    +0.145 HD
ATOM     21  H   UNL     1       0.662   0.625   2.555  0.00  0.00    +0.145 HD
ENDBRANCH  16  17
ENDBRANCH   6  16
BRANCH   3  22
ATOM     22  C   UNL     1      -0.320  -0.237  -4.508  0.00  0.00    +0.150 C 
BRANCH  22  23
ATOM     23  C   UNL     1      -0.595   0.724  -5.636  0.00  0.00    -0.026 A 
ATOM     24  C   UNL     1       0.317   1.720  -5.932  0.00  0.00    +0.009 A 
ATOM     25  C   UNL     1       0.069   2.604  -6.965  0.00  0.00    +0.050 A 
ATOM     26  C   UNL     1      -1.096   2.494  -7.708  0.00  0.00    +0.166 A 
ATOM     27  C   UNL     1      -2.014   1.490  -7.410  0.00  0.00    +0.167 A 
ATOM     28  C   UNL     1      -1.756   0.604  -6.377  0.00  0.00    +0.054 A 
ATOM     29  O   UNL     1      -3.066   1.591  -8.275  0.00  0.00    -0.453 OA
ATOM     30  C   UNL     1      -2.592   2.406  -9.363  0.00  0.00    +0.466 C 
ATOM     31  O   UNL     1      -1.572   3.223  -8.759  0.00  0.00    -0.453 OA
ENDBRANCH  22  23
ENDBRANCH   3  22
TORSDOF 6
