REMARK  Name = ZINC42194386
REMARK  6 active torsions:
REMARK  status: ('A' for Active; 'I' for Inactive)
REMARK    1  A    between atoms: C_1  and  C_2
REMARK    2  A    between atoms: C_2  and  C_4
REMARK    3  A    between atoms: C_2  and  S_11
REMARK    4  A    between atoms: N_9  and  C_10
REMARK    5  A    between atoms: S_11  and  C_13
REMARK    6  A    between atoms: C_18  and  N_19
REMARK                            x       y       z     vdW  Elec       q    Type
REMARK                         _______ _______ _______ _____ _____    ______ ____
ROOT
ATOM      1  C   UNL     1       0.067   1.443  -0.243  0.00  0.00    +0.032 C 
ATOM      2  C   UNL     1       0.078  -0.084  -0.145  0.00  0.00    +0.166 C 
ENDROOT
BRANCH   2   3
ATOM      3  C   UNL     1      -1.338  -0.599  -0.179  0.00  0.00    +0.236 C 
ATOM      4  O   UNL     1      -1.926  -0.825   0.857  0.00  0.00    -0.274 OA
ATOM      5  N   UNL     1      -1.950  -0.809  -1.361  0.00  0.00    -0.239 N 
ATOM      6  C   UNL     1      -3.216  -1.270  -1.392  0.00  0.00    +0.306 C 
ATOM      7  O   UNL     1      -3.806  -1.497  -0.354  0.00  0.00    -0.252 OA
ATOM      8  N   UNL     1      -3.829  -1.479  -2.574  0.00  0.00    -0.302 N 
ATOM      9  C   UNL     1      -5.205  -1.980  -2.607  0.00  0.00    +0.129 C 
ATOM     10  H   UNL     1      -1.480  -0.627  -2.190  0.00  0.00    +0.159 HD
ATOM     11  H   UNL     1      -3.358  -1.298  -3.403  0.00  0.00    +0.150 HD
ENDBRANCH   2   3
BRANCH   2  12
ATOM     12  S   UNL     1       0.866  -0.584   1.410  0.00  0.00    +0.067 S 
ATOM     13  O   UNL     1       1.177  -1.969   1.359  0.00  0.00    -0.251 OA
BRANCH  12  14
ATOM     14  C   UNL     1       2.439   0.209   1.365  0.00  0.00    +0.060 A 
ATOM     15  C   UNL     1       3.542  -0.470   0.884  0.00  0.00    +0.019 A 
ATOM     16  C   UNL     1       4.777   0.150   0.849  0.00  0.00    +0.001 A 
ATOM     17  C   UNL     1       4.913   1.453   1.294  0.00  0.00    +0.002 A 
ATOM     18  C   UNL     1       3.814   2.138   1.775  0.00  0.00    +0.024 A 
ATOM     19  C   UNL     1       2.571   1.519   1.807  0.00  0.00    +0.041 A 
BRANCH  19  20
ATOM     20  N   UNL     1       1.457   2.210   2.288  0.00  0.00    -0.357 N 
ATOM     21  H   UNL     1       0.611   1.749   2.401  0.00  0.00    +0.142 HD
ATOM     22  H   UNL     1       1.529   3.152   2.510  0.00  0.00    +0.142 HD
ENDBRANCH  19  20
ENDBRANCH  12  14
ENDBRANCH   2  12
TORSDOF 4
