REMARK  Name = ZINC28703812
REMARK  6 active torsions:
REMARK  status: ('A' for Active; 'I' for Inactive)
REMARK    1  A    between atoms: C_1  and  C_2
REMARK    2  A    between atoms: C_6  and  N_8
REMARK    3  A    between atoms: N_8  and  C_9
REMARK    4  A    between atoms: N_12  and  C_13
REMARK    5  A    between atoms: C_16  and  C_19
REMARK    6  A    between atoms: C_24  and  N_28
REMARK                            x       y       z     vdW  Elec       q    Type
REMARK                         _______ _______ _______ _____ _____    ______ ____
ROOT
ATOM      1  C   UNL     1      -0.464  -6.256   2.584  0.00  0.00    +0.035 A 
ATOM      2  C   UNL     1       0.015  -6.990   1.506  0.00  0.00    +0.024 A 
ATOM      3  C   UNL     1       0.068  -8.366   1.576  0.00  0.00    +0.010 A 
ATOM      4  C   UNL     1      -0.361  -9.021   2.730  0.00  0.00    -0.017 A 
ATOM      5  C   UNL     1      -0.841  -8.282   3.811  0.00  0.00    +0.010 A 
ATOM      6  C   UNL     1      -0.887  -6.906   3.737  0.00  0.00    +0.024 A 
ENDROOT
BRANCH   4   7
ATOM      7  C   UNL     1      -0.306 -10.501   2.808  0.00  0.00    +0.000 A 
ATOM      8  C   UNL     1      -1.425 -11.219   3.058  0.00  0.00    +0.055 A 
ATOM      9  S   UNL     1      -0.848 -12.906   3.051  0.00  0.00    -0.096 S 
ATOM     10  C   UNL     1       0.867 -12.612   2.715  0.00  0.00    +0.024 A 
ATOM     11  C   UNL     1       0.956 -11.209   2.610  0.00  0.00    +0.035 A 
ATOM     12  C   UNL     1       2.247 -10.692   2.333  0.00  0.00    +0.102 A 
ATOM     13  N   UNL     1       3.278 -11.498   2.185  0.00  0.00    -0.349 N 
ATOM     14  C   UNL     1       3.187 -12.815   2.281  0.00  0.00    +0.085 A 
ATOM     15  C   UNL     1       1.985 -13.410   2.555  0.00  0.00    +0.033 A 
ATOM     16  H   UNL     1       4.146 -11.108   1.997  0.00  0.00    +0.167 HD
BRANCH  12  17
ATOM     17  N   UNL     1       2.427  -9.320   2.217  0.00  0.00    -0.344 N 
ATOM     18  H   UNL     1       1.812  -8.711   2.656  0.00  0.00    +0.144 HD
ATOM     19  H   UNL     1       3.167  -8.970   1.698  0.00  0.00    +0.144 HD
ENDBRANCH  12  17
ENDBRANCH   4   7
BRANCH   1  24
ATOM     20  N   UNL     1      -0.785  -2.913   1.249  0.00  0.00    -0.258 N 
ATOM     21  C   UNL     1      -0.288  -2.114   2.372  0.00  0.00    +0.140 C 
ATOM     22  C   UNL     1      -0.827  -4.257   1.345  0.00  0.00    +0.310 C 
ATOM     23  O   UNL     1      -1.146  -4.926   0.381  0.00  0.00    -0.252 OA
ATOM     24  N   UNL     1      -0.516  -4.859   2.510  0.00  0.00    -0.269 N 
ATOM     25  H   UNL     1      -0.328  -4.325   3.298  0.00  0.00    +0.156 HD
BRANCH  20  31
ATOM     26  C   UNL     1      -4.027  -0.025  -1.056  0.00  0.00    +0.044 C 
ATOM     27  C   UNL     1      -2.784  -0.876  -1.069  0.00  0.00    -0.049 A 
ATOM     28  C   UNL     1      -2.067  -1.034  -2.241  0.00  0.00    +0.003 A 
ATOM     29  C   UNL     1      -0.925  -1.814  -2.257  0.00  0.00    +0.002 A 
ATOM     30  C   UNL     1      -0.497  -2.438  -1.101  0.00  0.00    +0.023 A 
ATOM     31  C   UNL     1      -1.215  -2.282   0.077  0.00  0.00    +0.038 A 
ATOM     32  C   UNL     1      -2.358  -1.494   0.091  0.00  0.00    +0.027 A 
ENDBRANCH  20  31
ENDBRANCH   1  24
TORSDOF 4
