REMARK  Name = ZINC16688174
REMARK  10 active torsions:
REMARK  status: ('A' for Active; 'I' for Inactive)
REMARK    1  A    between atoms: C_1  and  C_2
REMARK    2  A    between atoms: C_2  and  O_3
REMARK    3  A    between atoms: O_3  and  C_4
REMARK    4  A    between atoms: C_6  and  C_15
REMARK    5  A    between atoms: C_9  and  O_10
REMARK    6  A    between atoms: O_10  and  C_11
REMARK    7  A    between atoms: C_11  and  C_12
REMARK    8  A    between atoms: C_17  and  C_29
REMARK    9  A    between atoms: C_18  and  C_23
REMARK   10  A    between atoms: C_29  and  C_31
REMARK                            x       y       z     vdW  Elec       q    Type
REMARK                         _______ _______ _______ _____ _____    ______ ____
ROOT
ATOM      1  C   UNL     1      -2.970   3.937   0.206  0.00  0.00    +0.139 C 
ATOM      2  C   UNL     1      -3.402   3.863  -1.245  0.00  0.00    +0.041 C 
ATOM      3  C   UNL     1      -3.256   5.002  -2.012  0.00  0.00    +0.048 C 
ATOM      4  N   UNL     1      -2.738   6.149  -1.466  0.00  0.00    -0.296 N 
ATOM      5  C   UNL     1      -2.346   6.249  -0.190  0.00  0.00    +0.135 C 
ATOM      6  S   UNL     1      -1.716   7.742   0.362  0.00  0.00    -0.019 S 
ATOM      7  N   UNL     1      -2.429   5.222   0.677  0.00  0.00    -0.315 N 
ATOM      8  H   UNL     1      -2.650   6.929  -2.035  0.00  0.00    +0.154 HD
ATOM      9  H   UNL     1      -2.137   5.328   1.596  0.00  0.00    +0.149 HD
ENDROOT
BRANCH   1  12
ATOM     10  C   UNL     1       0.384   2.220   0.478  0.00  0.00    +0.162 A 
ATOM     11  C   UNL     1      -0.583   3.191   0.271  0.00  0.00    +0.056 A 
ATOM     12  C   UNL     1      -1.920   2.880   0.432  0.00  0.00    -0.005 A 
ATOM     13  C   UNL     1      -2.296   1.599   0.795  0.00  0.00    +0.027 A 
ATOM     14  C   UNL     1      -1.336   0.628   1.009  0.00  0.00    +0.065 A 
ATOM     15  C   UNL     1       0.006   0.933   0.849  0.00  0.00    +0.164 A 
ATOM     16 BR   UNL     1      -4.128   1.178   1.006  0.00  0.00    -0.050 Br
BRANCH  10  17
ATOM     17  O   UNL     1       1.700   2.525   0.320  0.00  0.00    -0.489 OA
BRANCH  17  19
ATOM     18  C   UNL     1       3.532   4.017  -0.190  0.00  0.00    +0.048 C 
ATOM     19  C   UNL     1       2.015   3.866  -0.061  0.00  0.00    +0.226 C 
ENDBRANCH  17  19
ENDBRANCH  10  17
BRANCH  15  20
ATOM     20  O   UNL     1       0.952  -0.022   1.054  0.00  0.00    -0.477 OA
BRANCH  20  21
ATOM     21  C   UNL     1       0.491  -1.321   1.433  0.00  0.00    +0.354 C 
BRANCH  21  22
ATOM     22  C   UNL     1       1.671  -2.240   1.614  0.00  0.00    +0.393 C 
ATOM     23  O   UNL     1       2.792  -1.825   1.437  0.00  0.00    -0.243 OA
ATOM     24  O   UNL     1       1.477  -3.519   1.972  0.00  0.00    -0.243 OA
ENDBRANCH  21  22
ENDBRANCH  20  21
ENDBRANCH  15  20
ENDBRANCH   1  12
BRANCH   3  25
ATOM     25  C   UNL     1      -3.660   4.986  -3.431  0.00  0.00    -0.003 A 
ATOM     26  C   UNL     1      -4.476   5.999  -3.941  0.00  0.00    +0.010 A 
ATOM     27  C   UNL     1      -4.844   5.981  -5.270  0.00  0.00    +0.001 A 
ATOM     28  C   UNL     1      -4.418   4.955  -6.095  0.00  0.00    +0.000 A 
ATOM     29  C   UNL     1      -3.615   3.945  -5.596  0.00  0.00    +0.001 A 
ATOM     30  C   UNL     1      -3.233   3.954  -4.271  0.00  0.00    +0.010 A 
ENDBRANCH   3  25
BRANCH   2  31
ATOM     31  C   UNL     1      -3.928   2.686  -1.786  0.00  0.00    +0.160 C 
ATOM     32  O   UNL     1      -3.187   1.770  -2.086  0.00  0.00    -0.293 OA
ATOM     33  C   UNL     1      -5.414   2.552  -1.998  0.00  0.00    +0.091 C 
ENDBRANCH   2  31
TORSDOF 8
