REMARK  Name = ZINC51605243
REMARK  11 active torsions:
REMARK  status: ('A' for Active; 'I' for Inactive)
REMARK    1  A    between atoms: C_1  and  C_2
REMARK    2  A    between atoms: N_7  and  C_16
REMARK    3  A    between atoms: C_8  and  C_15
REMARK    4  A    between atoms: C_10  and  C_12
REMARK    5  A    between atoms: C_16  and  C_18
REMARK    6  A    between atoms: C_16  and  C_22
REMARK    7  A    between atoms: C_18  and  N_19
REMARK    8  A    between atoms: N_19  and  C_20
REMARK    9  A    between atoms: N_19  and  C_21
REMARK   10  A    between atoms: C_22  and  C_23
REMARK   11  A    between atoms: C_22  and  C_24
REMARK                            x       y       z     vdW  Elec       q    Type
REMARK                         _______ _______ _______ _____ _____    ______ ____
ROOT
ATOM      1  C   UNL     1       0.197   1.654   1.060  0.00  0.00    +0.009 C 
ATOM      2  C   UNL     1       0.294   0.171   0.698  0.00  0.00    +0.010 C 
ATOM      3  C   UNL     1       0.574   0.023  -0.800  0.00  0.00    +0.100 C 
ATOM      4  C   UNL     1       0.944  -1.398  -1.113  0.00  0.00    +0.216 C 
ATOM      5  O   UNL     1       0.881  -1.767  -2.267  0.00  0.00    -0.276 OA
ATOM      6  N   UNL     1       1.338  -2.276  -0.190  0.00  0.00    -0.296 N 
ATOM      7  C   UNL     1       1.414  -1.985   1.236  0.00  0.00    +0.087 C 
ATOM      8  C   UNL     1       1.449  -0.475   1.473  0.00  0.00    +0.125 C 
ATOM      9  C   UNL     1       2.684  -2.613   1.813  0.00  0.00    +0.029 C 
ENDROOT
BRANCH   8  10
ATOM     10  C   UNL     1       1.292  -0.190   2.944  0.00  0.00    +0.361 C 
ATOM     11  O   UNL     1       0.259  -0.491   3.517  0.00  0.00    -0.246 OA
ATOM     12  O   UNL     1       2.198   0.343   3.562  0.00  0.00    -0.246 OA
ENDBRANCH   8  10
BRANCH   6  13
ATOM     13  C   UNL     1       1.719  -3.619  -0.638  0.00  0.00    +0.062 C 
BRANCH  13  14
ATOM     14  C   UNL     1       3.057  -3.550  -1.376  0.00  0.00    +0.002 C 
ATOM     15  C   UNL     1       3.537  -4.967  -1.695  0.00  0.00    +0.009 C 
ATOM     16  C   UNL     1       2.883  -2.765  -2.678  0.00  0.00    +0.009 C 
ENDBRANCH  13  14
BRANCH  13  17
ATOM     17  C   UNL     1       0.644  -4.165  -1.581  0.00  0.00    -0.057 C 
BRANCH  17  18
ATOM     18  N   UNL     1      -0.606  -4.365  -0.836  0.00  0.00    +0.377 N 
ATOM     19  C   UNL     1      -1.128  -3.064  -0.397  0.00  0.00    -0.097 C 
ATOM     20  C   UNL     1      -1.593  -5.022  -1.702  0.00  0.00    -0.097 C 
ATOM     21  H   UNL     1      -0.427  -4.945  -0.029  0.00  0.00    -0.083 HD
ENDBRANCH  17  18
ENDBRANCH  13  17
ENDBRANCH   6  13
TORSDOF 5
