REMARK  Name = ZINC05942288
REMARK  7 active torsions:
REMARK  status: ('A' for Active; 'I' for Inactive)
REMARK    1  A    between atoms: C_4  and  C_7
REMARK    2  A    between atoms: C_14  and  N_31
REMARK    3  A    between atoms: C_15  and  C_29
REMARK    4  A    between atoms: C_16  and  C_18
REMARK    5  A    between atoms: C_21  and  O_24
REMARK    6  A    between atoms: O_24  and  C_25
REMARK    7  A    between atoms: C_25  and  C_26
REMARK                            x       y       z     vdW  Elec       q    Type
REMARK                         _______ _______ _______ _____ _____    ______ ____
ROOT
ATOM      1  C   UNL     1       3.991  -0.942  -0.186  0.00  0.00    +0.100 A 
ATOM      2  C   UNL     1       4.136  -2.037   0.671  0.00  0.00    +0.054 A 
ATOM      3  C   UNL     1       5.407  -2.515   0.535  0.00  0.00    +0.223 A 
ATOM      4  N   UNL     1       6.039  -1.747  -0.377  0.00  0.00    -0.246 N 
ATOM      5  H   UNL     1       6.955  -1.855  -0.677  0.00  0.00    +0.192 HD
ATOM      6  N   UNL     1       5.135  -0.770  -0.822  0.00  0.00    -0.171 NA
ATOM      7  O   UNL     1       5.869  -3.579   1.238  0.00  0.00    -0.423 OA
ATOM      8  C   UNL     1       5.133  -4.002   2.286  0.00  0.00    +0.200 C 
ATOM      9  C   UNL     1       3.861  -3.610   2.519  0.00  0.00    +0.098 C 
ATOM     10  C   UNL     1       3.131  -2.652   1.611  0.00  0.00    +0.102 C 
ENDROOT
BRANCH   1  14
ATOM     11  C   UNL     1       0.480   1.408  -0.673  0.00  0.00    +0.000 A 
ATOM     12  C   UNL     1       0.876   1.014   0.593  0.00  0.00    +0.001 A 
ATOM     13  C   UNL     1       2.015   0.252   0.757  0.00  0.00    +0.010 A 
ATOM     14  C   UNL     1       2.766  -0.122  -0.356  0.00  0.00    +0.003 A 
ATOM     15  C   UNL     1       2.362   0.277  -1.628  0.00  0.00    +0.010 A 
ATOM     16  C   UNL     1       1.222   1.039  -1.781  0.00  0.00    +0.001 A 
ENDBRANCH   1  14
BRANCH  10  17
ATOM     17  C   UNL     1       2.086  -3.397   0.821  0.00  0.00    -0.034 A 
ATOM     18  C   UNL     1       2.466  -4.391  -0.061  0.00  0.00    +0.008 A 
ATOM     19  C   UNL     1       1.510  -5.075  -0.787  0.00  0.00    +0.046 A 
ATOM     20  C   UNL     1       0.167  -4.763  -0.630  0.00  0.00    +0.121 A 
ATOM     21  C   UNL     1      -0.212  -3.764   0.256  0.00  0.00    +0.046 A 
ATOM     22  C   UNL     1       0.748  -3.087   0.983  0.00  0.00    +0.008 A 
BRANCH  20  23
ATOM     23  O   UNL     1      -0.775  -5.434  -1.343  0.00  0.00    -0.483 OA
BRANCH  23  24
ATOM     24  C   UNL     1      -2.138  -5.059  -1.131  0.00  0.00    +0.324 C 
BRANCH  24  25
ATOM     25  C   UNL     1      -3.033  -5.904  -2.001  0.00  0.00    +0.248 C 
ATOM     26  O   UNL     1      -2.551  -6.745  -2.730  0.00  0.00    -0.272 OA
ATOM     27  N   UNL     1      -4.368  -5.726  -1.967  0.00  0.00    -0.327 N 
ATOM     28  H   UNL     1      -4.754  -5.054  -1.383  0.00  0.00    +0.145 HD
ATOM     29  H   UNL     1      -4.944  -6.270  -2.527  0.00  0.00    +0.145 HD
ENDBRANCH  24  25
ENDBRANCH  23  24
ENDBRANCH  20  23
ENDBRANCH  10  17
BRANCH   8  30
ATOM     30  N   UNL     1       5.711  -4.881   3.169  0.00  0.00    -0.328 N 
ATOM     31  H   UNL     1       6.623  -5.180   3.028  0.00  0.00    +0.145 HD
ATOM     32  H   UNL     1       5.207  -5.202   3.933  0.00  0.00    +0.145 HD
ENDBRANCH   8  30
BRANCH   9  33
ATOM     33  C   UNL     1       3.181  -4.123   3.670  0.00  0.00    +0.101 C 
ATOM     34  N   UNL     1       2.641  -4.530   4.583  0.00  0.00    -0.191 NA
ENDBRANCH   9  33
TORSDOF 7
