REMARK  Name = ZINC64898776
REMARK  7 active torsions:
REMARK  status: ('A' for Active; 'I' for Inactive)
REMARK    1  A    between atoms: C_1  and  O_2
REMARK    2  A    between atoms: O_2  and  C_3
REMARK    3  A    between atoms: C_3  and  C_4
REMARK    4  A    between atoms: C_4  and  N_5
REMARK    5  A    between atoms: N_8  and  N_9
REMARK    6  A    between atoms: C_10  and  C_12
REMARK    7  A    between atoms: C_14  and  C_17
REMARK                            x       y       z     vdW  Elec       q    Type
REMARK                         _______ _______ _______ _____ _____    ______ ____
ROOT
ATOM      1  N   UNL     1      -3.371  -3.365  -1.267  0.00  0.00    -0.228 N 
ATOM      2  C   UNL     1      -4.649  -3.788  -1.339  0.00  0.00    +0.282 C 
ATOM      3  O   UNL     1      -4.900  -4.975  -1.281  0.00  0.00    -0.267 OA
ATOM      4  H   UNL     1      -3.170  -2.418  -1.314  0.00  0.00    +0.173 HD
ENDROOT
BRANCH   1   8
ATOM      5  N   UNL     1      -0.776  -2.556  -1.119  0.00  0.00    -0.296 N 
ATOM      6  C   UNL     1      -1.055  -3.873  -1.054  0.00  0.00    +0.316 C 
ATOM      7  O   UNL     1      -0.154  -4.680  -0.932  0.00  0.00    -0.251 OA
ATOM      8  N   UNL     1      -2.333  -4.295  -1.126  0.00  0.00    -0.218 N 
ATOM      9  H   UNL     1      -1.495  -1.912  -1.217  0.00  0.00    +0.150 HD
ATOM     10  H   UNL     1      -2.534  -5.243  -1.079  0.00  0.00    +0.174 HD
BRANCH   5  11
ATOM     11  C   UNL     1       0.613  -2.097  -1.041  0.00  0.00    +0.134 C 
BRANCH  11  12
ATOM     12  C   UNL     1       0.652  -0.570  -1.138  0.00  0.00    +0.178 C 
BRANCH  12  14
ATOM     13  C   UNL     1      -0.017   1.425   0.010  0.00  0.00    +0.194 C 
ATOM     14  O   UNL     1       0.002  -0.004   0.002  0.00  0.00    -0.381 OA
ENDBRANCH  12  14
ENDBRANCH  11  12
ENDBRANCH   5  11
ENDBRANCH   1   8
BRANCH   2  15
ATOM     15  C   UNL     1      -5.748  -2.803  -1.489  0.00  0.00    +0.170 A 
ATOM     16  C   UNL     1      -7.123  -3.103  -1.570  0.00  0.00    +0.086 A 
ATOM     17  C   UNL     1      -7.801  -1.927  -1.702  0.00  0.00    +0.175 A 
ATOM     18  O   UNL     1      -6.899  -0.927  -1.704  0.00  0.00    -0.353 OA
ATOM     19  N   UNL     1      -5.611  -1.499  -1.563  0.00  0.00    -0.073 NA
BRANCH  17  20
ATOM     20  C   UNL     1      -9.259  -1.777  -1.821  0.00  0.00    +0.059 A 
ATOM     21  C   UNL     1     -10.008  -0.623  -1.962  0.00  0.00    +0.021 A 
ATOM     22  C   UNL     1     -11.375  -0.738  -2.055  0.00  0.00    +0.028 A 
ATOM     23  C   UNL     1     -11.944  -1.972  -2.006  0.00  0.00    +0.079 A 
ATOM     24  S   UNL     1     -10.523  -3.038  -1.829  0.00  0.00    -0.074 S 
ATOM     25 CL   UNL     1     -13.623  -2.402  -2.099  0.00  0.00    -0.076 Cl
ENDBRANCH  17  20
ENDBRANCH   2  15
TORSDOF 6
