REMARK  Name = ZINC22590469
REMARK  5 active torsions:
REMARK  status: ('A' for Active; 'I' for Inactive)
REMARK    1  A    between atoms: C_1  and  C_2
REMARK    2  A    between atoms: C_2  and  C_18
REMARK    3  A    between atoms: N_3  and  N_4
REMARK    4  A    between atoms: C_5  and  C_7
REMARK    5  A    between atoms: C_20  and  N_23
REMARK                            x       y       z     vdW  Elec       q    Type
REMARK                         _______ _______ _______ _____ _____    ______ ____
ROOT
ATOM      1  N   UNL     1      -2.222   8.132   0.364  0.00  0.00    -0.204 N 
ATOM      2  C   UNL     1      -1.210   7.309   0.025  0.00  0.00    +0.276 C 
ATOM      3  O   UNL     1      -0.260   7.740  -0.585  0.00  0.00    -0.270 OA
ATOM      4  H   UNL     1      -3.087   7.740   0.919  0.00  0.00    +0.177 HD
ENDROOT
BRANCH   2   5
ATOM      5  C   UNL     1      -1.263   5.852   0.407  0.00  0.00    +0.297 C 
ATOM      6  C   UNL     1      -2.424   5.167  -0.326  0.00  0.00    +0.283 C 
ATOM      7  O   UNL     1      -2.437   3.785   0.048  0.00  0.00    -0.484 OA
ATOM      8  C   UNL     1      -1.241   3.136   0.030  0.00  0.00    +0.162 A 
ATOM      9  C   UNL     1      -1.219   1.749   0.017  0.00  0.00    +0.049 A 
ATOM     10  C   UNL     1      -0.013   1.076   0.008  0.00  0.00    +0.004 A 
ATOM     11  C   UNL     1       1.176   1.782   0.000  0.00  0.00    +0.004 A 
ATOM     12  C   UNL     1       1.161   3.164   0.007  0.00  0.00    +0.049 A 
ATOM     13  C   UNL     1      -0.046   3.846   0.020  0.00  0.00    +0.163 A 
ATOM     14  O   UNL     1      -0.045   5.207   0.019  0.00  0.00    -0.472 OA
ENDBRANCH   2   5
BRANCH   1  17
ATOM     15  C   UNL     1      -4.368   9.659   1.135  0.00  0.00    +0.068 C 
ATOM     16  C   UNL     1      -3.183  10.196   0.374  0.00  0.00    +0.070 C 
ATOM     17  N   UNL     1      -2.177   9.379   0.037  0.00  0.00    -0.184 NA
BRANCH  16  18
ATOM     18  C   UNL     1      -3.134  11.531   0.024  0.00  0.00    +0.037 A 
ATOM     19  C   UNL     1      -2.080  12.267  -0.715  0.00  0.00    +0.050 A 
ATOM     20  C   UNL     1      -2.309  13.565  -0.908  0.00  0.00    +0.134 A 
ATOM     21  C   UNL     1      -3.495  14.141  -0.417  0.00  0.00    +0.078 A 
ATOM     22  S   UNL     1      -4.327  12.821   0.337  0.00  0.00    -0.093 S 
BRANCH  20  23
ATOM     23  N   UNL     1      -1.323  14.395  -1.635  0.00  0.00    +0.057 N 
ATOM     24  O   UNL     1      -0.214  13.851  -2.093  0.00  0.00    -0.126 OA
ATOM     25  O   UNL     1      -1.553  15.678  -1.823  0.00  0.00    -0.126 OA
ENDBRANCH  20  23
ENDBRANCH  16  18
ENDBRANCH   1  17
TORSDOF 4
