REMARK  Name = ZINC67480695
REMARK  7 active torsions:
REMARK  status: ('A' for Active; 'I' for Inactive)
REMARK    1  A    between atoms: C_1  and  C_2
REMARK    2  A    between atoms: C_2  and  C_4
REMARK    3  A    between atoms: C_2  and  N_12
REMARK    4  A    between atoms: N_15  and  C_16
REMARK    5  A    between atoms: C_16  and  C_17
REMARK    6  A    between atoms: N_22  and  C_23
REMARK    7  A    between atoms: C_23  and  C_24
REMARK                            x       y       z     vdW  Elec       q    Type
REMARK                         _______ _______ _______ _____ _____    ______ ____
ROOT
ATOM      1  N   UNL     1       0.711  -0.489   1.189  0.00  0.00    -0.290 N 
ATOM      2  C   UNL     1       0.051  -0.633   2.355  0.00  0.00    +0.300 C 
ATOM      3  O   UNL     1      -1.132  -0.361   2.423  0.00  0.00    -0.253 OA
ATOM      4  N   UNL     1       0.703  -1.080   3.447  0.00  0.00    -0.301 N 
ATOM      5  H   UNL     1       1.654  -0.707   1.135  0.00  0.00    +0.151 HD
ATOM      6  H   UNL     1       1.647  -1.298   3.394  0.00  0.00    +0.150 HD
ENDROOT
BRANCH   1   8
ATOM      7  C   UNL     1      -0.019   1.526   0.010  0.00  0.00    +0.036 C 
ATOM      8  C   UNL     1       0.002  -0.004   0.002  0.00  0.00    +0.139 C 
BRANCH   8   9
ATOM      9  C   UNL     1       0.707  -0.490  -1.238  0.00  0.00    +0.154 A 
ATOM     10  N   UNL     1       1.995  -0.478  -1.451  0.00  0.00    -0.132 NA
ATOM     11  N   UNL     1       2.246  -0.966  -2.613  0.00  0.00    -0.134 NA
ATOM     12  C   UNL     1       1.128  -1.310  -3.196  0.00  0.00    +0.134 A 
ATOM     13  N   UNL     1       0.123  -1.026  -2.338  0.00  0.00    -0.313 N 
ATOM     14  C   UNL     1      -1.179  -1.395  -2.906  0.00  0.00    +0.125 C 
ATOM     15  C   UNL     1      -0.937  -1.564  -4.422  0.00  0.00    +0.029 C 
ATOM     16  C   UNL     1       0.567  -1.908  -4.468  0.00  0.00    +0.078 C 
ENDBRANCH   8   9
ENDBRANCH   1   8
BRANCH   4  17
ATOM     17  C   UNL     1      -0.014  -1.237   4.715  0.00  0.00    +0.090 C 
BRANCH  17  18
ATOM     18  C   UNL     1       0.950  -1.754   5.785  0.00  0.00    -0.051 C 
ATOM     19  C   UNL     1       0.251  -1.762   7.161  0.00  0.00    -0.016 C 
ATOM     20  C   UNL     1       1.378  -1.313   8.128  0.00  0.00    -0.020 C 
ATOM     21  C   UNL     1       2.148  -0.289   7.258  0.00  0.00    -0.078 C 
ATOM     22  N   UNL     1       2.114  -0.855   5.889  0.00  0.00    +0.383 N 
ATOM     23  H   UNL     1       2.029  -0.110   5.214  0.00  0.00    -0.081 HD
BRANCH  22  24
ATOM     24  C   UNL     1       3.347  -1.612   5.633  0.00  0.00    -0.075 C 
BRANCH  24  25
ATOM     25  C   UNL     1       4.540  -0.654   5.618  0.00  0.00    -0.028 C 
ATOM     26  C   UNL     1       4.404   0.311   4.437  0.00  0.00    +0.002 C 
ATOM     27  C   UNL     1       5.597   1.269   4.422  0.00  0.00    +0.000 C 
ATOM     28  C   UNL     1       6.893   0.468   4.280  0.00  0.00    +0.000 C 
ATOM     29  C   UNL     1       7.028  -0.496   5.460  0.00  0.00    +0.000 C 
ATOM     30  C   UNL     1       5.835  -1.454   5.476  0.00  0.00    +0.002 C 
ENDBRANCH  24  25
ENDBRANCH  22  24
ENDBRANCH  17  18
ENDBRANCH   4  17
TORSDOF 6
