REMARK  Name = ZINC40347144
REMARK  7 active torsions:
REMARK  status: ('A' for Active; 'I' for Inactive)
REMARK    1  A    between atoms: C_1  and  C_2
REMARK    2  A    between atoms: C_4  and  N_20
REMARK    3  A    between atoms: C_5  and  S_9
REMARK    4  A    between atoms: C_7  and  C_8
REMARK    5  A    between atoms: S_9  and  N_12
REMARK    6  A    between atoms: N_12  and  C_13
REMARK    7  A    between atoms: C_13  and  C_14
REMARK                            x       y       z     vdW  Elec       q    Type
REMARK                         _______ _______ _______ _____ _____    ______ ____
ROOT
ATOM      1  S   UNL     1       0.084  -4.465   0.039  0.00  0.00    +0.060 S 
ATOM      2  O   UNL     1      -0.025  -4.856   1.400  0.00  0.00    -0.153 OA
ATOM      3  O   UNL     1      -0.922  -4.758  -0.921  0.00  0.00    -0.153 OA
ENDROOT
BRANCH   1   8
ATOM      4  C   UNL     1       0.796   1.531   0.025  0.00  0.00    +0.044 C 
ATOM      5  C   UNL     1       0.618   0.035   0.025  0.00  0.00    -0.046 A 
ATOM      6  C   UNL     1       0.633  -0.661  -1.169  0.00  0.00    +0.028 A 
ATOM      7  C   UNL     1       0.470  -2.040  -1.168  0.00  0.00    +0.051 A 
ATOM      8  C   UNL     1       0.292  -2.715   0.033  0.00  0.00    +0.126 A 
ATOM      9  C   UNL     1       0.278  -2.014   1.222  0.00  0.00    +0.034 A 
ATOM     10  C   UNL     1       0.446  -0.641   1.219  0.00  0.00    -0.046 A 
ATOM     11  C   UNL     1       0.437   0.121   2.519  0.00  0.00    +0.044 C 
BRANCH   7  12
ATOM     12  N   UNL     1       0.484  -2.747  -2.373  0.00  0.00    -0.356 N 
ATOM     13  H   UNL     1       0.516  -2.268  -3.216  0.00  0.00    +0.142 HD
ATOM     14  H   UNL     1       0.462  -3.716  -2.367  0.00  0.00    +0.142 HD
ENDBRANCH   7  12
ENDBRANCH   1   8
BRANCH   1  15
ATOM     15  N   UNL     1       1.490  -5.127  -0.532  0.00  0.00    -0.185 NA
ATOM     16  H   UNL     1       1.490  -5.619  -1.369  0.00  0.00    +0.148 HD
BRANCH  15  17
ATOM     17  C   UNL     1       2.735  -4.970   0.225  0.00  0.00    +0.144 C 
BRANCH  17  18
ATOM     18  C   UNL     1       3.759  -5.952  -0.283  0.00  0.00    +0.005 A 
ATOM     19  C   UNL     1       3.948  -7.212   0.171  0.00  0.00    +0.109 A 
ATOM     20  N   UNL     1       4.955  -7.759  -0.540  0.00  0.00    -0.284 N 
ATOM     21  H   UNL     1       5.309  -8.656  -0.433  0.00  0.00    +0.188 HD
ATOM     22  N   UNL     1       5.401  -6.803  -1.462  0.00  0.00    -0.182 NA
ATOM     23  C   UNL     1       4.679  -5.723  -1.311  0.00  0.00    +0.139 A 
ENDBRANCH  17  18
ENDBRANCH  15  17
ENDBRANCH   1  15
TORSDOF 5
