REMARK  Name = ZINC39636112
REMARK  5 active torsions:
REMARK  status: ('A' for Active; 'I' for Inactive)
REMARK    1  A    between atoms: C_1  and  C_2
REMARK    2  A    between atoms: C_8  and  N_10
REMARK    3  A    between atoms: C_11  and  C_13
REMARK    4  A    between atoms: C_24  and  C_26
REMARK    5  A    between atoms: C_29  and  C_31
REMARK                            x       y       z     vdW  Elec       q    Type
REMARK                         _______ _______ _______ _____ _____    ______ ____
ROOT
ATOM      1  C   UNL     1       4.209   0.649   2.377  0.00  0.00    +0.100 C 
ATOM      2  C   UNL     1       5.154  -0.371   1.704  0.00  0.00    +0.121 C 
ATOM      3  N   UNL     1       6.408  -0.294   2.489  0.00  0.00    -0.294 N 
ATOM      4  C   UNL     1       5.957  -0.151   3.894  0.00  0.00    +0.115 C 
ATOM      5  C   UNL     1       4.739   0.790   3.814  0.00  0.00    -0.004 C 
ATOM      6  C   UNL     1       3.672   0.358   4.816  0.00  0.00    -0.010 C 
ATOM      7  C   UNL     1       4.200   0.562   6.238  0.00  0.00    -0.082 C 
ATOM      8  N   UNL     1       4.542   1.975   6.437  0.00  0.00    +0.379 N 
ATOM      9  C   UNL     1       5.634   2.358   5.534  0.00  0.00    -0.082 C 
ATOM     10  C   UNL     1       5.166   2.230   4.081  0.00  0.00    -0.010 C 
ATOM     11  C   UNL     1       7.675  -0.341   2.029  0.00  0.00    +0.282 C 
ATOM     12  O   UNL     1       8.608  -0.265   2.807  0.00  0.00    -0.267 OA
ATOM     13  H   UNL     1       3.733   2.546   6.245  0.00  0.00    -0.086 HD
ATOM     14  H   UNL     1       4.832   2.119   7.393  0.00  0.00    -0.086 HD
ENDROOT
BRANCH  11  15
ATOM     15  C   UNL     1       7.927  -0.486   0.594  0.00  0.00    +0.190 A 
ATOM     16  C   UNL     1       9.166  -0.553  -0.007  0.00  0.00    +0.055 A 
ATOM     17  C   UNL     1       8.941  -0.688  -1.380  0.00  0.00    +0.050 A 
ATOM     18  C   UNL     1       7.588  -0.698  -1.567  0.00  0.00    +0.136 A 
ATOM     19  O   UNL     1       6.988  -0.582  -0.371  0.00  0.00    -0.450 OA
BRANCH  18  20
ATOM     20  C   UNL     1       6.900  -0.822  -2.867  0.00  0.00    +0.017 A 
ATOM     21  C   UNL     1       7.642  -0.949  -4.044  0.00  0.00    +0.014 A 
ATOM     22  C   UNL     1       6.994  -1.065  -5.255  0.00  0.00    +0.039 A 
ATOM     23  C   UNL     1       5.608  -1.057  -5.307  0.00  0.00    +0.123 A 
ATOM     24  C   UNL     1       4.867  -0.931  -4.142  0.00  0.00    +0.039 A 
ATOM     25  C   UNL     1       5.505  -0.820  -2.925  0.00  0.00    +0.014 A 
ATOM     26  F   UNL     1       4.978  -1.171  -6.496  0.00  0.00    -0.205 F 
ENDBRANCH  18  20
ENDBRANCH  11  15
BRANCH   1  28
ATOM     27  N   UNL     1       1.759   0.989   2.358  0.00  0.00    -0.312 N 
ATOM     28  C   UNL     1       2.795   0.128   2.388  0.00  0.00    +0.218 C 
ATOM     29  O   UNL     1       2.590  -1.067   2.424  0.00  0.00    -0.275 OA
ATOM     30  H   UNL     1       1.923   1.945   2.330  0.00  0.00    +0.149 HD
BRANCH  27  37
ATOM     31  C   UNL     1      -0.119   1.888   4.372  0.00  0.00    +0.009 C 
ATOM     32  C   UNL     1      -0.549   1.550   2.943  0.00  0.00    +0.006 C 
ATOM     33  C   UNL     1      -1.984   1.020   2.954  0.00  0.00    +0.005 C 
ATOM     34  C   UNL     1      -2.414   0.682   1.525  0.00  0.00    +0.000 C 
ATOM     35  C   UNL     1      -1.481  -0.386   0.951  0.00  0.00    +0.002 C 
ATOM     36  C   UNL     1      -0.045   0.144   0.940  0.00  0.00    +0.022 C 
ATOM     37  C   UNL     1       0.384   0.482   2.369  0.00  0.00    +0.076 C 
ENDBRANCH  27  37
ENDBRANCH   1  28
TORSDOF 4
