REMARK  Name = ZINC52094620
REMARK  6 active torsions:
REMARK  status: ('A' for Active; 'I' for Inactive)
REMARK    1  A    between atoms: C_1  and  C_2
REMARK    2  A    between atoms: C_2  and  N_3
REMARK    3  A    between atoms: N_3  and  C_4
REMARK    4  A    between atoms: C_4  and  C_6
REMARK    5  A    between atoms: C_4  and  C_19
REMARK    6  A    between atoms: C_22  and  C_24
REMARK                            x       y       z     vdW  Elec       q    Type
REMARK                         _______ _______ _______ _____ _____    ______ ____
ROOT
ATOM      1  C   UNL     1      -2.433  -2.050  -0.364  0.00  0.00    -0.045 A 
ATOM      2  C   UNL     1      -3.619  -1.396  -0.089  0.00  0.00    +0.031 A 
ATOM      3  C   UNL     1      -4.827  -1.988  -0.424  0.00  0.00    +0.067 A 
ATOM      4  C   UNL     1      -4.841  -3.242  -1.038  0.00  0.00    +0.068 A 
ATOM      5  C   UNL     1      -3.647  -3.891  -1.310  0.00  0.00    +0.043 A 
ATOM      6  C   UNL     1      -2.447  -3.291  -0.978  0.00  0.00    +0.022 A 
ATOM      7 BR   UNL     1      -0.817  -4.172  -1.357  0.00  0.00    -0.050 Br
ATOM      8  N   UNL     1      -6.178  -3.572  -1.250  0.00  0.00    -0.306 N 
ATOM      9  H   UNL     1      -6.503  -4.388  -1.661  0.00  0.00    +0.170 HD
ATOM     10  C   UNL     1      -6.941  -2.565  -0.786  0.00  0.00    +0.325 A 
ATOM     11  O   UNL     1      -8.158  -2.536  -0.817  0.00  0.00    -0.247 OA
ATOM     12  N   UNL     1      -6.156  -1.595  -0.281  0.00  0.00    -0.306 N 
ATOM     13  H   UNL     1      -6.463  -0.764   0.114  0.00  0.00    +0.170 HD
ENDROOT
BRANCH   1  14
ATOM     14  C   UNL     1      -1.120  -1.407   0.000  0.00  0.00    -0.036 C 
BRANCH  14  15
ATOM     15  C   UNL     1      -0.538  -2.099   1.234  0.00  0.00    -0.018 C 
ATOM     16  C   UNL     1      -1.114  -3.464   1.616  0.00  0.00    +0.006 C 
ATOM     17  C   UNL     1      -1.441  -2.232   2.462  0.00  0.00    -0.012 C 
ATOM     18  C   UNL     1      -2.857  -1.661   2.362  0.00  0.00    +0.008 C 
ENDBRANCH  14  15
BRANCH  14  19
ATOM     19  N   UNL     1      -1.336   0.016   0.294  0.00  0.00    +0.384 N 
ATOM     20  H   UNL     1      -1.898   0.106   1.127  0.00  0.00    -0.085 HD
ATOM     21  H   UNL     1      -1.813   0.451  -0.482  0.00  0.00    -0.085 HD
BRANCH  19  23
ATOM     22  C   UNL     1      -0.266   2.158   0.810  0.00  0.00    -0.017 C 
ATOM     23  C   UNL     1      -0.040   0.675   0.504  0.00  0.00    -0.085 C 
ENDBRANCH  19  23
ENDBRANCH  14  19
ENDBRANCH   1  14
TORSDOF 4
