REMARK  Name = ZINC22520595
REMARK  8 active torsions:
REMARK  status: ('A' for Active; 'I' for Inactive)
REMARK    1  A    between atoms: C_1  and  C_2
REMARK    2  A    between atoms: C_2  and  C_4
REMARK    3  A    between atoms: C_2  and  O_14
REMARK    4  A    between atoms: N_6  and  C_7
REMARK    5  A    between atoms: O_14  and  C_15
REMARK    6  A    between atoms: C_15  and  C_17
REMARK    7  A    between atoms: C_17  and  O_18
REMARK    8  A    between atoms: O_18  and  C_19
REMARK                            x       y       z     vdW  Elec       q    Type
REMARK                         _______ _______ _______ _____ _____    ______ ____
ROOT
ATOM      1  C   UNL     1      -2.536   9.059  -1.067  0.00  0.00    +0.346 C 
ATOM      2  O   UNL     1      -1.550   9.607  -1.501  0.00  0.00    -0.247 OA
ENDROOT
BRANCH   1   3
ATOM      3  O   UNL     1      -2.417   7.922  -0.364  0.00  0.00    -0.450 OA
BRANCH   3   5
ATOM      4  C   UNL     1      -0.490   7.991   1.123  0.00  0.00    +0.062 C 
ATOM      5  C   UNL     1      -1.074   7.407  -0.165  0.00  0.00    +0.259 C 
BRANCH   5   6
ATOM      6  C   UNL     1      -1.123   5.905  -0.058  0.00  0.00    +0.258 C 
ATOM      7  O   UNL     1      -2.192   5.332  -0.051  0.00  0.00    -0.271 OA
ATOM      8  N   UNL     1       0.022   5.198   0.029  0.00  0.00    -0.280 N 
ATOM      9  H   UNL     1       0.986   5.721   0.115  0.00  0.00    +0.155 HD
BRANCH   8  10
ATOM     10  C   UNL     1      -0.017   3.799   0.010  0.00  0.00    +0.071 A 
ATOM     11  C   UNL     1      -1.081   3.129  -0.587  0.00  0.00    +0.028 A 
ATOM     12  C   UNL     1      -1.072   1.744  -0.586  0.00  0.00    +0.022 A 
ATOM     13  C   UNL     1      -0.020   1.076   0.012  0.00  0.00    +0.112 A 
ATOM     14  N   UNL     1       0.975   1.739   0.570  0.00  0.00    -0.242 NA
ATOM     15  C   UNL     1       1.008   3.057   0.586  0.00  0.00    +0.150 A 
ATOM     16 CL   UNL     1       2.344   3.874   1.336  0.00  0.00    -0.060 Cl
ENDBRANCH   8  10
ENDBRANCH   5   6
ENDBRANCH   3   5
ENDBRANCH   1   3
BRANCH   1  17
ATOM     17  C   UNL     1      -3.898   9.654  -1.314  0.00  0.00    +0.349 C 
BRANCH  17  18
ATOM     18  O   UNL     1      -3.763  10.853  -2.079  0.00  0.00    -0.481 OA
BRANCH  18  19
ATOM     19  C   UNL     1      -4.907  11.518  -2.392  0.00  0.00    +0.122 A 
ATOM     20  C   UNL     1      -6.133  11.025  -1.969  0.00  0.00    +0.047 A 
ATOM     21  C   UNL     1      -7.296  11.700  -2.285  0.00  0.00    +0.027 A 
ATOM     22  C   UNL     1      -7.237  12.873  -3.026  0.00  0.00    +0.037 A 
ATOM     23  C   UNL     1      -6.010  13.365  -3.449  0.00  0.00    -0.022 A 
ATOM     24  C   UNL     1      -4.848  12.692  -3.128  0.00  0.00    +0.051 A 
ATOM     25  C   UNL     1      -5.949  14.639  -4.252  0.00  0.00    +0.046 C 
ATOM     26  C   UNL     1      -7.182  14.735  -5.151  0.00  0.00    +0.101 C 
ATOM     27  C   UNL     1      -8.425  14.461  -4.348  0.00  0.00    +0.218 C 
ATOM     28  O   UNL     1      -9.449  15.059  -4.605  0.00  0.00    -0.275 OA
ATOM     29  N   UNL     1      -8.414  13.560  -3.348  0.00  0.00    -0.285 N 
ATOM     30  H   UNL     1      -9.337  13.366  -2.782  0.00  0.00    +0.155 HD
ENDBRANCH  18  19
ENDBRANCH  17  18
ENDBRANCH   1  17
TORSDOF 7
