REMARK  Name = ZINC50777847
REMARK  6 active torsions:
REMARK  status: ('A' for Active; 'I' for Inactive)
REMARK    1  A    between atoms: C_1  and  C_2
REMARK    2  A    between atoms: C_5  and  N_8
REMARK    3  A    between atoms: N_8  and  C_9
REMARK    4  A    between atoms: C_10  and  C_12
REMARK    5  A    between atoms: C_17  and  N_18
REMARK    6  A    between atoms: N_18  and  C_19
REMARK                            x       y       z     vdW  Elec       q    Type
REMARK                         _______ _______ _______ _____ _____    ______ ____
ROOT
ATOM      1  N   UNL     1       0.123  -4.208   0.010  0.00  0.00    -0.270 N 
ATOM      2  C   UNL     1       0.095  -4.995  -1.225  0.00  0.00    +0.138 C 
ATOM      3  C   UNL     1       0.175  -4.831   1.205  0.00  0.00    +0.252 C 
ATOM      4  O   UNL     1       0.113  -4.182   2.232  0.00  0.00    -0.270 OA
ENDROOT
BRANCH   1   9
ATOM      5  C   UNL     1       0.013   1.458  -0.233  0.00  0.00    +0.044 C 
ATOM      6  C   UNL     1       0.042  -0.048  -0.168  0.00  0.00    -0.050 A 
ATOM      7  C   UNL     1       0.180  -0.785  -1.330  0.00  0.00    +0.005 A 
ATOM      8  C   UNL     1       0.208  -2.165  -1.274  0.00  0.00    +0.024 A 
ATOM      9  C   UNL     1       0.096  -2.812  -0.050  0.00  0.00    +0.036 A 
ATOM     10  C   UNL     1      -0.043  -2.067   1.115  0.00  0.00    +0.024 A 
ATOM     11  C   UNL     1      -0.065  -0.688   1.053  0.00  0.00    +0.005 A 
ENDBRANCH   1   9
BRANCH   3  12
ATOM     12  C   UNL     1       0.306  -6.298   1.266  0.00  0.00    +0.059 A 
ATOM     13  C   UNL     1       1.327  -6.942   0.562  0.00  0.00    +0.035 A 
ATOM     14  C   UNL     1       1.444  -8.314   0.624  0.00  0.00    +0.042 A 
ATOM     15  C   UNL     1       0.554  -9.060   1.382  0.00  0.00    +0.022 A 
ATOM     16  C   UNL     1      -0.459  -8.438   2.082  0.00  0.00    +0.025 A 
ATOM     17  C   UNL     1      -0.589  -7.055   2.037  0.00  0.00    +0.039 A 
ATOM     18 CL   UNL     1       2.713  -9.113  -0.252  0.00  0.00    -0.084 Cl
BRANCH  17  19
ATOM     19  N   UNL     1      -1.605  -6.426   2.746  0.00  0.00    -0.346 N 
ATOM     20  C   UNL     1      -2.468  -7.206   3.637  0.00  0.00    +0.125 C 
ATOM     21  H   UNL     1      -1.743  -5.471   2.651  0.00  0.00    +0.146 HD
ENDBRANCH  17  19
ENDBRANCH   3  12
TORSDOF 3
