REMARK  Name = ZINC04313302
REMARK  11 active torsions:
REMARK  status: ('A' for Active; 'I' for Inactive)
REMARK    1  A    between atoms: C_1  and  C_2
REMARK    2  A    between atoms: C_5  and  C_8
REMARK    3  A    between atoms: C_8  and  N_9
REMARK    4  A    between atoms: C_10  and  C_12
REMARK    5  A    between atoms: C_13  and  N_30
REMARK    6  A    between atoms: N_14  and  C_17
REMARK    7  A    between atoms: C_17  and  C_18
REMARK    8  A    between atoms: N_20  and  C_21
REMARK    9  A    between atoms: C_22  and  C_29
REMARK   10  A    between atoms: C_24  and  C_28
REMARK   11  A    between atoms: C_26  and  C_27
REMARK                            x       y       z     vdW  Elec       q    Type
REMARK                         _______ _______ _______ _____ _____    ______ ____
ROOT
ATOM      1  C   UNL     1      -7.598   1.398  -1.262  0.00  0.00    +0.188 A 
ATOM      2  C   UNL     1      -6.820   2.136  -0.378  0.00  0.00    +0.148 A 
ATOM      3  N   UNL     1      -5.999   2.899  -1.138  0.00  0.00    -0.222 N 
ATOM      4  N   UNL     1      -6.300   2.613  -2.476  0.00  0.00    -0.063 NA
ATOM      5  N   UNL     1      -7.234   1.729  -2.515  0.00  0.00    -0.123 NA
ENDROOT
BRANCH   1   7
ATOM      6  N   UNL     1      -9.322  -0.223  -1.855  0.00  0.00    -0.306 N 
ATOM      7  C   UNL     1      -8.637   0.428  -0.894  0.00  0.00    +0.268 C 
ATOM      8  O   UNL     1      -8.879   0.212   0.279  0.00  0.00    -0.268 OA
ATOM      9  H   UNL     1      -9.129  -0.050  -2.789  0.00  0.00    +0.149 HD
BRANCH   6  10
ATOM     10  C   UNL     1     -10.358  -1.191  -1.487  0.00  0.00    +0.140 C 
BRANCH  10  15
ATOM     11  C   UNL     1     -12.694  -3.424  -6.278  0.00  0.00    +0.044 C 
ATOM     12  C   UNL     1     -12.085  -2.842  -5.028  0.00  0.00    -0.050 A 
ATOM     13  C   UNL     1     -10.987  -3.448  -4.448  0.00  0.00    +0.003 A 
ATOM     14  C   UNL     1     -10.428  -2.914  -3.302  0.00  0.00    +0.005 A 
ATOM     15  C   UNL     1     -10.967  -1.773  -2.737  0.00  0.00    -0.030 A 
ATOM     16  C   UNL     1     -12.069  -1.170  -3.314  0.00  0.00    +0.005 A 
ATOM     17  C   UNL     1     -12.625  -1.702  -4.463  0.00  0.00    +0.003 A 
ENDBRANCH  10  15
ENDBRANCH   6  10
ENDBRANCH   1   7
BRANCH   2  18
ATOM     18  N   UNL     1      -6.874   2.098   1.000  0.00  0.00    -0.341 N 
ATOM     19  H   UNL     1      -6.280   2.658   1.524  0.00  0.00    +0.144 HD
ATOM     20  H   UNL     1      -7.504   1.510   1.445  0.00  0.00    +0.144 HD
ENDBRANCH   2  18
BRANCH   3  21
ATOM     21  C   UNL     1      -4.993   3.846  -0.652  0.00  0.00    +0.243 C 
BRANCH  21  22
ATOM     22  C   UNL     1      -3.676   3.135  -0.477  0.00  0.00    +0.239 C 
ATOM     23  O   UNL     1      -3.587   1.952  -0.732  0.00  0.00    -0.273 OA
ATOM     24  N   UNL     1      -2.597   3.812  -0.036  0.00  0.00    -0.284 N 
ATOM     25  H   UNL     1      -2.684   4.739   0.235  0.00  0.00    +0.155 HD
BRANCH  24  26
ATOM     26  C   UNL     1      -1.352   3.178   0.030  0.00  0.00    +0.039 A 
ATOM     27  C   UNL     1      -0.728   2.746  -1.133  0.00  0.00    -0.029 A 
ATOM     28  C   UNL     1       0.499   2.116  -1.063  0.00  0.00    +0.008 A 
ATOM     29  C   UNL     1       1.111   1.923   0.162  0.00  0.00    -0.050 A 
ATOM     30  C   UNL     1       0.494   2.356   1.321  0.00  0.00    +0.008 A 
ATOM     31  C   UNL     1      -0.735   2.982   1.259  0.00  0.00    -0.029 A 
ATOM     32  C   UNL     1      -1.406   3.454   2.523  0.00  0.00    +0.045 C 
ATOM     33  C   UNL     1       2.452   1.240   0.233  0.00  0.00    +0.044 C 
ATOM     34  C   UNL     1      -1.391   2.962  -2.469  0.00  0.00    +0.045 C 
ENDBRANCH  24  26
ENDBRANCH  21  22
ENDBRANCH   3  21
TORSDOF 7
