REMARK  Name = ZINC39357908
REMARK  7 active torsions:
REMARK  status: ('A' for Active; 'I' for Inactive)
REMARK    1  A    between atoms: C_1  and  C_2
REMARK    2  A    between atoms: C_3  and  C_10
REMARK    3  A    between atoms: N_6  and  C_8
REMARK    4  A    between atoms: C_10  and  N_11
REMARK    5  A    between atoms: C_24  and  C_26
REMARK    6  A    between atoms: C_31  and  O_32
REMARK    7  A    between atoms: O_32  and  C_33
REMARK                            x       y       z     vdW  Elec       q    Type
REMARK                         _______ _______ _______ _____ _____    ______ ____
ROOT
ATOM      1  N   UNL     1      -3.040  -0.020  -1.683  0.00  0.00    +0.391 N 
ATOM      2  C   UNL     1      -2.721   1.093  -2.587  0.00  0.00    -0.072 C 
ATOM      3  C   UNL     1      -3.299   0.803  -3.979  0.00  0.00    +0.019 C 
ATOM      4  C   UNL     1      -4.742   0.405  -3.806  0.00  0.00    -0.022 A 
ATOM      5  C   UNL     1      -5.799   0.324  -4.788  0.00  0.00    +0.003 A 
ATOM      6  C   UNL     1      -5.841   0.574  -6.163  0.00  0.00    +0.010 A 
ATOM      7  C   UNL     1      -7.048   0.388  -6.792  0.00  0.00    +0.001 A 
ATOM      8  C   UNL     1      -8.178  -0.026  -6.108  0.00  0.00    +0.002 A 
ATOM      9  C   UNL     1      -8.166  -0.281  -4.747  0.00  0.00    +0.026 A 
ATOM     10  C   UNL     1      -6.955  -0.101  -4.082  0.00  0.00    +0.047 A 
ATOM     11  N   UNL     1      -6.599  -0.258  -2.773  0.00  0.00    -0.359 N 
ATOM     12  C   UNL     1      -5.274   0.045  -2.615  0.00  0.00    +0.011 A 
ATOM     13  H   UNL     1      -7.195  -0.542  -2.062  0.00  0.00    +0.166 HD
ATOM     14  C   UNL     1      -4.470   0.001  -1.337  0.00  0.00    +0.014 C 
ATOM     15  H   UNL     1      -2.819  -0.893  -2.138  0.00  0.00    -0.080 HD
ENDROOT
BRANCH  14  16
ATOM     16  C   UNL     1      -4.772   1.222  -0.507  0.00  0.00    -0.014 A 
ATOM     17  C   UNL     1      -5.224   2.377  -1.115  0.00  0.00    +0.006 A 
ATOM     18  C   UNL     1      -5.500   3.498  -0.354  0.00  0.00    +0.000 A 
ATOM     19  C   UNL     1      -5.327   3.465   1.017  0.00  0.00    +0.004 A 
ATOM     20  C   UNL     1      -4.876   2.312   1.630  0.00  0.00    +0.046 A 
ATOM     21  C   UNL     1      -4.602   1.185   0.869  0.00  0.00    +0.122 A 
BRANCH  21  22
ATOM     22  O   UNL     1      -4.164   0.048   1.470  0.00  0.00    -0.495 OA
ATOM     23  C   UNL     1      -4.013   0.082   2.891  0.00  0.00    +0.277 C 
ENDBRANCH  21  22
ENDBRANCH  14  16
BRANCH   1  24
ATOM     24  C   UNL     1      -2.241   0.105  -0.456  0.00  0.00    -0.042 C 
BRANCH  24  27
ATOM     25  C   UNL     1      -0.277   2.388  -1.007  0.00  0.00    +0.061 C 
ATOM     26  C   UNL     1       0.077   0.923  -1.030  0.00  0.00    +0.016 C 
ATOM     27  C   UNL     1      -0.780  -0.049  -0.790  0.00  0.00    -0.035 C 
ATOM     28  C   UNL     1      -0.015  -1.349  -0.916  0.00  0.00    +0.192 C 
ATOM     29  N   UNL     1       1.361  -0.930  -1.253  0.00  0.00    -0.211 NA
ATOM     30  N   UNL     1       1.339   0.434  -1.309  0.00  0.00    -0.281 N 
ATOM     31  C   UNL     1       1.783  -1.498  -2.540  0.00  0.00    +0.129 C 
ATOM     32 CL   UNL     1      -0.038  -2.247   0.647  0.00  0.00    -0.098 Cl
ATOM     33  H   UNL     1       2.108   0.988  -1.515  0.00  0.00    +0.166 HD
ENDBRANCH  24  27
ENDBRANCH   1  24
TORSDOF 4
