REMARK  Name = ZINC33246841
REMARK  10 active torsions:
REMARK  status: ('A' for Active; 'I' for Inactive)
REMARK    1  A    between atoms: C_1  and  C_2
REMARK    2  A    between atoms: C_2  and  C_3
REMARK    3  A    between atoms: C_3  and  C_4
REMARK    4  A    between atoms: C_4  and  C_5
REMARK    5  A    between atoms: C_5  and  C_6
REMARK    6  A    between atoms: C_6  and  C_7
REMARK    7  A    between atoms: C_11  and  C_28
REMARK    8  A    between atoms: N_13  and  N_14
REMARK    9  A    between atoms: C_15  and  C_17
REMARK   10  A    between atoms: C_26  and  O_27
REMARK                            x       y       z     vdW  Elec       q    Type
REMARK                         _______ _______ _______ _____ _____    ______ ____
ROOT
ATOM      1  C   UNL     1      -6.776   0.001   1.800  0.00  0.00    -0.005 A 
ATOM      2  C   UNL     1      -5.766  -0.813   1.372  0.00  0.00    +0.018 A 
ATOM      3  C   UNL     1      -4.647  -0.260   0.738  0.00  0.00    +0.019 A 
ATOM      4  C   UNL     1      -3.551  -1.115   0.276  0.00  0.00    +0.030 A 
ATOM      5  C   UNL     1      -2.366  -0.494  -0.090  0.00  0.00    +0.098 A 
ATOM      6  C   UNL     1      -2.316   0.981   0.019  0.00  0.00    +0.224 A 
ATOM      7  N   UNL     1      -1.184   1.605   0.207  0.00  0.00    -0.273 N 
ATOM      8  O   UNL     1      -3.489   1.667  -0.077  0.00  0.00    -0.437 OA
ATOM      9  C   UNL     1      -4.569   1.133   0.540  0.00  0.00    +0.141 A 
ATOM     10  C   UNL     1      -5.600   1.943   0.979  0.00  0.00    +0.092 A 
ATOM     11  C   UNL     1      -6.701   1.378   1.608  0.00  0.00    +0.124 A 
ATOM     12  H   UNL     1      -1.144   2.703   0.143  0.00  0.00    +0.188 HD
ENDROOT
BRANCH   5  13
ATOM     13  C   UNL     1      -1.208  -1.268  -0.565  0.00  0.00    +0.247 C 
ATOM     14  O   UNL     1      -1.033  -2.405  -0.169  0.00  0.00    -0.270 OA
ATOM     15  N   UNL     1      -0.343  -0.718  -1.440  0.00  0.00    -0.325 N 
ATOM     16  H   UNL     1       0.522  -1.297  -1.796  0.00  0.00    +0.145 HD
ATOM     17  H   UNL     1      -0.502   0.310  -1.799  0.00  0.00    +0.145 HD
ENDBRANCH   5  13
BRANCH   7  18
ATOM     18  N   UNL     1      -0.021   0.877   0.489  0.00  0.00    -0.223 N 
ATOM     19  C   UNL     1       1.166   1.510   0.577  0.00  0.00    +0.262 C 
ATOM     20  O   UNL     1       1.227   2.714   0.415  0.00  0.00    -0.269 OA
ATOM     21  H   UNL     1      -0.076  -0.211   0.639  0.00  0.00    +0.175 HD
BRANCH  19  22
ATOM     22  C   UNL     1       2.394   0.740   0.868  0.00  0.00    +0.038 A 
ATOM     23  C   UNL     1       2.327  -0.641   1.060  0.00  0.00    +0.013 A 
ATOM     24  C   UNL     1       3.478  -1.354   1.326  0.00  0.00    +0.001 A 
ATOM     25  C   UNL     1       4.694  -0.701   1.416  0.00  0.00    +0.000 A 
ATOM     26  C   UNL     1       4.767   0.669   1.233  0.00  0.00    +0.001 A 
ATOM     27  C   UNL     1       3.625   1.393   0.960  0.00  0.00    +0.013 A 
ENDBRANCH  19  22
ENDBRANCH   7  18
BRANCH  11  28
ATOM     28  O   UNL     1      -7.713   2.174   2.039  0.00  0.00    -0.506 OA
ATOM     29  H   UNL     1      -7.658   3.263   1.890  0.00  0.00    +0.292 HD
ENDBRANCH  11  28
BRANCH   1  30
ATOM     30  C   UNL     1      -7.979  -0.595   2.484  0.00  0.00    +0.039 C 
BRANCH  30  31
ATOM     31  C   UNL     1      -7.840  -0.428   3.998  0.00  0.00    +0.005 C 
BRANCH  31  32
ATOM     32  C   UNL     1      -9.061  -1.033   4.693  0.00  0.00    +0.000 C 
BRANCH  32  33
ATOM     33  C   UNL     1      -8.922  -0.866   6.207  0.00  0.00    -0.000 C 
BRANCH  33  35
ATOM     34  C   UNL     1     -10.004  -1.304   8.416  0.00  0.00    +0.004 C 
ATOM     35  C   UNL     1     -10.143  -1.471   6.902  0.00  0.00    -0.003 C 
ENDBRANCH  33  35
ENDBRANCH  32  33
ENDBRANCH  31  32
ENDBRANCH  30  31
ENDBRANCH   1  30
TORSDOF 9
