REMARK  Name = ZINC40882347
REMARK  4 active torsions:
REMARK  status: ('A' for Active; 'I' for Inactive)
REMARK    1  A    between atoms: C_7  and  O_12
REMARK    2  A    between atoms: O_12  and  C_13
REMARK    3  A    between atoms: C_15  and  C_19
REMARK    4  A    between atoms: C_19  and  O_20
REMARK                            x       y       z     vdW  Elec       q    Type
REMARK                         _______ _______ _______ _____ _____    ______ ____
ROOT
ATOM      1  C   UNL     1       0.122   1.348   0.301  0.00  0.00    +0.001 A 
ATOM      2  C   UNL     1       1.329   2.045   0.285  0.00  0.00    +0.001 A 
ATOM      3  C   UNL     1       2.516   1.389   0.167  0.00  0.00    +0.010 A 
ATOM      4  C   UNL     1       2.527  -0.013   0.061  0.00  0.00    +0.004 A 
ATOM      5  C   UNL     1       1.300  -0.721   0.078  0.00  0.00    +0.026 A 
ATOM      6  C   UNL     1       0.096  -0.009   0.201  0.00  0.00    +0.012 A 
ATOM      7  C   UNL     1       1.311  -2.126  -0.029  0.00  0.00    +0.138 A 
ATOM      8  C   UNL     1       2.514  -2.787  -0.148  0.00  0.00    +0.048 A 
ATOM      9  C   UNL     1       3.714  -2.083  -0.164  0.00  0.00    +0.024 A 
ATOM     10  C   UNL     1       3.734  -0.724  -0.062  0.00  0.00    +0.049 A 
ATOM     11 CL   UNL     1       5.247   0.128  -0.085  0.00  0.00    -0.083 Cl
ENDROOT
BRANCH   7  12
ATOM     12  O   UNL     1       0.146  -2.824  -0.014  0.00  0.00    -0.437 OA
BRANCH  12  13
ATOM     13  C   UNL     1      -0.514  -2.986  -1.188  0.00  0.00    +0.221 A 
ATOM     14  C   UNL     1      -1.743  -3.634  -1.203  0.00  0.00    +0.073 A 
ATOM     15  C   UNL     1      -2.406  -3.793  -2.407  0.00  0.00    -0.016 A 
ATOM     16  C   UNL     1      -1.813  -3.296  -3.560  0.00  0.00    +0.026 A 
ATOM     17  C   UNL     1      -0.590  -2.663  -3.471  0.00  0.00    +0.115 A 
ATOM     18  N   UNL     1       0.016  -2.521  -2.307  0.00  0.00    -0.221 NA
BRANCH  15  19
ATOM     19  C   UNL     1      -3.740  -4.491  -2.466  0.00  0.00    +0.191 C 
BRANCH  19  20
ATOM     20  O   UNL     1      -4.787  -3.533  -2.297  0.00  0.00    -0.390 OA
ATOM     21  H   UNL     1      -5.676  -3.912  -2.324  0.00  0.00    +0.210 HD
ENDBRANCH  19  20
ENDBRANCH  15  19
ENDBRANCH  12  13
ENDBRANCH   7  12
TORSDOF 4
