REMARK  Name = ZINC10665951
REMARK  11 active torsions:
REMARK  status: ('A' for Active; 'I' for Inactive)
REMARK    1  A    between atoms: C_1  and  C_2
REMARK    2  A    between atoms: C_2  and  O_3
REMARK    3  A    between atoms: O_3  and  C_4
REMARK    4  A    between atoms: C_7  and  N_13
REMARK    5  A    between atoms: C_9  and  O_10
REMARK    6  A    between atoms: O_10  and  C_11
REMARK    7  A    between atoms: C_11  and  C_12
REMARK    8  A    between atoms: C_17  and  C_19
REMARK    9  A    between atoms: C_19  and  O_20
REMARK   10  A    between atoms: O_20  and  C_21
REMARK   11  A    between atoms: C_21  and  C_23
REMARK                            x       y       z     vdW  Elec       q    Type
REMARK                         _______ _______ _______ _____ _____    ______ ____
ROOT
ATOM      1  N   UNL     1       2.403   1.103  -0.015  0.00  0.00    -0.269 N 
ATOM      2  C   UNL     1       3.557   1.790  -0.124  0.00  0.00    +0.310 C 
ATOM      3  O   UNL     1       3.544   3.006  -0.118  0.00  0.00    -0.252 OA
ATOM      4  N   UNL     1       4.726   1.130  -0.240  0.00  0.00    -0.237 N 
ATOM      5  C   UNL     1       5.880   1.817  -0.349  0.00  0.00    +0.258 C 
ATOM      6  O   UNL     1       5.867   3.029  -0.343  0.00  0.00    -0.272 OA
ATOM      7  H   UNL     1       2.418   0.136   0.047  0.00  0.00    +0.156 HD
ATOM      8  H   UNL     1       4.737   0.160  -0.246  0.00  0.00    +0.159 HD
ENDROOT
BRANCH   1  12
ATOM      9  C   UNL     1      -1.236   3.145   0.058  0.00  0.00    +0.162 A 
ATOM     10  C   UNL     1      -0.115   3.703   0.651  0.00  0.00    +0.051 A 
ATOM     11  C   UNL     1       1.090   3.027   0.627  0.00  0.00    +0.027 A 
ATOM     12  C   UNL     1       1.180   1.787   0.009  0.00  0.00    +0.038 A 
ATOM     13  C   UNL     1       0.059   1.225  -0.586  0.00  0.00    +0.072 A 
ATOM     14  C   UNL     1      -1.148   1.905  -0.567  0.00  0.00    +0.164 A 
BRANCH   9  15
ATOM     15  O   UNL     1      -2.422   3.812   0.082  0.00  0.00    -0.489 OA
BRANCH  15  17
ATOM     16  C   UNL     1      -3.847   5.676   0.662  0.00  0.00    +0.048 C 
ATOM     17  C   UNL     1      -2.439   5.082   0.736  0.00  0.00    +0.226 C 
ENDBRANCH  15  17
ENDBRANCH   9  15
BRANCH  14  18
ATOM     18  O   UNL     1      -2.246   1.359  -1.154  0.00  0.00    -0.489 OA
BRANCH  18  19
ATOM     19  C   UNL     1      -2.084   0.080  -1.772  0.00  0.00    +0.226 C 
ATOM     20  C   UNL     1      -3.417  -0.369  -2.373  0.00  0.00    +0.048 C 
ENDBRANCH  18  19
ENDBRANCH  14  18
ENDBRANCH   1  12
BRANCH   5  21
ATOM     21  C   UNL     1       7.188   1.078  -0.479  0.00  0.00    +0.328 C 
BRANCH  21  22
ATOM     22  O   UNL     1       8.276   2.034  -0.581  0.00  0.00    -0.453 OA
BRANCH  22  23
ATOM     23  C   UNL     1       9.516   1.535  -0.704  0.00  0.00    +0.343 C 
ATOM     24  O   UNL     1       9.686   0.339  -0.725  0.00  0.00    -0.247 OA
BRANCH  23  25
ATOM     25  C   UNL     1      10.695   2.466  -0.814  0.00  0.00    +0.190 C 
ATOM     26  C   UNL     1      10.796   3.455   0.357  0.00  0.00    +0.059 C 
ATOM     27  C   UNL     1      11.676   2.654   1.335  0.00  0.00    +0.100 C 
ATOM     28  C   UNL     1      12.470   1.720   0.450  0.00  0.00    +0.221 C 
ATOM     29  O   UNL     1      13.392   1.027   0.825  0.00  0.00    -0.275 OA
ATOM     30  N   UNL     1      12.005   1.769  -0.825  0.00  0.00    -0.245 N 
ATOM     31  C   UNL     1      12.460   1.449  -2.120  0.00  0.00    +0.052 A 
ATOM     32  C   UNL     1      13.391   0.449  -2.441  0.00  0.00    +0.025 A 
ATOM     33  C   UNL     1      13.774   0.230  -3.745  0.00  0.00    +0.002 A 
ATOM     34  C   UNL     1      13.255   0.987  -4.780  0.00  0.00    +0.001 A 
ATOM     35  C   UNL     1      12.330   1.977  -4.492  0.00  0.00    +0.016 A 
ATOM     36  C   UNL     1      11.946   2.192  -3.190  0.00  0.00    +0.032 A 
ATOM     37  S   UNL     1      10.795   3.324  -2.434  0.00  0.00    -0.086 S 
ENDBRANCH  23  25
ENDBRANCH  22  23
ENDBRANCH  21  22
ENDBRANCH   5  21
TORSDOF 9
