REMARK  Name = ZINC05359652
REMARK  5 active torsions:
REMARK  status: ('A' for Active; 'I' for Inactive)
REMARK    1  A    between atoms: C_1  and  O_2
REMARK    2  A    between atoms: O_2  and  C_3
REMARK    3  A    between atoms: C_6  and  C_9
REMARK    4  A    between atoms: C_10  and  C_11
REMARK    5  A    between atoms: C_10  and  C_17
REMARK                            x       y       z     vdW  Elec       q    Type
REMARK                         _______ _______ _______ _____ _____    ______ ____
ROOT
ATOM      1  C   UNL     1      -0.078   1.507  -0.241  0.00  0.00    +0.021 C 
ATOM      2  C   UNL     1       1.112   2.070   0.108  0.00  0.00    +0.044 C 
ENDROOT
BRANCH   2   3
ATOM      3  C   UNL     1       2.338   1.252   0.121  0.00  0.00    +0.136 A 
ATOM      4  N   UNL     1       2.492  -0.058  -0.038  0.00  0.00    -0.140 NA
ATOM      5  N   UNL     1       3.628  -0.605   0.001  0.00  0.00    -0.126 NA
ATOM      6  C   UNL     1       4.737   0.097   0.203  0.00  0.00    +0.179 A 
ATOM      7  S   UNL     1       4.045   1.742   0.346  0.00  0.00    -0.031 S 
ATOM      8  N   UNL     1       6.055  -0.324   0.277  0.00  0.00    -0.336 N 
ATOM      9  H   UNL     1       6.270  -1.264   0.173  0.00  0.00    +0.144 HD
ATOM     10  H   UNL     1       6.762   0.322   0.431  0.00  0.00    +0.144 HD
ENDBRANCH   2   3
BRANCH   2  11
ATOM     11  C   UNL     1       1.174   3.497   0.472  0.00  0.00    +0.136 A 
ATOM     12  N   UNL     1       0.207   4.406   0.528  0.00  0.00    -0.140 NA
ATOM     13  N   UNL     1       0.435   5.600   0.865  0.00  0.00    -0.126 NA
ATOM     14  C   UNL     1       1.655   6.018   1.184  0.00  0.00    +0.179 A 
ATOM     15  S   UNL     1       2.573   4.496   0.974  0.00  0.00    -0.031 S 
ATOM     16  N   UNL     1       2.091   7.274   1.573  0.00  0.00    -0.336 N 
ATOM     17  H   UNL     1       1.460   8.007   1.644  0.00  0.00    +0.144 HD
ATOM     18  H   UNL     1       3.029   7.421   1.774  0.00  0.00    +0.144 HD
ENDBRANCH   2  11
BRANCH   1  22
ATOM     19  C   UNL     1      -0.179  -2.414  -1.852  0.00  0.00    +0.120 A 
ATOM     20  C   UNL     1      -1.091  -2.046  -0.870  0.00  0.00    +0.046 A 
ATOM     21  C   UNL     1      -1.063  -0.773  -0.343  0.00  0.00    +0.011 A 
ATOM     22  C   UNL     1      -0.113   0.149  -0.799  0.00  0.00    -0.024 A 
ATOM     23  C   UNL     1       0.799  -0.226  -1.793  0.00  0.00    +0.011 A 
ATOM     24  C   UNL     1       0.765  -1.503  -2.308  0.00  0.00    +0.046 A 
BRANCH  19  26
ATOM     25  C   UNL     1       0.753  -3.983  -3.375  0.00  0.00    +0.277 C 
ATOM     26  O   UNL     1      -0.212  -3.670  -2.368  0.00  0.00    -0.495 OA
ENDBRANCH  19  26
ENDBRANCH   1  22
TORSDOF 4
