REMARK  Name = ZINC44195290
REMARK  8 active torsions:
REMARK  status: ('A' for Active; 'I' for Inactive)
REMARK    1  A    between atoms: C_1  and  C_2
REMARK    2  A    between atoms: C_2  and  C_4
REMARK    3  A    between atoms: C_2  and  N_7
REMARK    4  A    between atoms: C_4  and  C_5
REMARK    5  A    between atoms: C_4  and  C_6
REMARK    6  A    between atoms: C_8  and  C_10
REMARK    7  A    between atoms: C_11  and  C_12
REMARK    8  A    between atoms: C_16  and  N_18
REMARK                            x       y       z     vdW  Elec       q    Type
REMARK                         _______ _______ _______ _____ _____    ______ ____
ROOT
ATOM      1  C   UNL     1       2.745  -1.300   2.284  0.00  0.00    +0.068 C 
ATOM      2  C   UNL     1       4.093  -1.291   2.312  0.00  0.00    +0.013 C 
ENDROOT
BRANCH   2   3
ATOM      3  C   UNL     1       4.853  -0.926   1.106  0.00  0.00    -0.023 A 
ATOM      4  C   UNL     1       4.491   0.204   0.364  0.00  0.00    +0.009 A 
ATOM      5  C   UNL     1       5.207   0.540  -0.765  0.00  0.00    +0.023 A 
ATOM      6  C   UNL     1       6.282  -0.237  -1.166  0.00  0.00    +0.071 A 
ATOM      7  C   UNL     1       6.645  -1.357  -0.436  0.00  0.00    +0.145 A 
ATOM      8  C   UNL     1       5.942  -1.702   0.699  0.00  0.00    +0.042 A 
ATOM      9 CL   UNL     1       7.177   0.194  -2.589  0.00  0.00    -0.081 Cl
BRANCH   7  10
ATOM     10  N   UNL     1       7.794  -2.182  -0.872  0.00  0.00    +0.058 N 
ATOM     11  O   UNL     1       8.112  -3.160  -0.236  0.00  0.00    -0.126 OA
ATOM     12  O   UNL     1       8.414  -1.878  -1.864  0.00  0.00    -0.126 OA
ENDBRANCH   7  10
ENDBRANCH   2   3
BRANCH   1  14
ATOM     13  N   UNL     1       0.698  -1.070   0.985  0.00  0.00    -0.309 N 
ATOM     14  C   UNL     1       2.039  -1.197   1.006  0.00  0.00    +0.237 C 
ATOM     15  O   UNL     1       2.664  -1.225  -0.038  0.00  0.00    -0.271 OA
ATOM     16  H   UNL     1       0.200  -1.048   1.817  0.00  0.00    +0.149 HD
BRANCH  13  18
ATOM     17  C   UNL     1      -0.010   0.492  -0.758  0.00  0.00    +0.028 C 
ATOM     18  C   UNL     1      -0.009  -0.966  -0.294  0.00  0.00    +0.073 C 
BRANCH  18  19
ATOM     19  C   UNL     1      -1.450  -1.448  -0.121  0.00  0.00    +0.003 C 
ATOM     20  C   UNL     1      -2.192  -0.506   0.829  0.00  0.00    +0.009 C 
ATOM     21  C   UNL     1      -2.151  -1.457  -1.481  0.00  0.00    +0.009 C 
ENDBRANCH  18  19
ENDBRANCH  13  18
ENDBRANCH   1  14
TORSDOF 5
