REMARK  Name = ZINC58279365
REMARK  6 active torsions:
REMARK  status: ('A' for Active; 'I' for Inactive)
REMARK    1  A    between atoms: C_1  and  C_2
REMARK    2  A    between atoms: C_5  and  C_9
REMARK    3  A    between atoms: C_10  and  C_11
REMARK    4  A    between atoms: N_13  and  C_14
REMARK    5  A    between atoms: C_18  and  C_20
REMARK    6  A    between atoms: C_20  and  C_27
REMARK                            x       y       z     vdW  Elec       q    Type
REMARK                         _______ _______ _______ _____ _____    ______ ____
ROOT
ATOM      1  C   UNL     1       0.036  -8.468   2.341  0.00  0.00    +0.034 A 
ATOM      2  C   UNL     1       0.052  -9.206   1.164  0.00  0.00    +0.023 A 
ATOM      3  C   UNL     1      -0.018 -10.584   1.213  0.00  0.00    +0.002 A 
ATOM      4  C   UNL     1      -0.104 -11.230   2.433  0.00  0.00    +0.006 A 
ATOM      5  C   UNL     1      -0.120 -10.499   3.607  0.00  0.00    -0.014 A 
ATOM      6  C   UNL     1      -0.045  -9.120   3.564  0.00  0.00    +0.029 A 
ENDROOT
BRANCH   5   7
ATOM      7  C   UNL     1      -0.215 -11.207   4.933  0.00  0.00    +0.135 C 
ATOM      8  C   UNL     1       1.056 -11.010   5.735  0.00  0.00    +0.248 C 
ATOM      9  O   UNL     1       1.517  -9.961   6.131  0.00  0.00    -0.273 OA
ATOM     10  N   UNL     1       1.567 -12.244   5.917  0.00  0.00    -0.238 N 
ATOM     11  C   UNL     1       0.803 -13.183   5.348  0.00  0.00    +0.307 C 
ATOM     12  O   UNL     1       1.058 -14.371   5.379  0.00  0.00    -0.252 OA
ATOM     13  N   UNL     1      -0.279 -12.666   4.739  0.00  0.00    -0.282 N 
ATOM     14  C   UNL     1      -1.433 -10.715   5.719  0.00  0.00    +0.047 C 
ATOM     15  H   UNL     1       2.387 -12.428   6.401  0.00  0.00    +0.159 HD
ATOM     16  H   UNL     1      -0.967 -13.158   4.264  0.00  0.00    +0.152 HD
ENDBRANCH   5   7
BRANCH   1  19
ATOM     17  C   UNL     1      -0.491  -6.400   1.292  0.00  0.00    +0.241 C 
ATOM     18  O   UNL     1      -1.021  -7.010   0.382  0.00  0.00    -0.270 OA
ATOM     19  N   UNL     1       0.108  -7.072   2.295  0.00  0.00    -0.282 N 
ATOM     20  H   UNL     1       0.589  -6.588   2.984  0.00  0.00    +0.155 HD
BRANCH  17  22
ATOM     21  C   UNL     1      -1.102  -4.264   0.293  0.00  0.00    +0.013 C 
ATOM     22  C   UNL     1      -0.503  -4.936   1.297  0.00  0.00    +0.068 C 
BRANCH  21  27
ATOM     23  C   UNL     1      -1.153   1.486   0.312  0.00  0.00    +0.045 C 
ATOM     24  C   UNL     1      -1.139  -0.021   0.307  0.00  0.00    -0.032 A 
ATOM     25  C   UNL     1      -1.743  -0.712  -0.729  0.00  0.00    +0.005 A 
ATOM     26  C   UNL     1      -1.735  -2.091  -0.741  0.00  0.00    +0.008 A 
ATOM     27  C   UNL     1      -1.114  -2.792   0.298  0.00  0.00    -0.023 A 
ATOM     28  C   UNL     1      -0.506  -2.088   1.342  0.00  0.00    +0.028 A 
ATOM     29  C   UNL     1      -0.518  -0.707   1.337  0.00  0.00    +0.044 A 
ATOM     30 CL   UNL     1       0.242   0.170   2.628  0.00  0.00    -0.083 Cl
ENDBRANCH  21  27
ENDBRANCH  17  22
ENDBRANCH   1  19
TORSDOF 4
