REMARK  Name = ZINC13570679
REMARK  8 active torsions:
REMARK  status: ('A' for Active; 'I' for Inactive)
REMARK    1  A    between atoms: C_1  and  C_2
REMARK    2  A    between atoms: C_5  and  N_9
REMARK    3  A    between atoms: C_6  and  C_8
REMARK    4  A    between atoms: C_13  and  N_14
REMARK    5  A    between atoms: N_14  and  C_15
REMARK    6  A    between atoms: C_20  and  O_21
REMARK    7  A    between atoms: O_21  and  C_22
REMARK    8  A    between atoms: C_23  and  C_25
REMARK                            x       y       z     vdW  Elec       q    Type
REMARK                         _______ _______ _______ _____ _____    ______ ____
ROOT
ATOM      1  N   UNL     1      -0.227  -4.132   0.459  0.00  0.00    -0.156 N 
ATOM      2  C   UNL     1      -0.794  -4.877  -0.511  0.00  0.00    +0.273 C 
ATOM      3  O   UNL     1      -1.513  -4.481  -1.414  0.00  0.00    -0.268 OA
ATOM      4  C   UNL     1      -0.371  -6.260  -0.262  0.00  0.00    +0.075 C 
ATOM      5  C   UNL     1      -0.699  -7.388  -0.995  0.00  0.00    +0.087 C 
ATOM      6  C   UNL     1       0.478  -6.186   0.936  0.00  0.00    +0.070 C 
ATOM      7  N   UNL     1       0.531  -4.942   1.304  0.00  0.00    -0.176 NA
ATOM      8  C   UNL     1       1.168  -7.344   1.611  0.00  0.00    +0.068 C 
ENDROOT
BRANCH   1  13
ATOM      9  C   UNL     1      -0.821   1.484   1.012  0.00  0.00    +0.044 C 
ATOM     10  C   UNL     1      -0.663  -0.007   0.865  0.00  0.00    -0.050 A 
ATOM     11  C   UNL     1      -0.210  -0.539  -0.329  0.00  0.00    +0.005 A 
ATOM     12  C   UNL     1      -0.065  -1.906  -0.466  0.00  0.00    +0.026 A 
ATOM     13  C   UNL     1      -0.373  -2.746   0.596  0.00  0.00    +0.063 A 
ATOM     14  C   UNL     1      -0.828  -2.209   1.792  0.00  0.00    -0.027 A 
ATOM     15  C   UNL     1      -0.967  -0.841   1.926  0.00  0.00    +0.008 A 
ATOM     16  C   UNL     1      -1.165  -3.117   2.947  0.00  0.00    +0.046 C 
ENDBRANCH   1  13
BRANCH   5  17
ATOM     17  N   UNL     1      -0.124  -8.573  -0.703  0.00  0.00    -0.317 N 
ATOM     18  H   UNL     1       0.581  -8.620  -0.039  0.00  0.00    +0.152 HD
BRANCH  17  19
ATOM     19  C   UNL     1      -0.546  -9.736  -1.358  0.00  0.00    +0.073 A 
ATOM     20  C   UNL     1      -1.551  -9.671  -2.313  0.00  0.00    +0.027 A 
ATOM     21  C   UNL     1      -1.965 -10.820  -2.959  0.00  0.00    +0.002 A 
ATOM     22  C   UNL     1      -1.381 -12.036  -2.656  0.00  0.00    +0.004 A 
ATOM     23  C   UNL     1      -0.380 -12.109  -1.706  0.00  0.00    +0.047 A 
ATOM     24  C   UNL     1       0.046 -10.961  -1.058  0.00  0.00    +0.141 A 
BRANCH  24  25
ATOM     25  O   UNL     1       1.034 -11.030  -0.127  0.00  0.00    -0.493 OA
ATOM     26  C   UNL     1       1.595 -12.319   0.130  0.00  0.00    +0.277 C 
ENDBRANCH  24  25
ENDBRANCH  17  19
ENDBRANCH   5  17
TORSDOF 4
