REMARK  Name = ZINC13249345
REMARK  7 active torsions:
REMARK  status: ('A' for Active; 'I' for Inactive)
REMARK    1  A    between atoms: C_1  and  C_2
REMARK    2  A    between atoms: C_2  and  C_3
REMARK    3  A    between atoms: C_2  and  C_5
REMARK    4  A    between atoms: C_2  and  N_8
REMARK    5  A    between atoms: N_8  and  S_9
REMARK    6  A    between atoms: S_9  and  C_12
REMARK    7  A    between atoms: C_16  and  C_18
REMARK                            x       y       z     vdW  Elec       q    Type
REMARK                         _______ _______ _______ _____ _____    ______ ____
ROOT
ATOM      1  S   UNL     1      -0.961   6.456  -0.316  0.00  0.00    +0.060 S 
ATOM      2  O   UNL     1      -0.643   7.823  -0.092  0.00  0.00    -0.153 OA
ATOM      3  O   UNL     1       0.015   5.425  -0.245  0.00  0.00    -0.153 OA
ENDROOT
BRANCH   1   4
ATOM      4  C   UNL     1      -2.222   6.036   0.840  0.00  0.00    +0.106 A 
ATOM      5  C   UNL     1      -2.314   4.741   1.321  0.00  0.00    +0.029 A 
ATOM      6  C   UNL     1      -3.301   4.402   2.229  0.00  0.00    +0.018 A 
ATOM      7  C   UNL     1      -4.203   5.354   2.661  0.00  0.00    +0.032 A 
ATOM      8  C   UNL     1      -4.115   6.663   2.179  0.00  0.00    +0.079 A 
ATOM      9  C   UNL     1      -3.118   6.996   1.259  0.00  0.00    +0.044 A 
ATOM     10 BR   UNL     1      -5.552   4.889   3.901  0.00  0.00    -0.049 Br
BRANCH   8  11
ATOM     11  C   UNL     1      -5.075   7.687   2.636  0.00  0.00    +0.388 C 
ATOM     12  O   UNL     1      -5.944   7.393   3.433  0.00  0.00    -0.241 OA
ATOM     13  O   UNL     1      -4.988   8.948   2.170  0.00  0.00    -0.241 OA
ENDBRANCH   8  11
ENDBRANCH   1   4
BRANCH   1  14
ATOM     14  N   UNL     1      -1.633   6.368  -1.827  0.00  0.00    -0.170 NA
ATOM     15  H   UNL     1      -1.676   7.160  -2.385  0.00  0.00    +0.150 HD
BRANCH  14  17
ATOM     16  C   UNL     1      -1.087   4.013  -2.198  0.00  0.00    +0.046 C 
ATOM     17  C   UNL     1      -2.163   5.095  -2.320  0.00  0.00    +0.126 C 
BRANCH  17  18
ATOM     18  C   UNL     1      -2.570   5.245  -3.787  0.00  0.00    +0.025 C 
ATOM     19  C   UNL     1      -4.051   5.073  -4.131  0.00  0.00    +0.007 C 
ATOM     20  C   UNL     1      -3.042   3.990  -4.522  0.00  0.00    +0.007 C 
ENDBRANCH  17  18
BRANCH  17  21
ATOM     21  C   UNL     1      -3.338   4.710  -1.522  0.00  0.00    +0.086 C 
ATOM     22  N   UNL     1      -4.245   4.413  -0.906  0.00  0.00    -0.195 NA
ENDBRANCH  17  21
ENDBRANCH  14  17
ENDBRANCH   1  14
TORSDOF 6
