REMARK  Name = ZINC12664215
REMARK  12 active torsions:
REMARK  status: ('A' for Active; 'I' for Inactive)
REMARK    1  A    between atoms: C_1  and  C_2
REMARK    2  A    between atoms: N_6  and  O_7
REMARK    3  A    between atoms: O_7  and  C_8
REMARK    4  A    between atoms: C_8  and  C_9
REMARK    5  A    between atoms: N_11  and  C_12
REMARK    6  A    between atoms: C_12  and  C_13
REMARK    7  A    between atoms: C_27  and  O_42
REMARK    8  A    between atoms: C_30  and  C_41
REMARK    9  A    between atoms: C_35  and  C_36
REMARK   10  A    between atoms: C_35  and  O_40
REMARK   11  A    between atoms: C_36  and  C_38
REMARK   12  A    between atoms: C_38  and  O_39
REMARK                            x       y       z     vdW  Elec       q    Type
REMARK                         _______ _______ _______ _____ _____    ______ ____
ROOT
ATOM      1  C   UNL     1       0.079   5.792  -1.126  0.00  0.00    +0.016 C 
ATOM      2  C   UNL     1       0.705   5.717   0.268  0.00  0.00    -0.005 C 
ATOM      3  C   UNL     1      -0.197   6.511   1.180  0.00  0.00    +0.017 C 
ATOM      4  C   UNL     1       0.563   7.127   2.355  0.00  0.00    +0.059 C 
ATOM      5  C   UNL     1       1.698   7.955   1.782  0.00  0.00    +0.080 C 
ATOM      6  N   UNL     1       1.885   9.191   2.123  0.00  0.00    -0.089 NA
ATOM      7  C   UNL     1       2.576   7.271   0.812  0.00  0.00    +0.026 C 
ATOM      8  C   UNL     1       2.106   6.230   0.139  0.00  0.00    -0.061 C 
ATOM      9  C   UNL     1       3.042   5.478  -0.792  0.00  0.00    +0.031 C 
ATOM     10  C   UNL     1       3.018   4.001  -0.383  0.00  0.00    +0.008 C 
ATOM     11  C   UNL     1       1.580   3.480  -0.394  0.00  0.00    -0.001 C 
ATOM     12  C   UNL     1       0.742   4.236   0.650  0.00  0.00    +0.031 C 
ATOM     13  C   UNL     1      -0.682   3.694   0.727  0.00  0.00    +0.119 C 
ATOM     14  C   UNL     1      -0.698   2.178   0.979  0.00  0.00    +0.041 C 
ATOM     15  C   UNL     1       0.087   1.528  -0.145  0.00  0.00    +0.009 C 
ATOM     16  C   UNL     1       1.557   2.011  -0.016  0.00  0.00    +0.002 C 
ATOM     17  C   UNL     1       2.280   1.063  -0.980  0.00  0.00    +0.008 C 
ATOM     18  C   UNL     1       1.607  -0.307  -0.691  0.00  0.00    +0.043 C 
ATOM     19  C   UNL     1       0.211   0.009  -0.098  0.00  0.00    +0.131 C 
ATOM     20  C   UNL     1      -0.484   1.960  -1.497  0.00  0.00    +0.015 C 
ENDROOT
BRANCH  19  21
ATOM     21  C   UNL     1      -0.867  -0.629  -0.935  0.00  0.00    +0.190 C 
ATOM     22  O   UNL     1      -0.652  -0.903  -2.091  0.00  0.00    -0.292 OA
BRANCH  21  23
ATOM     23  C   UNL     1      -2.215  -0.926  -0.328  0.00  0.00    +0.233 C 
BRANCH  23  24
ATOM     24  O   UNL     1      -3.059  -1.526  -1.313  0.00  0.00    -0.387 OA
ATOM     25  H   UNL     1      -3.944  -1.744  -0.992  0.00  0.00    +0.210 HD
ENDBRANCH  23  24
ENDBRANCH  21  23
ENDBRANCH  19  21
BRANCH  19  26
ATOM     26  O   UNL     1       0.128  -0.454   1.252  0.00  0.00    -0.380 OA
ATOM     27  H   UNL     1       0.201  -1.413   1.344  0.00  0.00    +0.211 HD
ENDBRANCH  19  26
BRANCH  13  28
ATOM     28  O   UNL     1      -1.374   4.350   1.791  0.00  0.00    -0.391 OA
ATOM     29  H   UNL     1      -2.289   4.058   1.904  0.00  0.00    +0.210 HD
ENDBRANCH  13  28
BRANCH   6  30
ATOM     30  O   UNL     1       2.958   9.925   1.562  0.00  0.00    -0.384 OA
BRANCH  30  31
ATOM     31  C   UNL     1       3.045  11.274   2.027  0.00  0.00    +0.358 C 
BRANCH  31  32
ATOM     32  C   UNL     1       4.215  11.958   1.369  0.00  0.00    +0.254 C 
ATOM     33  O   UNL     1       4.906  11.350   0.579  0.00  0.00    -0.272 OA
ATOM     34  N   UNL     1       4.494  13.244   1.658  0.00  0.00    -0.308 N 
ATOM     35  H   UNL     1       3.941  13.730   2.290  0.00  0.00    +0.149 HD
BRANCH  34  36
ATOM     36  C   UNL     1       5.631  13.909   1.018  0.00  0.00    +0.139 C 
BRANCH  36  37
ATOM     37  C   UNL     1       5.723  15.331   1.508  0.00  0.00    -0.027 A 
ATOM     38  C   UNL     1       5.063  16.355   0.846  0.00  0.00    +0.025 A 
ATOM     39  C   UNL     1       5.168  17.646   1.328  0.00  0.00    +0.111 A 
ATOM     40  N   UNL     1       5.891  17.910   2.398  0.00  0.00    -0.263 NA
ATOM     41  C   UNL     1       6.536  16.963   3.050  0.00  0.00    +0.111 A 
ATOM     42  C   UNL     1       6.474  15.648   2.630  0.00  0.00    +0.025 A 
ENDBRANCH  36  37
ENDBRANCH  34  36
ENDBRANCH  31  32
ENDBRANCH  30  31
ENDBRANCH   6  30
TORSDOF 10
