REMARK  Name = ZINC58364392
REMARK  8 active torsions:
REMARK  status: ('A' for Active; 'I' for Inactive)
REMARK    1  A    between atoms: C_1  and  C_2
REMARK    2  A    between atoms: C_5  and  O_8
REMARK    3  A    between atoms: O_8  and  C_9
REMARK    4  A    between atoms: C_12  and  N_15
REMARK    5  A    between atoms: C_16  and  C_18
REMARK    6  A    between atoms: C_18  and  C_19
REMARK    7  A    between atoms: C_19  and  C_20
REMARK    8  A    between atoms: C_19  and  N_25
REMARK                            x       y       z     vdW  Elec       q    Type
REMARK                         _______ _______ _______ _____ _____    ______ ____
ROOT
ATOM      1  N   UNL     1      -0.247  -6.826   4.747  0.00  0.00    -0.284 N 
ATOM      2  C   UNL     1      -0.461  -6.119   5.875  0.00  0.00    +0.219 C 
ATOM      3  O   UNL     1      -0.496  -4.907   5.833  0.00  0.00    -0.275 OA
ATOM      4  H   UNL     1      -0.136  -7.789   4.793  0.00  0.00    +0.155 HD
ENDROOT
BRANCH   1   8
ATOM      5  C   UNL     1      -0.018  -4.958   1.077  0.00  0.00    +0.221 A 
ATOM      6  C   UNL     1      -0.753  -4.346   2.084  0.00  0.00    +0.069 A 
ATOM      7  C   UNL     1      -0.842  -4.956   3.321  0.00  0.00    +0.030 A 
ATOM      8  C   UNL     1      -0.185  -6.171   3.510  0.00  0.00    +0.052 A 
ATOM      9  C   UNL     1       0.530  -6.723   2.458  0.00  0.00    +0.138 A 
ATOM     10  N   UNL     1       0.588  -6.114   1.289  0.00  0.00    -0.219 NA
BRANCH   5  11
ATOM     11  O   UNL     1       0.075  -4.367  -0.141  0.00  0.00    -0.438 OA
BRANCH  11  16
ATOM     12  C   UNL     1       2.705  -7.176  -4.254  0.00  0.00    +0.044 C 
ATOM     13  C   UNL     1       2.001  -6.424  -3.154  0.00  0.00    -0.050 A 
ATOM     14  C   UNL     1       0.818  -6.914  -2.630  0.00  0.00    +0.007 A 
ATOM     15  C   UNL     1       0.172  -6.227  -1.622  0.00  0.00    +0.046 A 
ATOM     16  C   UNL     1       0.709  -5.045  -1.133  0.00  0.00    +0.130 A 
ATOM     17  C   UNL     1       1.896  -4.556  -1.660  0.00  0.00    +0.046 A 
ATOM     18  C   UNL     1       2.542  -5.249  -2.665  0.00  0.00    +0.007 A 
ENDBRANCH  11  16
ENDBRANCH   5  11
ENDBRANCH   1   8
BRANCH   2  19
ATOM     19  C   UNL     1      -0.657  -6.834   7.187  0.00  0.00    +0.123 C 
BRANCH  19  20
ATOM     20  C   UNL     1      -0.879  -5.806   8.299  0.00  0.00    +0.120 C 
BRANCH  20  21
ATOM     21  N   UNL     1       0.334  -5.004   8.472  0.00  0.00    -0.292 N 
ATOM     22  C   UNL     1       1.495  -5.601   8.807  0.00  0.00    +0.298 C 
ATOM     23  O   UNL     1       1.535  -6.805   8.967  0.00  0.00    -0.253 OA
ATOM     24  N   UNL     1       2.611  -4.862   8.967  0.00  0.00    -0.313 N 
ATOM     25  H   UNL     1       0.302  -4.043   8.345  0.00  0.00    +0.151 HD
ATOM     26  H   UNL     1       2.579  -3.901   8.840  0.00  0.00    +0.146 HD
ATOM     27  H   UNL     1       3.446  -5.292   9.208  0.00  0.00    +0.146 HD
ENDBRANCH  20  21
BRANCH  20  28
ATOM     28  C   UNL     1      -1.197  -6.521   9.587  0.00  0.00    +0.010 A 
ATOM     29  C   UNL     1      -2.402  -6.738  10.168  0.00  0.00    +0.013 A 
ATOM     30  C   UNL     1      -2.454  -7.427  11.365  0.00  0.00    +0.008 A 
ATOM     31  C   UNL     1      -1.299  -7.866  11.922  0.00  0.00    +0.045 A 
ATOM     32  S   UNL     1      -0.084  -7.308  10.739  0.00  0.00    -0.100 S 
ENDBRANCH  20  28
ENDBRANCH  19  20
ENDBRANCH   2  19
TORSDOF 7
