REMARK  Name = ZINC09600664
REMARK  10 active torsions:
REMARK  status: ('A' for Active; 'I' for Inactive)
REMARK    1  A    between atoms: C_1  and  C_2
REMARK    2  A    between atoms: C_2  and  C_3
REMARK    3  A    between atoms: C_2  and  C_4
REMARK    4  A    between atoms: C_2  and  O_5
REMARK    5  A    between atoms: O_5  and  C_6
REMARK    6  A    between atoms: C_15  and  C_27
REMARK    7  A    between atoms: C_17  and  C_23
REMARK    8  A    between atoms: C_17  and  C_25
REMARK    9  A    between atoms: C_18  and  N_22
REMARK   10  A    between atoms: C_19  and  C_20
REMARK                            x       y       z     vdW  Elec       q    Type
REMARK                         _______ _______ _______ _____ _____    ______ ____
ROOT
ATOM      1  C   UNL     1      -0.092   4.057   3.676  0.00  0.00    +0.404 C 
ATOM      2  O   UNL     1       1.108   4.041   3.486  0.00  0.00    -0.226 OA
ATOM      3  N   UNL     1      -0.828   5.100   3.244  0.00  0.00    -0.263 N 
ATOM      4  C   UNL     1      -2.286   5.152   3.458  0.00  0.00    +0.138 C 
ATOM      5  C   UNL     1      -2.927   5.332   2.105  0.00  0.00    -0.003 C 
ATOM      6  C   UNL     1      -2.277   5.899   1.127  0.00  0.00    -0.026 C 
ATOM      7  C   UNL     1      -0.906   6.498   1.224  0.00  0.00    +0.048 C 
ATOM      8  C   UNL     1      -0.214   6.231   2.541  0.00  0.00    +0.120 C 
ATOM      9  C   UNL     1      -0.079   6.003   0.036  0.00  0.00    +0.068 C 
ATOM     10  C   UNL     1      -0.714   6.514  -1.259  0.00  0.00    +0.188 C 
ATOM     11  C   UNL     1      -2.184   6.213  -1.307  0.00  0.00    +0.054 C 
ATOM     12  C   UNL     1      -2.931   5.935  -0.209  0.00  0.00    +0.074 C 
ENDROOT
BRANCH   9  13
ATOM     13  C   UNL     1      -0.059   4.497   0.027  0.00  0.00    -0.041 A 
ATOM     14  C   UNL     1       1.026   3.817   0.548  0.00  0.00    +0.005 A 
ATOM     15  C   UNL     1       1.046   2.435   0.541  0.00  0.00    +0.020 A 
ATOM     16  C   UNL     1      -0.021   1.732   0.012  0.00  0.00    +0.041 A 
ATOM     17  C   UNL     1      -1.105   2.412  -0.515  0.00  0.00    +0.020 A 
ATOM     18  C   UNL     1      -1.125   3.794  -0.502  0.00  0.00    +0.005 A 
ATOM     19 CL   UNL     1       0.002  -0.004   0.002  0.00  0.00    -0.084 Cl
ENDBRANCH   9  13
BRANCH  11  20
ATOM     20  N   UNL     1      -2.803   6.218  -2.525  0.00  0.00    -0.358 N 
ATOM     21  H   UNL     1      -3.880   6.001  -2.596  0.00  0.00    +0.142 HD
ATOM     22  H   UNL     1      -2.226   6.439  -3.435  0.00  0.00    +0.142 HD
ENDBRANCH  11  20
BRANCH  12  23
ATOM     23  C   UNL     1      -4.334   5.681  -0.335  0.00  0.00    +0.101 C 
ATOM     24  N   UNL     1      -5.447   5.479  -0.435  0.00  0.00    -0.191 NA
ENDBRANCH  12  23
BRANCH  10  25
ATOM     25  C   UNL     1      -0.519   7.971  -1.347  0.00  0.00    +0.091 C 
ATOM     26  N   UNL     1      -0.368   9.095  -1.415  0.00  0.00    -0.194 NA
ENDBRANCH  10  25
BRANCH  10  27
ATOM     27  C   UNL     1      -0.050   5.872  -2.405  0.00  0.00    +0.091 C 
ATOM     28  N   UNL     1       0.463   5.377  -3.289  0.00  0.00    -0.194 NA
ENDBRANCH  10  27
BRANCH   1  29
ATOM     29  O   UNL     1      -0.685   3.034   4.318  0.00  0.00    -0.445 OA
BRANCH  29  31
ATOM     30  C   UNL     1       1.224   2.482   5.724  0.00  0.00    +0.055 C 
ATOM     31  C   UNL     1       0.170   1.945   4.755  0.00  0.00    +0.107 C 
ATOM     32  C   UNL     1      -0.677   0.883   5.460  0.00  0.00    +0.055 C 
ATOM     33  C   UNL     1       0.862   1.322   3.541  0.00  0.00    +0.055 C 
ENDBRANCH  29  31
ENDBRANCH   1  29
TORSDOF 7
