REMARK  Name = ZINC44198012
REMARK  10 active torsions:
REMARK  status: ('A' for Active; 'I' for Inactive)
REMARK    1  A    between atoms: C_13  and  C_14
REMARK    2  A    between atoms: C_14  and  O_15
REMARK    3  A    between atoms: O_15  and  C_16
REMARK    4  A    between atoms: N_18  and  C_19
REMARK    5  A    between atoms: C_19  and  C_21
REMARK    6  A    between atoms: C_19  and  C_24
REMARK    7  A    between atoms: C_21  and  C_22
REMARK    8  A    between atoms: C_22  and  O_23
REMARK    9  A    between atoms: C_27  and  O_31
REMARK   10  A    between atoms: C_28  and  O_30
REMARK                            x       y       z     vdW  Elec       q    Type
REMARK                         _______ _______ _______ _____ _____    ______ ____
ROOT
ATOM      1  C   UNL     1       6.424  -1.603   2.148  0.00  0.00    +0.401 C 
ATOM      2  O   UNL     1       6.225  -0.862   3.091  0.00  0.00    -0.226 OA
ATOM      3  N   UNL     1       7.517  -2.391   2.129  0.00  0.00    -0.274 N 
ATOM      4  H   UNL     1       7.676  -2.982   1.376  0.00  0.00    +0.153 HD
ENDROOT
BRANCH   1   5
ATOM      5  O   UNL     1       5.553  -1.635   1.122  0.00  0.00    -0.449 OA
BRANCH   5   6
ATOM      6  C   UNL     1       4.416  -0.773   1.209  0.00  0.00    +0.246 C 
BRANCH   6  19
ATOM      7  C   UNL     1      -0.017   1.375   0.010  0.00  0.00    +0.001 A 
ATOM      8  C   UNL     1       1.169   2.088   0.002  0.00  0.00    +0.000 A 
ATOM      9  C   UNL     1       2.380   1.420  -0.013  0.00  0.00    +0.005 A 
ATOM     10  C   UNL     1       2.408   0.042  -0.021  0.00  0.00    -0.029 A 
ATOM     11  C   UNL     1       1.221  -0.685  -0.013  0.00  0.00    -0.014 A 
ATOM     12  C   UNL     1       0.002  -0.004   0.002  0.00  0.00    +0.009 A 
ATOM     13  C   UNL     1       1.530  -2.136  -0.025  0.00  0.00    -0.014 A 
ATOM     14  C   UNL     1       0.694  -3.254  -0.023  0.00  0.00    +0.009 A 
ATOM     15  C   UNL     1       1.238  -4.521  -0.035  0.00  0.00    +0.001 A 
ATOM     16  C   UNL     1       2.611  -4.690  -0.050  0.00  0.00    +0.000 A 
ATOM     17  C   UNL     1       3.445  -3.587  -0.052  0.00  0.00    +0.005 A 
ATOM     18  C   UNL     1       2.910  -2.316  -0.040  0.00  0.00    -0.029 A 
ATOM     19  C   UNL     1       3.547  -0.948  -0.038  0.00  0.00    +0.088 C 
ENDBRANCH   6  19
ENDBRANCH   5   6
ENDBRANCH   1   5
BRANCH   3  20
ATOM     20  C   UNL     1       8.466  -2.355   3.245  0.00  0.00    +0.109 C 
BRANCH  20  21
ATOM     21  C   UNL     1       9.824  -2.796   2.764  0.00  0.00    -0.023 A 
ATOM     22  C   UNL     1       9.932  -3.842   1.867  0.00  0.00    +0.009 A 
ATOM     23  C   UNL     1      11.176  -4.251   1.423  0.00  0.00    +0.049 A 
ATOM     24  C   UNL     1      12.318  -3.610   1.876  0.00  0.00    +0.158 A 
ATOM     25  C   UNL     1      12.209  -2.557   2.779  0.00  0.00    +0.159 A 
ATOM     26  C   UNL     1      10.959  -2.150   3.216  0.00  0.00    +0.054 A 
BRANCH  25  27
ATOM     27  O   UNL     1      13.327  -1.925   3.227  0.00  0.00    -0.503 OA
ATOM     28  H   UNL     1      13.598  -1.172   2.684  0.00  0.00    +0.292 HD
ENDBRANCH  25  27
BRANCH  24  29
ATOM     29  O   UNL     1      13.542  -4.011   1.441  0.00  0.00    -0.503 OA
ATOM     30  H   UNL     1      13.844  -3.556   0.642  0.00  0.00    +0.292 HD
ENDBRANCH  24  29
ENDBRANCH  20  21
BRANCH  20  31
ATOM     31  C   UNL     1       7.986  -3.296   4.352  0.00  0.00    +0.055 C 
BRANCH  31  32
ATOM     32  C   UNL     1       6.666  -2.778   4.926  0.00  0.00    +0.158 C 
BRANCH  32  33
ATOM     33  O   UNL     1       6.218  -3.657   5.959  0.00  0.00    -0.395 OA
ATOM     34  H   UNL     1       5.384  -3.390   6.370  0.00  0.00    +0.209 HD
ENDBRANCH  32  33
ENDBRANCH  31  32
ENDBRANCH  20  31
ENDBRANCH   3  20
TORSDOF 10
