REMARK  Name = ZINC20296521
REMARK  4 active torsions:
REMARK  status: ('A' for Active; 'I' for Inactive)
REMARK    1  A    between atoms: N_9  and  C_12
REMARK    2  A    between atoms: C_12  and  C_13
REMARK    3  A    between atoms: C_17  and  C_19
REMARK    4  A    between atoms: C_19  and  N_21
REMARK                            x       y       z     vdW  Elec       q    Type
REMARK                         _______ _______ _______ _____ _____    ______ ____
ROOT
ATOM      1  C   UNL     1       2.486   1.048  -0.016  0.00  0.00    +0.161 C 
ENDROOT
BRANCH   1  10
ATOM      2  C   UNL     1       3.059  -1.743  -5.468  0.00  0.00    +0.001 A 
ATOM      3  C   UNL     1       3.840  -0.747  -6.042  0.00  0.00    +0.002 A 
ATOM      4  C   UNL     1       4.189   0.376  -5.326  0.00  0.00    +0.028 A 
ATOM      5  C   UNL     1       3.752   0.519  -4.007  0.00  0.00    +0.078 A 
ATOM      6  C   UNL     1       2.958  -0.495  -3.428  0.00  0.00    +0.065 A 
ATOM      7  C   UNL     1       2.616  -1.625  -4.170  0.00  0.00    +0.015 A 
ATOM      8  C   UNL     1       2.519  -0.318  -2.035  0.00  0.00    +0.262 A 
ATOM      9  O   UNL     1       1.837  -1.156  -1.475  0.00  0.00    -0.267 OA
ATOM     10  N   UNL     1       2.900   0.817  -1.403  0.00  0.00    -0.294 N 
ATOM     11  C   UNL     1       3.665   1.740  -2.040  0.00  0.00    +0.203 A 
ATOM     12  N   UNL     1       4.071   1.609  -3.266  0.00  0.00    -0.237 NA
ENDBRANCH   1  10
BRANCH   1  13
ATOM     13  C   UNL     1       1.171   1.783   0.001  0.00  0.00    -0.027 A 
ATOM     14  C   UNL     1       1.154   3.167   0.008  0.00  0.00    +0.005 A 
ATOM     15  C   UNL     1      -0.048   3.850   0.023  0.00  0.00    +0.001 A 
ATOM     16  C   UNL     1      -1.240   3.155   0.031  0.00  0.00    +0.010 A 
ATOM     17  C   UNL     1      -1.231   1.759   0.017  0.00  0.00    +0.003 A 
ATOM     18  C   UNL     1      -0.013   1.076   0.008  0.00  0.00    +0.015 A 
BRANCH  17  19
ATOM     19  C   UNL     1      -2.502   1.009   0.019  0.00  0.00    +0.077 C 
ATOM     20  S   UNL     1      -2.618  -0.477   0.862  0.00  0.00    -0.035 S 
BRANCH  19  21
ATOM     21  N   UNL     1      -3.571   1.494  -0.642  0.00  0.00    -0.352 N 
ATOM     22  H   UNL     1      -4.519   0.934  -0.641  0.00  0.00    +0.143 HD
ATOM     23  H   UNL     1      -3.497   2.448  -1.184  0.00  0.00    +0.143 HD
ENDBRANCH  19  21
ENDBRANCH  17  19
ENDBRANCH   1  13
TORSDOF 4
