REMARK  Name = ZINC57978611
REMARK  10 active torsions:
REMARK  status: ('A' for Active; 'I' for Inactive)
REMARK    1  A    between atoms: C_1  and  C_2
REMARK    2  A    between atoms: C_2  and  C_4
REMARK    3  A    between atoms: C_2  and  N_14
REMARK    4  A    between atoms: C_15  and  C_17
REMARK    5  A    between atoms: C_17  and  C_18
REMARK    6  A    between atoms: C_18  and  N_19
REMARK    7  A    between atoms: N_19  and  C_20
REMARK    8  A    between atoms: C_23  and  S_29
REMARK    9  A    between atoms: C_25  and  N_26
REMARK   10  A    between atoms: S_29  and  N_32
REMARK                            x       y       z     vdW  Elec       q    Type
REMARK                         _______ _______ _______ _____ _____    ______ ____
ROOT
ATOM      1  C   UNL     1      -0.399  -1.908  -4.663  0.00  0.00    +0.111 C 
ENDROOT
BRANCH   1   2
ATOM      2  N   UNL     1       0.323  -2.138  -5.917  0.00  0.00    -0.342 N 
ATOM      3  H   UNL     1       1.264  -2.375  -5.899  0.00  0.00    +0.146 HD
BRANCH   2   4
ATOM      4  C   UNL     1      -0.343  -2.017  -7.139  0.00  0.00    +0.058 A 
ATOM      5  C   UNL     1      -1.714  -1.799  -7.165  0.00  0.00    +0.027 A 
ATOM      6  C   UNL     1      -2.370  -1.679  -8.375  0.00  0.00    +0.030 A 
ATOM      7  C   UNL     1      -1.662  -1.776  -9.559  0.00  0.00    +0.107 A 
ATOM      8  C   UNL     1      -0.297  -1.994  -9.536  0.00  0.00    +0.063 A 
ATOM      9  C   UNL     1       0.366  -2.109  -8.330  0.00  0.00    +0.149 A 
BRANCH   9  10
ATOM     10  N   UNL     1       1.828  -2.336  -8.306  0.00  0.00    +0.058 N 
ATOM     11  O   UNL     1       2.509  -1.806  -7.459  0.00  0.00    -0.126 OA
ATOM     12  O   UNL     1       2.342  -3.051  -9.135  0.00  0.00    -0.126 OA
ENDBRANCH   9  10
BRANCH   7  13
ATOM     13  S   UNL     1      -2.502  -1.623 -11.100  0.00  0.00    +0.056 S 
ATOM     14  O   UNL     1      -1.705  -2.295 -12.066  0.00  0.00    -0.153 OA
ATOM     15  O   UNL     1      -3.859  -1.968 -10.859  0.00  0.00    -0.153 OA
BRANCH  13  16
ATOM     16  N   UNL     1      -2.487  -0.018 -11.508  0.00  0.00    -0.204 NA
ATOM     17  H   UNL     1      -2.485   0.245 -12.442  0.00  0.00    +0.144 HD
ATOM     18  H   UNL     1      -2.481   0.659 -10.814  0.00  0.00    +0.144 HD
ENDBRANCH  13  16
ENDBRANCH   7  13
ENDBRANCH   2   4
ENDBRANCH   1   2
BRANCH   1  19
ATOM     19  C   UNL     1       0.555  -2.103  -3.483  0.00  0.00    +0.114 C 
BRANCH  19  21
ATOM     20  N   UNL     1       0.455  -1.983  -1.014  0.00  0.00    -0.309 N 
ATOM     21  C   UNL     1      -0.188  -1.866  -2.193  0.00  0.00    +0.215 C 
ATOM     22  O   UNL     1      -1.364  -1.571  -2.216  0.00  0.00    -0.276 OA
ATOM     23  H   UNL     1       1.395  -2.220  -0.996  0.00  0.00    +0.149 HD
BRANCH  20  25
ATOM     24  C   UNL     1      -0.272  -0.256   0.558  0.00  0.00    +0.033 C 
ATOM     25  C   UNL     1      -0.267  -1.753   0.240  0.00  0.00    +0.100 C 
BRANCH  25  26
ATOM     26  C   UNL     1       0.414  -2.501   1.356  0.00  0.00    -0.027 A 
ATOM     27  C   UNL     1       1.794  -2.542   1.424  0.00  0.00    +0.006 A 
ATOM     28  C   UNL     1       2.410  -3.232   2.447  0.00  0.00    +0.004 A 
ATOM     29  C   UNL     1       1.655  -3.885   3.412  0.00  0.00    -0.044 A 
ATOM     30  C   UNL     1       0.281  -3.841   3.348  0.00  0.00    -0.044 A 
ATOM     31  C   UNL     1      -0.338  -3.144   2.318  0.00  0.00    +0.009 A 
ATOM     32  C   UNL     1      -0.600  -4.512   4.369  0.00  0.00    +0.035 C 
ATOM     33  C   UNL     1       0.188  -5.557   5.155  0.00  0.00    +0.005 C 
ATOM     34  C   UNL     1       1.470  -4.901   5.682  0.00  0.00    +0.005 C 
ATOM     35  C   UNL     1       2.393  -4.626   4.497  0.00  0.00    +0.035 C 
ENDBRANCH  25  26
ENDBRANCH  20  25
ENDBRANCH  19  21
ENDBRANCH   1  19
TORSDOF 9
