REMARK  Name = ZINC05470608
REMARK  7 active torsions:
REMARK  status: ('A' for Active; 'I' for Inactive)
REMARK    1  A    between atoms: C_1  and  C_2
REMARK    2  A    between atoms: C_2  and  C_3
REMARK    3  A    between atoms: C_8  and  O_9
REMARK    4  A    between atoms: O_9  and  C_10
REMARK    5  A    between atoms: C_12  and  C_26
REMARK    6  A    between atoms: C_13  and  C_17
REMARK    7  A    between atoms: N_15  and  O_16
REMARK                            x       y       z     vdW  Elec       q    Type
REMARK                         _______ _______ _______ _____ _____    ______ ____
ROOT
ATOM      1  C   UNL     1       0.707  -0.490  -1.238  0.00  0.00    -0.005 A 
ATOM      2  C   UNL     1      -0.022  -0.816  -2.362  0.00  0.00    +0.021 A 
ATOM      3  C   UNL     1       0.637  -1.264  -3.501  0.00  0.00    +0.045 A 
ATOM      4  C   UNL     1       2.034  -1.391  -3.517  0.00  0.00    +0.141 A 
ATOM      5  C   UNL     1       2.755  -1.056  -2.380  0.00  0.00    +0.092 A 
ATOM      6  C   UNL     1       2.094  -0.604  -1.249  0.00  0.00    +0.127 A 
ATOM      7  O   UNL     1       2.667  -1.840  -4.621  0.00  0.00    -0.459 OA
ATOM      8  C   UNL     1       2.061  -1.891  -5.814  0.00  0.00    +0.115 A 
ATOM      9  C   UNL     1       0.717  -1.801  -5.959  0.00  0.00    +0.082 A 
ATOM     10  C   UNL     1      -0.107  -1.619  -4.734  0.00  0.00    +0.096 A 
ATOM     11  N   UNL     1      -1.407  -1.763  -4.744  0.00  0.00    -0.229 N 
ATOM     12  C   UNL     1       2.910  -2.055  -7.048  0.00  0.00    +0.087 C 
ATOM     13  H   UNL     1      -1.915  -1.637  -3.928  0.00  0.00    +0.206 HD
ENDROOT
BRANCH   9  14
ATOM     14  C   UNL     1       0.089  -1.879  -7.292  0.00  0.00    +0.142 A 
ATOM     15  C   UNL     1       0.098  -2.972  -8.095  0.00  0.00    +0.058 A 
ATOM     16  C   UNL     1      -0.637  -2.594  -9.304  0.00  0.00    +0.021 A 
ATOM     17  C   UNL     1      -0.973  -3.256 -10.485  0.00  0.00    +0.011 A 
ATOM     18  C   UNL     1      -1.689  -2.602 -11.449  0.00  0.00    +0.001 A 
ATOM     19  C   UNL     1      -2.083  -1.285 -11.259  0.00  0.00    +0.004 A 
ATOM     20  C   UNL     1      -1.760  -0.614 -10.098  0.00  0.00    +0.047 A 
ATOM     21  C   UNL     1      -1.034  -1.260  -9.105  0.00  0.00    +0.136 A 
ATOM     22  O   UNL     1      -0.584  -0.878  -7.892  0.00  0.00    -0.455 OA
ENDBRANCH   9  14
BRANCH   1  24
ATOM     23  C   UNL     1      -0.019   1.526   0.010  0.00  0.00    +0.009 C 
ATOM     24  C   UNL     1       0.002  -0.004   0.002  0.00  0.00    +0.035 C 
ENDBRANCH   1  24
BRANCH   6  25
ATOM     25  O   UNL     1       2.805  -0.273  -0.141  0.00  0.00    -0.495 OA
ATOM     26  C   UNL     1       4.225  -0.412  -0.216  0.00  0.00    +0.277 C 
ENDBRANCH   6  25
BRANCH  11  27
ATOM     27  O   UNL     1      -2.073  -2.103  -5.947  0.00  0.00    -0.433 OA
ATOM     28  H   UNL     1      -3.032  -2.187  -5.856  0.00  0.00    +0.325 HD
ENDBRANCH  11  27
TORSDOF 4
