REMARK  Name = ZINC42163037
REMARK  5 active torsions:
REMARK  status: ('A' for Active; 'I' for Inactive)
REMARK    1  A    between atoms: C_4  and  C_7
REMARK    2  A    between atoms: C_9  and  C_12
REMARK    3  A    between atoms: C_12  and  N_13
REMARK    4  A    between atoms: C_17  and  C_19
REMARK    5  A    between atoms: C_19  and  C_20
REMARK                            x       y       z     vdW  Elec       q    Type
REMARK                         _______ _______ _______ _____ _____    ______ ____
ROOT
ATOM      1  C   UNL     1       3.699  -0.689  -0.037  0.00  0.00    +0.113 A 
ATOM      2  C   UNL     1       3.872  -2.094  -0.052  0.00  0.00    +0.074 A 
ATOM      3  C   UNL     1       5.191  -2.352  -0.065  0.00  0.00    +0.122 A 
ATOM      4  O   UNL     1       5.848  -1.182  -0.058  0.00  0.00    -0.361 OA
ATOM      5  N   UNL     1       4.889  -0.139  -0.047  0.00  0.00    -0.078 NA
ENDROOT
BRANCH   1   9
ATOM      6  C   UNL     1      -0.017   1.379   0.010  0.00  0.00    +0.000 A 
ATOM      7  C   UNL     1       1.169   2.092   0.002  0.00  0.00    +0.001 A 
ATOM      8  C   UNL     1       2.377   1.426  -0.013  0.00  0.00    +0.010 A 
ATOM      9  C   UNL     1       2.402   0.033  -0.021  0.00  0.00    +0.004 A 
ATOM     10  C   UNL     1       1.205  -0.680  -0.013  0.00  0.00    +0.010 A 
ATOM     11  C   UNL     1       0.002  -0.004   0.002  0.00  0.00    +0.001 A 
ENDBRANCH   1   9
BRANCH   3  12
ATOM     12  C   UNL     1       5.824  -3.720  -0.082  0.00  0.00    +0.000 C 
BRANCH  12  13
ATOM     13  N   UNL     1       6.019  -4.151  -1.473  0.00  0.00    +0.387 N 
ATOM     14  C   UNL     1       4.705  -4.342  -2.123  0.00  0.00    -0.078 C 
ATOM     15  C   UNL     1       4.902  -5.558  -3.063  0.00  0.00    -0.020 C 
ATOM     16  C   UNL     1       5.843  -6.457  -2.219  0.00  0.00    -0.017 C 
ATOM     17  C   UNL     1       6.745  -5.434  -1.497  0.00  0.00    -0.057 C 
ATOM     18  H   UNL     1       6.546  -3.453  -1.975  0.00  0.00    -0.081 HD
BRANCH  17  19
ATOM     19  C   UNL     1       8.062  -5.272  -2.259  0.00  0.00    +0.110 C 
BRANCH  19  20
ATOM     20  C   UNL     1       8.963  -4.323  -1.510  0.00  0.00    +0.354 C 
ATOM     21  O   UNL     1       8.586  -3.823  -0.464  0.00  0.00    -0.246 OA
ATOM     22  O   UNL     1      10.068  -4.056  -1.950  0.00  0.00    -0.246 OA
ENDBRANCH  19  20
ENDBRANCH  17  19
ENDBRANCH  12  13
ENDBRANCH   3  12
TORSDOF 5
