REMARK  Name = ZINC12786875
REMARK  9 active torsions:
REMARK  status: ('A' for Active; 'I' for Inactive)
REMARK    1  A    between atoms: C_1  and  C_2
REMARK    2  A    between atoms: C_2  and  N_3
REMARK    3  A    between atoms: N_3  and  C_4
REMARK    4  A    between atoms: C_5  and  N_20
REMARK    5  A    between atoms: N_6  and  C_13
REMARK    6  A    between atoms: C_13  and  C_14
REMARK    7  A    between atoms: C_21  and  C_23
REMARK    8  A    between atoms: C_27  and  C_37
REMARK    9  A    between atoms: N_28  and  C_30
REMARK                            x       y       z     vdW  Elec       q    Type
REMARK                         _______ _______ _______ _____ _____    ______ ____
ROOT
ATOM      1  N   UNL     1       5.861   1.739   0.226  0.00  0.00    -0.259 N 
ATOM      2  C   UNL     1       5.851   3.086   0.245  0.00  0.00    +0.275 C 
ATOM      3  O   UNL     1       6.872   3.698   0.495  0.00  0.00    -0.268 OA
ENDROOT
BRANCH   1   4
ATOM      4  C   UNL     1       7.071   1.039   0.410  0.00  0.00    +0.140 A 
ATOM      5  C   UNL     1       8.103   1.171  -0.496  0.00  0.00    +0.128 A 
ATOM      6  N   UNL     1       9.274   0.479  -0.287  0.00  0.00    -0.276 N 
ATOM      7  C   UNL     1       9.407  -0.324   0.784  0.00  0.00    +0.331 A 
ATOM      8  O   UNL     1      10.448  -0.931   0.948  0.00  0.00    -0.246 OA
ATOM      9  N   UNL     1       8.411  -0.468   1.675  0.00  0.00    -0.273 N 
ATOM     10  H   UNL     1       8.537  -1.071   2.463  0.00  0.00    +0.173 HD
ATOM     11  C   UNL     1       7.246   0.190   1.520  0.00  0.00    +0.277 A 
ATOM     12  O   UNL     1       6.349   0.052   2.334  0.00  0.00    -0.266 OA
BRANCH   5  13
ATOM     13  N   UNL     1       7.965   1.988  -1.593  0.00  0.00    -0.343 N 
ATOM     14  H   UNL     1       7.148   2.496  -1.720  0.00  0.00    +0.144 HD
ATOM     15  H   UNL     1       8.683   2.055  -2.241  0.00  0.00    +0.144 HD
ENDBRANCH   5  13
BRANCH   6  16
ATOM     16  C   UNL     1      10.379   0.614  -1.239  0.00  0.00    +0.163 C 
BRANCH  16  17
ATOM     17  C   UNL     1      10.242  -0.429  -2.318  0.00  0.00    -0.028 A 
ATOM     18  C   UNL     1      10.839  -1.667  -2.163  0.00  0.00    +0.005 A 
ATOM     19  C   UNL     1      10.710  -2.625  -3.150  0.00  0.00    +0.000 A 
ATOM     20  C   UNL     1       9.992  -2.343  -4.298  0.00  0.00    +0.000 A 
ATOM     21  C   UNL     1       9.400  -1.104  -4.456  0.00  0.00    +0.000 A 
ATOM     22  C   UNL     1       9.525  -0.147  -3.466  0.00  0.00    +0.005 A 
ENDBRANCH  16  17
ENDBRANCH   6  16
ENDBRANCH   1   4
BRANCH   2  23
ATOM     23  C   UNL     1       4.601   3.820  -0.037  0.00  0.00    +0.193 A 
ATOM     24  C   UNL     1       4.546   5.284   0.092  0.00  0.00    +0.213 A 
ATOM     25  O   UNL     1       5.525   5.930   0.434  0.00  0.00    -0.285 OA
ATOM     26  C   UNL     1       3.308   5.914  -0.197  0.00  0.00    +0.076 A 
ATOM     27  C   UNL     1       2.271   5.128  -0.570  0.00  0.00    +0.044 A 
ATOM     28  N   UNL     1       2.416   3.784  -0.662  0.00  0.00    -0.233 N 
ATOM     29  N   UNL     1       3.514   3.175  -0.405  0.00  0.00    -0.158 NA
ATOM     30  C   UNL     1       0.938   5.756  -0.886  0.00  0.00    +0.066 C 
BRANCH  28  31
ATOM     31  C   UNL     1       1.309   3.021  -1.052  0.00  0.00    +0.101 A 
ATOM     32  C   UNL     1       0.238   2.854  -0.183  0.00  0.00    +0.031 A 
ATOM     33  C   UNL     1      -0.853   2.102  -0.571  0.00  0.00    +0.002 A 
ATOM     34  C   UNL     1      -0.879   1.509  -1.820  0.00  0.00    +0.003 A 
ATOM     35  C   UNL     1       0.182   1.677  -2.691  0.00  0.00    +0.040 A 
ATOM     36  C   UNL     1       1.278   2.429  -2.310  0.00  0.00    +0.149 A 
ATOM     37  F   UNL     1       2.317   2.589  -3.159  0.00  0.00    -0.203 F 
ENDBRANCH  28  31
ENDBRANCH   2  23
BRANCH   1  39
ATOM     38  C   UNL     1       4.356   0.854  -1.487  0.00  0.00    +0.025 C 
ATOM     39  C   UNL     1       4.613   1.000   0.014  0.00  0.00    +0.111 C 
ENDBRANCH   1  39
TORSDOF 7
