REMARK  Name = ZINC51755632
REMARK  11 active torsions:
REMARK  status: ('A' for Active; 'I' for Inactive)
REMARK    1  A    between atoms: C_1  and  C_2
REMARK    2  A    between atoms: C_5  and  C_11
REMARK    3  A    between atoms: C_6  and  C_10
REMARK    4  A    between atoms: C_7  and  O_8
REMARK    5  A    between atoms: O_8  and  C_9
REMARK    6  A    between atoms: C_11  and  N_12
REMARK    7  A    between atoms: N_15  and  C_16
REMARK    8  A    between atoms: N_15  and  C_17
REMARK    9  A    between atoms: C_17  and  C_18
REMARK   10  A    between atoms: C_18  and  C_20
REMARK   11  A    between atoms: C_18  and  C_21
REMARK                            x       y       z     vdW  Elec       q    Type
REMARK                         _______ _______ _______ _____ _____    ______ ____
ROOT
ATOM      1  C   UNL     1       0.060  -4.231  -0.172  0.00  0.00    +0.161 C 
ENDROOT
BRANCH   1   6
ATOM      2  C   UNL     1      -0.018   1.503   0.010  0.00  0.00    +0.049 C 
ATOM      3  C   UNL     1       0.002  -0.004   0.002  0.00  0.00    +0.010 A 
ATOM      4  C   UNL     1       0.006  -0.697  -1.191  0.00  0.00    +0.118 A 
ATOM      5  N   UNL     1       0.024  -2.016  -1.207  0.00  0.00    -0.258 NA
ATOM      6  C   UNL     1       0.040  -2.726  -0.095  0.00  0.00    +0.065 A 
ATOM      7  C   UNL     1       0.037  -2.108   1.139  0.00  0.00    +0.014 A 
ATOM      8  C   UNL     1       0.023  -0.716   1.198  0.00  0.00    +0.129 A 
ATOM      9  C   UNL     1       0.054  -2.926   2.404  0.00  0.00    +0.049 C 
BRANCH   8  10
ATOM     10  O   UNL     1       0.025  -0.071   2.393  0.00  0.00    -0.494 OA
ATOM     11  C   UNL     1      -1.247   0.220   2.975  0.00  0.00    +0.277 C 
ENDBRANCH   8  10
ENDBRANCH   1   6
BRANCH   1  12
ATOM     12  N   UNL     1       1.447  -4.700  -0.204  0.00  0.00    -0.294 N 
ATOM     13  C   UNL     1       1.711  -6.020  -0.274  0.00  0.00    +0.302 C 
ATOM     14  O   UNL     1       0.798  -6.821  -0.310  0.00  0.00    -0.253 OA
ATOM     15  N   UNL     1       2.988  -6.451  -0.304  0.00  0.00    -0.287 N 
ATOM     16  C   UNL     1       4.088  -5.485  -0.260  0.00  0.00    +0.133 C 
ATOM     17  H   UNL     1       2.176  -4.060  -0.176  0.00  0.00    +0.151 HD
BRANCH  15  18
ATOM     18  C   UNL     1       3.275  -7.886  -0.379  0.00  0.00    +0.127 C 
BRANCH  18  19
ATOM     19  C   UNL     1       3.366  -8.311  -1.846  0.00  0.00    +0.106 C 
ATOM     20  C   UNL     1       4.565  -7.623  -2.503  0.00  0.00    +0.025 C 
BRANCH  19  21
ATOM     21  C   UNL     1       3.535  -9.771  -1.924  0.00  0.00    +0.067 C 
ATOM     22  N   UNL     1       3.665 -10.898  -1.985  0.00  0.00    -0.196 NA
ENDBRANCH  19  21
ENDBRANCH  18  19
ENDBRANCH  15  18
ENDBRANCH   1  12
TORSDOF 6
