REMARK  Name = ZINC11859110
REMARK  9 active torsions:
REMARK  status: ('A' for Active; 'I' for Inactive)
REMARK    1  A    between atoms: C_1  and  C_2
REMARK    2  A    between atoms: C_2  and  O_3
REMARK    3  A    between atoms: O_3  and  C_4
REMARK    4  A    between atoms: C_6  and  C_11
REMARK    5  A    between atoms: C_9  and  O_10
REMARK    6  A    between atoms: C_13  and  C_25
REMARK    7  A    between atoms: C_15  and  C_20
REMARK    8  A    between atoms: C_15  and  O_24
REMARK    9  A    between atoms: C_25  and  C_27
REMARK                            x       y       z     vdW  Elec       q    Type
REMARK                         _______ _______ _______ _____ _____    ______ ____
ROOT
ATOM      1  C   UNL     1       1.382   3.510   0.887  0.00  0.00    +0.120 C 
ATOM      2  C   UNL     1       1.756   2.232   0.129  0.00  0.00    +0.144 C 
ATOM      3  C   UNL     1       1.831   2.556  -1.367  0.00  0.00    +0.243 C 
ATOM      4  N   UNL     1       0.561   3.146  -1.794  0.00  0.00    -0.264 N 
ATOM      5  C   UNL     1      -0.202   3.851  -0.946  0.00  0.00    +0.302 C 
ATOM      6  O   UNL     1      -1.242   4.329  -1.355  0.00  0.00    -0.253 OA
ATOM      7  N   UNL     1       0.137   4.049   0.337  0.00  0.00    -0.292 N 
ATOM      8  H   UNL     1       0.266   3.025  -2.710  0.00  0.00    +0.153 HD
ATOM      9  H   UNL     1      -0.455   4.559   0.912  0.00  0.00    +0.151 HD
ENDROOT
BRANCH   1  12
ATOM     10  C   UNL     1       2.070   3.073   4.576  0.00  0.00    +0.162 A 
ATOM     11  C   UNL     1       2.243   3.360   3.232  0.00  0.00    +0.055 A 
ATOM     12  C   UNL     1       1.193   3.193   2.348  0.00  0.00    -0.023 A 
ATOM     13  C   UNL     1      -0.028   2.729   2.801  0.00  0.00    +0.009 A 
ATOM     14  C   UNL     1      -0.206   2.437   4.140  0.00  0.00    +0.049 A 
ATOM     15  C   UNL     1       0.840   2.607   5.032  0.00  0.00    +0.158 A 
BRANCH  15  16
ATOM     16  O   UNL     1       0.666   2.319   6.350  0.00  0.00    -0.503 OA
ATOM     17  H   UNL     1       0.877   1.405   6.583  0.00  0.00    +0.292 HD
ENDBRANCH  15  16
BRANCH  10  18
ATOM     18  O   UNL     1       3.100   3.242   5.448  0.00  0.00    -0.489 OA
BRANCH  18  20
ATOM     19  C   UNL     1       5.365   3.849   6.031  0.00  0.00    +0.048 C 
ATOM     20  C   UNL     1       4.333   3.724   4.909  0.00  0.00    +0.226 C 
ENDBRANCH  18  20
ENDBRANCH  10  18
ENDBRANCH   1  12
BRANCH   3  21
ATOM     21  C   UNL     1       2.089   1.271  -2.156  0.00  0.00    +0.436 C 
ATOM     22  F   UNL     1       0.986   0.419  -2.033  0.00  0.00    -0.166 F 
ATOM     23  F   UNL     1       2.288   1.584  -3.505  0.00  0.00    -0.166 F 
ATOM     24  F   UNL     1       3.228   0.635  -1.651  0.00  0.00    -0.166 F 
ENDBRANCH   3  21
BRANCH   3  25
ATOM     25  O   UNL     1       2.892   3.484  -1.602  0.00  0.00    -0.364 OA
ATOM     26  H   UNL     1       2.997   3.734  -2.530  0.00  0.00    +0.212 HD
ENDBRANCH   3  25
BRANCH   2  27
ATOM     27  C   UNL     1       0.706   1.178   0.367  0.00  0.00    +0.173 C 
ATOM     28  O   UNL     1      -0.426   1.349  -0.032  0.00  0.00    -0.292 OA
BRANCH  27  29
ATOM     29  C   UNL     1       1.055  -0.062   1.078  0.00  0.00    +0.018 A 
ATOM     30  C   UNL     1       2.379  -0.305   1.458  0.00  0.00    +0.011 A 
ATOM     31  C   UNL     1       2.698  -1.467   2.128  0.00  0.00    +0.001 A 
ATOM     32  C   UNL     1       1.714  -2.396   2.417  0.00  0.00    +0.000 A 
ATOM     33  C   UNL     1       0.402  -2.165   2.040  0.00  0.00    +0.001 A 
ATOM     34  C   UNL     1       0.066  -1.006   1.373  0.00  0.00    +0.011 A 
ENDBRANCH  27  29
ENDBRANCH   2  27
TORSDOF 8
