REMARK  Name = ZINC03284271
REMARK  10 active torsions:
REMARK  status: ('A' for Active; 'I' for Inactive)
REMARK    1  A    between atoms: C_1  and  C_2
REMARK    2  A    between atoms: C_2  and  C_4
REMARK    3  A    between atoms: C_9  and  N_10
REMARK    4  A    between atoms: C_11  and  C_13
REMARK    5  A    between atoms: C_13  and  O_14
REMARK    6  A    between atoms: O_14  and  C_15
REMARK    7  A    between atoms: C_15  and  C_17
REMARK    8  A    between atoms: C_20  and  N_25
REMARK    9  A    between atoms: C_22  and  O_23
REMARK   10  A    between atoms: O_23  and  C_24
REMARK                            x       y       z     vdW  Elec       q    Type
REMARK                         _______ _______ _______ _____ _____    ______ ____
ROOT
ATOM      1  O   UNL     1      -2.417   1.012  -0.032  0.00  0.00    -0.452 OA
ENDROOT
BRANCH   1   2
ATOM      2  C   UNL     1      -3.667   1.516  -0.043  0.00  0.00    +0.343 C 
ATOM      3  O   UNL     1      -3.837   2.719  -0.051  0.00  0.00    -0.245 OA
BRANCH   2   4
ATOM      4  C   UNL     1      -4.825   0.609  -0.046  0.00  0.00    +0.102 A 
ATOM      5  C   UNL     1      -4.632  -0.777  -0.037  0.00  0.00    +0.040 A 
ATOM      6  C   UNL     1      -5.707  -1.618  -0.039  0.00  0.00    +0.063 A 
ATOM      7  C   UNL     1      -7.004  -1.103  -0.051  0.00  0.00    +0.047 A 
ATOM      8  C   UNL     1      -7.212   0.270  -0.059  0.00  0.00    +0.070 A 
ATOM      9  C   UNL     1      -6.129   1.131  -0.052  0.00  0.00    +0.136 A 
ATOM     10 CL   UNL     1      -5.460  -3.336  -0.028  0.00  0.00    -0.082 Cl
BRANCH   7  11
ATOM     11  N   UNL     1      -8.093  -1.969  -0.053  0.00  0.00    -0.357 N 
ATOM     12  H   UNL     1      -7.950  -2.928  -0.047  0.00  0.00    +0.142 HD
ATOM     13  H   UNL     1      -8.995  -1.613  -0.061  0.00  0.00    +0.142 HD
ENDBRANCH   7  11
BRANCH   9  14
ATOM     14  O   UNL     1      -6.325   2.474  -0.055  0.00  0.00    -0.494 OA
ATOM     15  C   UNL     1      -7.679   2.931  -0.061  0.00  0.00    +0.277 C 
ENDBRANCH   9  14
ENDBRANCH   2   4
ENDBRANCH   1   2
BRANCH   1  16
ATOM     16  C   UNL     1      -1.322   1.966  -0.030  0.00  0.00    +0.328 C 
BRANCH  16  18
ATOM     17  N   UNL     1       1.151   1.909  -0.018  0.00  0.00    -0.282 N 
ATOM     18  C   UNL     1      -0.010   1.224  -0.017  0.00  0.00    +0.255 C 
ATOM     19  O   UNL     1       0.001   0.011  -0.010  0.00  0.00    -0.272 OA
ATOM     20  H   UNL     1       1.143   2.876  -0.089  0.00  0.00    +0.155 HD
BRANCH  17  26
ATOM     21  C   UNL     1       3.433   1.792   0.793  0.00  0.00    +0.038 A 
ATOM     22  C   UNL     1       4.643   1.095   0.885  0.00  0.00    +0.013 A 
ATOM     23  C   UNL     1       4.775  -0.135   0.280  0.00  0.00    +0.001 A 
ATOM     24  C   UNL     1       3.714  -0.688  -0.421  0.00  0.00    +0.002 A 
ATOM     25  C   UNL     1       2.512  -0.016  -0.517  0.00  0.00    +0.024 A 
ATOM     26  C   UNL     1       2.360   1.228   0.081  0.00  0.00    +0.044 A 
BRANCH  21  28
ATOM     27  C   UNL     1       4.473   3.760   2.090  0.00  0.00    +0.091 C 
ATOM     28  C   UNL     1       3.284   3.103   1.436  0.00  0.00    +0.162 C 
ATOM     29  O   UNL     1       2.206   3.658   1.440  0.00  0.00    -0.292 OA
ENDBRANCH  21  28
ENDBRANCH  17  26
ENDBRANCH  16  18
ENDBRANCH   1  16
TORSDOF 8
