REMARK  Name = ZINC07891519
REMARK  3 active torsions:
REMARK  status: ('A' for Active; 'I' for Inactive)
REMARK    1  A    between atoms: C_1  and  C_2
REMARK    2  A    between atoms: N_8  and  N_9
REMARK    3  A    between atoms: C_13  and  C_16
REMARK                            x       y       z     vdW  Elec       q    Type
REMARK                         _______ _______ _______ _____ _____    ______ ____
ROOT
ATOM      1  C   UNL     1       0.016   1.428  -0.885  0.00  0.00    +0.066 C 
ATOM      2  C   UNL     1       0.026  -0.057  -0.628  0.00  0.00    +0.047 A 
ATOM      3  C   UNL     1      -1.148  -0.752  -0.604  0.00  0.00    +0.093 A 
ATOM      4  C   UNL     1      -1.113  -2.137  -0.362  0.00  0.00    +0.253 A 
ATOM      5  N   UNL     1       0.083  -2.731  -0.161  0.00  0.00    -0.294 N 
ATOM      6  C   UNL     1       1.222  -1.985  -0.197  0.00  0.00    +0.216 A 
ATOM      7  N   UNL     1       1.181  -0.688  -0.429  0.00  0.00    -0.220 NA
ATOM      8  N   UNL     1       2.432  -2.595   0.008  0.00  0.00    -0.207 N 
ATOM      9  O   UNL     1      -2.143  -2.789  -0.334  0.00  0.00    -0.268 OA
ATOM     10  H   UNL     1       2.472  -3.549   0.176  0.00  0.00    +0.177 HD
ATOM     11  H   UNL     1       0.131  -3.684   0.007  0.00  0.00    +0.172 HD
ENDROOT
BRANCH   8  12
ATOM     12  N   UNL     1       3.611  -1.839  -0.025  0.00  0.00    -0.189 NA
ATOM     13  C   UNL     1       4.748  -2.422   0.063  0.00  0.00    +0.037 C 
ATOM     14  C   UNL     1       4.848  -3.931   0.050  0.00  0.00    +0.053 C 
ATOM     15  C   UNL     1       5.878  -4.341  -1.008  0.00  0.00    +0.009 C 
ATOM     16  C   UNL     1       7.201  -3.624  -0.734  0.00  0.00    -0.013 C 
ATOM     17  C   UNL     1       7.011  -2.113  -0.881  0.00  0.00    +0.009 C 
ATOM     18  C   UNL     1       6.024  -1.619   0.176  0.00  0.00    +0.053 C 
ATOM     19  C   UNL     1       8.256  -4.103  -1.734  0.00  0.00    +0.007 C 
ENDBRANCH   8  12
TORSDOF 1
