REMARK  Name = ZINC20849232
REMARK  7 active torsions:
REMARK  status: ('A' for Active; 'I' for Inactive)
REMARK    1  A    between atoms: C_1  and  C_2
REMARK    2  A    between atoms: C_4  and  N_9
REMARK    3  A    between atoms: C_10  and  C_12
REMARK    4  A    between atoms: C_15  and  C_25
REMARK    5  A    between atoms: C_18  and  C_24
REMARK    6  A    between atoms: N_22  and  O_23
REMARK    7  A    between atoms: C_25  and  O_26
REMARK                            x       y       z     vdW  Elec       q    Type
REMARK                         _______ _______ _______ _____ _____    ______ ____
ROOT
ATOM      1  C   UNL     1      -2.426   1.372   0.301  0.00  0.00    +0.100 A 
ATOM      2  C   UNL     1      -1.300   2.111   0.030  0.00  0.00    +0.030 A 
ATOM      3  C   UNL     1      -0.018   1.401   0.003  0.00  0.00    +0.027 A 
ATOM      4  C   UNL     1       1.202   2.086  -0.004  0.00  0.00    +0.007 A 
ATOM      5  C   UNL     1       2.370   1.351  -0.021  0.00  0.00    +0.117 A 
ATOM      6  N   UNL     1       2.347   0.031  -0.032  0.00  0.00    -0.256 NA
ATOM      7  C   UNL     1       1.223  -0.659  -0.029  0.00  0.00    +0.081 A 
ATOM      8  C   UNL     1      -0.000  -0.006  -0.012  0.00  0.00    +0.159 A 
ATOM      9  O   UNL     1      -1.167  -0.694  -0.013  0.00  0.00    -0.434 OA
ATOM     10  C   UNL     1      -2.243  -0.077   0.549  0.00  0.00    +0.239 A 
ATOM     11  N   UNL     1      -3.088  -0.743   1.283  0.00  0.00    -0.196 N 
ATOM     12  C   UNL     1       1.269  -2.165  -0.042  0.00  0.00    +0.069 C 
ATOM     13  H   UNL     1      -3.953  -0.230   1.730  0.00  0.00    +0.210 HD
ENDROOT
BRANCH   1  15
ATOM     14  N   UNL     1      -4.846   1.244   0.617  0.00  0.00    -0.281 N 
ATOM     15  C   UNL     1      -3.761   1.995   0.346  0.00  0.00    +0.253 C 
ATOM     16  O   UNL     1      -3.882   3.188   0.138  0.00  0.00    -0.270 OA
ATOM     17  H   UNL     1      -4.748   0.154   0.727  0.00  0.00    +0.155 HD
BRANCH  14  21
ATOM     18  C   UNL     1      -9.243   1.414   2.810  0.00  0.00    +0.045 C 
ATOM     19  C   UNL     1      -8.250   1.954   1.813  0.00  0.00    -0.035 A 
ATOM     20  C   UNL     1      -7.016   1.349   1.672  0.00  0.00    +0.027 A 
ATOM     21  C   UNL     1      -6.099   1.851   0.758  0.00  0.00    +0.034 A 
ATOM     22  C   UNL     1      -6.430   2.953  -0.021  0.00  0.00    +0.024 A 
ATOM     23  C   UNL     1      -7.667   3.550   0.121  0.00  0.00    +0.017 A 
ATOM     24  C   UNL     1      -8.576   3.052   1.037  0.00  0.00    +0.021 A 
ATOM     25 BR   UNL     1     -10.269   3.873   1.228  0.00  0.00    -0.050 Br
ENDBRANCH  14  21
ENDBRANCH   1  15
BRANCH  11  26
ATOM     26  O   UNL     1      -2.895  -2.128   1.507  0.00  0.00    -0.431 OA
ATOM     27  H   UNL     1      -3.608  -2.690   2.127  0.00  0.00    +0.325 HD
ENDBRANCH  11  26
BRANCH   4  28
ATOM     28  C   UNL     1       1.240   3.593   0.008  0.00  0.00    +0.193 C 
BRANCH  28  29
ATOM     29  O   UNL     1       2.599   4.035  -0.002  0.00  0.00    -0.390 OA
ATOM     30  H   UNL     1       2.827   5.111   0.004  0.00  0.00    +0.210 HD
ENDBRANCH  28  29
ENDBRANCH   4  28
TORSDOF 5
