REMARK  Name = ZINC40444214
REMARK  3 active torsions:
REMARK  status: ('A' for Active; 'I' for Inactive)
REMARK    1  A    between atoms: C_3  and  N_14
REMARK    2  A    between atoms: C_8  and  N_11
REMARK    3  A    between atoms: C_17  and  O_20
REMARK                            x       y       z     vdW  Elec       q    Type
REMARK                         _______ _______ _______ _____ _____    ______ ____
ROOT
ATOM      1  C   UNL     1      -0.003   1.384   0.247  0.00  0.00    +0.013 A 
ATOM      2  C   UNL     1       1.187   2.046   0.236  0.00  0.00    +0.044 A 
ATOM      3  C   UNL     1       2.375   1.344  -0.013  0.00  0.00    +0.122 A 
ATOM      4  N   UNL     1       2.373   0.047  -0.241  0.00  0.00    -0.232 NA
ATOM      5  C   UNL     1       1.235  -0.656  -0.243  0.00  0.00    +0.073 A 
ATOM      6  C   UNL     1       0.002  -0.004   0.003  0.00  0.00    +0.003 A 
ATOM      7  C   UNL     1      -1.188  -0.748  -0.001  0.00  0.00    +0.042 A 
ATOM      8  C   UNL     1      -1.145  -2.088  -0.241  0.00  0.00    +0.127 A 
ATOM      9  C   UNL     1       0.067  -2.731  -0.483  0.00  0.00    +0.035 A 
ATOM     10  C   UNL     1       1.240  -2.040  -0.487  0.00  0.00    +0.030 A 
ENDROOT
BRANCH   3  11
ATOM     11  N   UNL     1       3.579   2.032  -0.021  0.00  0.00    -0.315 N 
ATOM     12  C   UNL     1       4.856   1.305  -0.043  0.00  0.00    +0.109 C 
ATOM     13  C   UNL     1       5.696   1.820  -1.216  0.00  0.00    +0.050 C 
ATOM     14  C   UNL     1       5.840   3.340  -1.107  0.00  0.00    +0.118 C 
ATOM     15  C   UNL     1       4.457   3.991  -1.181  0.00  0.00    +0.050 C 
ATOM     16  C   UNL     1       3.603   3.501  -0.013  0.00  0.00    +0.109 C 
BRANCH  14  17
ATOM     17  O   UNL     1       6.650   3.820  -2.182  0.00  0.00    -0.392 OA
ATOM     18  H   UNL     1       6.784   4.778  -2.176  0.00  0.00    +0.210 HD
ENDBRANCH  14  17
ENDBRANCH   3  11
BRANCH   8  19
ATOM     19  N   UNL     1      -2.401  -2.871  -0.244  0.00  0.00    +0.056 N 
ATOM     20  O   UNL     1      -3.457  -2.320  -0.035  0.00  0.00    -0.126 OA
ATOM     21  O   UNL     1      -2.371  -4.061  -0.457  0.00  0.00    -0.126 OA
ENDBRANCH   8  19
TORSDOF 3
