REMARK  Name = ZINC40477317
REMARK  4 active torsions:
REMARK  status: ('A' for Active; 'I' for Inactive)
REMARK    1  A    between atoms: C_1  and  C_2
REMARK    2  A    between atoms: C_10  and  C_12
REMARK    3  A    between atoms: C_12  and  N_13
REMARK    4  A    between atoms: N_13  and  C_14
REMARK                            x       y       z     vdW  Elec       q    Type
REMARK                         _______ _______ _______ _____ _____    ______ ____
ROOT
ATOM      1  C   UNL     1      -0.018   1.503   0.010  0.00  0.00    +0.064 C 
ATOM      2  C   UNL     1       0.002  -0.004   0.002  0.00  0.00    +0.033 A 
ATOM      3  C   UNL     1       0.005  -0.653  -1.162  0.00  0.00    +0.070 A 
ATOM      4  S   UNL     1       0.032  -2.358  -0.630  0.00  0.00    -0.057 S 
ATOM      5  C   UNL     1       0.036  -2.054   1.123  0.00  0.00    +0.180 A 
ATOM      6  N   UNL     1       0.023  -0.686   1.195  0.00  0.00    -0.259 N 
ATOM      7  C   UNL     1       0.027  -0.142   2.448  0.00  0.00    +0.259 A 
ATOM      8  O   UNL     1       0.011   1.071   2.587  0.00  0.00    -0.267 OA
ATOM      9  C   UNL     1       0.049  -0.973   3.568  0.00  0.00    +0.095 A 
ATOM     10  C   UNL     1       0.066  -2.342   3.404  0.00  0.00    +0.066 A 
ATOM     11  N   UNL     1       0.052  -2.840   2.171  0.00  0.00    -0.226 NA
ENDROOT
BRANCH  10  12
ATOM     12  C   UNL     1       0.091  -3.257   4.601  0.00  0.00    +0.157 C 
BRANCH  12  13
ATOM     13  N   UNL     1      -1.150  -4.035   4.646  0.00  0.00    -0.338 N 
ATOM     14  H   UNL     1      -1.827  -3.909   3.963  0.00  0.00    +0.146 HD
BRANCH  13  15
ATOM     15  C   UNL     1      -1.358  -4.958   5.674  0.00  0.00    +0.033 A 
ATOM     16  C   UNL     1      -0.393  -5.135   6.656  0.00  0.00    +0.061 A 
ATOM     17  C   UNL     1      -0.601  -6.050   7.673  0.00  0.00    +0.128 A 
ATOM     18  C   UNL     1      -1.772  -6.789   7.711  0.00  0.00    +0.076 A 
ATOM     19  C   UNL     1      -2.736  -6.614   6.732  0.00  0.00    +0.128 A 
ATOM     20  C   UNL     1      -2.534  -5.696   5.718  0.00  0.00    +0.061 A 
ATOM     21  F   UNL     1      -3.876  -7.337   6.772  0.00  0.00    -0.205 F 
ATOM     22  F   UNL     1       0.338  -6.223   8.628  0.00  0.00    -0.205 F 
ENDBRANCH  13  15
ENDBRANCH  12  13
ENDBRANCH  10  12
TORSDOF 3
