REMARK  Name = ZINC62372896
REMARK  7 active torsions:
REMARK  status: ('A' for Active; 'I' for Inactive)
REMARK    1  A    between atoms: C_1  and  C_2
REMARK    2  A    between atoms: C_4  and  N_9
REMARK    3  A    between atoms: N_12  and  C_13
REMARK    4  A    between atoms: C_13  and  C_14
REMARK    5  A    between atoms: C_13  and  C_15
REMARK    6  A    between atoms: N_17  and  C_18
REMARK    7  A    between atoms: C_18  and  C_19
REMARK                            x       y       z     vdW  Elec       q    Type
REMARK                         _______ _______ _______ _____ _____    ______ ____
ROOT
ATOM      1  N   UNL     1       0.028  -2.771  -2.420  0.00  0.00    -0.269 N 
ATOM      2  C   UNL     1       0.149  -4.113  -2.428  0.00  0.00    +0.304 C 
ATOM      3  O   UNL     1       0.163  -4.729  -1.380  0.00  0.00    -0.252 OA
ATOM      4  N   UNL     1       0.253  -4.774  -3.599  0.00  0.00    -0.288 N 
ATOM      5  H   UNL     1      -0.060  -2.287  -3.256  0.00  0.00    +0.156 HD
ATOM      6  H   UNL     1       0.242  -4.282  -4.435  0.00  0.00    +0.151 HD
ENDROOT
BRANCH   1  10
ATOM      7  C   UNL     1       1.623  -2.350   2.212  0.00  0.00    +0.045 C 
ATOM      8  C   UNL     1       0.796  -1.849   1.056  0.00  0.00    -0.035 A 
ATOM      9  C   UNL     1       0.794  -2.538  -0.141  0.00  0.00    +0.027 A 
ATOM     10  C   UNL     1       0.032  -2.075  -1.206  0.00  0.00    +0.035 A 
ATOM     11  C   UNL     1      -0.727  -0.921  -1.063  0.00  0.00    +0.024 A 
ATOM     12  C   UNL     1      -0.722  -0.236   0.136  0.00  0.00    +0.017 A 
ATOM     13  C   UNL     1       0.035  -0.702   1.197  0.00  0.00    +0.021 A 
ATOM     14 BR   UNL     1       0.034   0.234   2.840  0.00  0.00    -0.050 Br
ENDBRANCH   1  10
BRANCH   4  15
ATOM     15  C   UNL     1       0.384  -6.233  -3.607  0.00  0.00    +0.157 C 
ATOM     16  C   UNL     1      -1.005  -6.870  -3.541  0.00  0.00    +0.038 C 
BRANCH  15  17
ATOM     17  C   UNL     1       1.076  -6.667  -4.874  0.00  0.00    +0.233 C 
ATOM     18  O   UNL     1       1.425  -5.840  -5.689  0.00  0.00    -0.274 OA
ATOM     19  N   UNL     1       1.306  -7.976  -5.101  0.00  0.00    -0.307 N 
ATOM     20  H   UNL     1       1.027  -8.638  -4.449  0.00  0.00    +0.149 HD
BRANCH  19  21
ATOM     21  C   UNL     1       1.978  -8.398  -6.332  0.00  0.00    +0.178 C 
BRANCH  21  22
ATOM     22  C   UNL     1       2.113  -9.899  -6.341  0.00  0.00    +0.122 A 
ATOM     23  C   UNL     1       1.219 -10.766  -6.849  0.00  0.00    +0.046 A 
ATOM     24  C   UNL     1       1.744 -12.063  -6.645  0.00  0.00    +0.041 A 
ATOM     25  C   UNL     1       2.928 -11.911  -6.024  0.00  0.00    +0.195 A 
ATOM     26  O   UNL     1       3.149 -10.598  -5.848  0.00  0.00    -0.466 OA
ENDBRANCH  21  22
ENDBRANCH  19  21
ENDBRANCH  15  17
ENDBRANCH   4  15
TORSDOF 5
