REMARK  Name = ZINC11459691
REMARK  11 active torsions:
REMARK  status: ('A' for Active; 'I' for Inactive)
REMARK    1  A    between atoms: C_1  and  C_2
REMARK    2  A    between atoms: C_2  and  C_4
REMARK    3  A    between atoms: C_2  and  O_20
REMARK    4  A    between atoms: N_6  and  C_7
REMARK    5  A    between atoms: C_7  and  C_8
REMARK    6  A    between atoms: N_10  and  C_11
REMARK    7  A    between atoms: O_20  and  C_21
REMARK    8  A    between atoms: C_21  and  C_23
REMARK    9  A    between atoms: C_26  and  N_31
REMARK   10  A    between atoms: C_28  and  O_29
REMARK   11  A    between atoms: O_29  and  C_30
REMARK                            x       y       z     vdW  Elec       q    Type
REMARK                         _______ _______ _______ _____ _____    ______ ____
ROOT
ATOM      1  C   UNL     1       3.895   7.507   0.427  0.00  0.00    +0.254 C 
ATOM      2  O   UNL     1       2.962   8.281   0.459  0.00  0.00    -0.272 OA
ATOM      3  N   UNL     1       3.669   6.183   0.312  0.00  0.00    -0.304 N 
ATOM      4  H   UNL     1       4.416   5.564   0.286  0.00  0.00    +0.149 HD
ENDROOT
BRANCH   1   6
ATOM      5  C   UNL     1       5.995   7.425   1.744  0.00  0.00    +0.062 C 
ATOM      6  C   UNL     1       5.308   8.025   0.516  0.00  0.00    +0.259 C 
BRANCH   6   7
ATOM      7  O   UNL     1       5.285   9.472   0.633  0.00  0.00    -0.449 OA
BRANCH   7   8
ATOM      8  C   UNL     1       6.336  10.144   0.120  0.00  0.00    +0.343 C 
ATOM      9  O   UNL     1       7.245   9.536  -0.411  0.00  0.00    -0.245 OA
BRANCH   8  10
ATOM     10  C   UNL     1       6.381  11.611   0.202  0.00  0.00    +0.102 A 
ATOM     11  C   UNL     1       5.335  12.314   0.813  0.00  0.00    +0.040 A 
ATOM     12  C   UNL     1       5.379  13.676   0.889  0.00  0.00    +0.063 A 
ATOM     13  C   UNL     1       6.463  14.377   0.361  0.00  0.00    +0.047 A 
ATOM     14  C   UNL     1       7.507  13.694  -0.249  0.00  0.00    +0.070 A 
ATOM     15  C   UNL     1       7.477  12.313  -0.327  0.00  0.00    +0.136 A 
ATOM     16 CL   UNL     1       4.079  14.540   1.649  0.00  0.00    -0.082 Cl
BRANCH  13  17
ATOM     17  N   UNL     1       6.497  15.765   0.444  0.00  0.00    -0.357 N 
ATOM     18  H   UNL     1       5.768  16.244   0.870  0.00  0.00    +0.142 HD
ATOM     19  H   UNL     1       7.250  16.255   0.077  0.00  0.00    +0.142 HD
ENDBRANCH  13  17
BRANCH  15  20
ATOM     20  O   UNL     1       8.497  11.640  -0.915  0.00  0.00    -0.494 OA
ATOM     21  C   UNL     1       9.577  12.422  -1.430  0.00  0.00    +0.277 C 
ENDBRANCH  15  20
ENDBRANCH   8  10
ENDBRANCH   7   8
ENDBRANCH   6   7
ENDBRANCH   1   6
BRANCH   3  22
ATOM     22  C   UNL     1       2.296   5.679   0.225  0.00  0.00    +0.200 C 
BRANCH  22  23
ATOM     23  C   UNL     1       2.319   4.177   0.104  0.00  0.00    +0.234 C 
ATOM     24  O   UNL     1       3.378   3.586   0.091  0.00  0.00    -0.274 OA
ATOM     25  N   UNL     1       1.163   3.491   0.009  0.00  0.00    -0.282 N 
ATOM     26  H   UNL     1       0.321   3.967  -0.061  0.00  0.00    +0.155 HD
BRANCH  25  27
ATOM     27  C   UNL     1       1.178   2.090   0.013  0.00  0.00    +0.072 A 
ATOM     28  C   UNL     1       2.230   1.407   0.608  0.00  0.00    +0.029 A 
ATOM     29  C   UNL     1       2.244   0.026   0.611  0.00  0.00    +0.043 A 
ATOM     30  C   UNL     1       1.210  -0.680   0.022  0.00  0.00    +0.161 A 
ATOM     31  C   UNL     1       0.156  -0.003  -0.574  0.00  0.00    +0.195 A 
ATOM     32  C   UNL     1       0.139   1.381  -0.579  0.00  0.00    +0.182 A 
ATOM     33  F   UNL     1      -0.884   2.043  -1.163  0.00  0.00    -0.200 F 
ATOM     34  F   UNL     1      -0.852  -0.694  -1.149  0.00  0.00    -0.199 F 
ATOM     35  F   UNL     1       1.226  -2.031   0.026  0.00  0.00    -0.202 F 
ENDBRANCH  25  27
ENDBRANCH  22  23
ENDBRANCH   3  22
TORSDOF 9
