REMARK  Name = ZINC33657476
REMARK  11 active torsions:
REMARK  status: ('A' for Active; 'I' for Inactive)
REMARK    1  A    between atoms: C_1  and  O_2
REMARK    2  A    between atoms: O_2  and  C_3
REMARK    3  A    between atoms: C_3  and  C_5
REMARK    4  A    between atoms: C_8  and  C_11
REMARK    5  A    between atoms: N_19  and  C_22
REMARK    6  A    between atoms: C_22  and  C_23
REMARK    7  A    between atoms: C_23  and  N_24
REMARK    8  A    between atoms: N_24  and  C_25
REMARK    9  A    between atoms: C_31  and  C_33
REMARK   10  A    between atoms: C_31  and  C_35
REMARK   11  A    between atoms: C_33  and  O_34
REMARK                            x       y       z     vdW  Elec       q    Type
REMARK                         _______ _______ _______ _____ _____    ______ ____
ROOT
ATOM      1  C   UNL     1       2.376   1.850  -0.878  0.00  0.00    -0.027 C 
ATOM      2  C   UNL     1       1.264   1.926   0.153  0.00  0.00    +0.077 C 
ATOM      3  C   UNL     1       0.362   3.024  -0.523  0.00  0.00    +0.088 C 
ATOM      4  C   UNL     1      -0.894   2.852   0.156  0.00  0.00    +0.225 C 
ATOM      5  O   UNL     1      -1.711   3.708   0.419  0.00  0.00    -0.275 OA
ATOM      6  N   UNL     1      -0.971   1.512   0.436  0.00  0.00    -0.240 N 
ATOM      7  C   UNL     1       0.218   0.863   0.254  0.00  0.00    +0.224 C 
ATOM      8  O   UNL     1       0.390  -0.335   0.183  0.00  0.00    -0.275 OA
ATOM      9  C   UNL     1       1.346   4.041  -0.928  0.00  0.00    +0.071 C 
ATOM     10  N   UNL     1       2.485   3.219  -1.464  0.00  0.00    +0.397 N 
ATOM     11  H   UNL     1       3.447   3.667  -1.173  0.00  0.00    -0.083 HD
ATOM     12  H   UNL     1       2.426   3.155  -2.560  0.00  0.00    -0.083 HD
ENDROOT
BRANCH   1  16
ATOM     13  C   UNL     1       1.374  -0.984  -3.921  0.00  0.00    +0.059 A 
ATOM     14  C   UNL     1       0.927   0.336  -4.017  0.00  0.00    +0.015 A 
ATOM     15  C   UNL     1       1.254   1.245  -3.032  0.00  0.00    +0.003 A 
ATOM     16  C   UNL     1       2.023   0.851  -1.950  0.00  0.00    -0.061 A 
ATOM     17  C   UNL     1       2.473  -0.454  -1.851  0.00  0.00    +0.003 A 
ATOM     18  C   UNL     1       2.149  -1.374  -2.827  0.00  0.00    +0.015 A 
BRANCH  13  19
ATOM     19  C   UNL     1       1.027  -1.962  -4.971  0.00  0.00    +0.339 C 
ATOM     20  O   UNL     1       0.353  -1.620  -5.922  0.00  0.00    -0.245 OA
BRANCH  19  22
ATOM     21  C   UNL     1       1.081  -4.141  -5.945  0.00  0.00    +0.280 C 
ATOM     22  O   UNL     1       1.460  -3.235  -4.876  0.00  0.00    -0.464 OA
ENDBRANCH  19  22
ENDBRANCH  13  19
ENDBRANCH   1  16
BRANCH   9  23
ATOM     23  C   UNL     1       1.783   4.845   0.269  0.00  0.00    +0.348 C 
ATOM     24  O   UNL     1       1.022   5.021   1.190  0.00  0.00    -0.248 OA
ATOM     25  O   UNL     1       3.019   5.367   0.312  0.00  0.00    -0.248 OA
ENDBRANCH   9  23
BRANCH   6  26
ATOM     26  C   UNL     1      -2.196   0.848   0.887  0.00  0.00    +0.135 C 
BRANCH  26  27
ATOM     27  C   UNL     1      -2.265   0.888   2.415  0.00  0.00    +0.121 C 
BRANCH  27  28
ATOM     28  N   UNL     1      -3.491   0.224   2.865  0.00  0.00    -0.342 N 
ATOM     29  H   UNL     1      -4.188  -0.204   2.129  0.00  0.00    +0.146 HD
BRANCH  28  30
ATOM     30  C   UNL     1      -3.776   0.135   4.230  0.00  0.00    +0.027 A 
ATOM     31  C   UNL     1      -2.895   0.670   5.161  0.00  0.00    +0.023 A 
ATOM     32  C   UNL     1      -3.182   0.585   6.509  0.00  0.00    +0.002 A 
ATOM     33  C   UNL     1      -4.339  -0.042   6.933  0.00  0.00    +0.000 A 
ATOM     34  C   UNL     1      -5.216  -0.581   6.009  0.00  0.00    +0.002 A 
ATOM     35  C   UNL     1      -4.938  -0.494   4.659  0.00  0.00    +0.023 A 
ENDBRANCH  28  30
ENDBRANCH  27  28
ENDBRANCH  26  27
ENDBRANCH   6  26
BRANCH   9  36
ATOM     36  C   UNL     1       0.778   4.956  -2.015  0.00  0.00    +0.155 C 
BRANCH  36  37
ATOM     37  O   UNL     1       1.822   5.779  -2.538  0.00  0.00    -0.396 OA
ATOM     38  H   UNL     1       1.603   6.506  -3.334  0.00  0.00    +0.209 HD
ENDBRANCH  36  37
ENDBRANCH   9  36
TORSDOF 10
