REMARK  Name = ZINC08164305
REMARK  8 active torsions:
REMARK  status: ('A' for Active; 'I' for Inactive)
REMARK    1  A    between atoms: C_2  and  C_3
REMARK    2  A    between atoms: C_3  and  N_46
REMARK    3  A    between atoms: C_4  and  C_5
REMARK    4  A    between atoms: C_4  and  N_46
REMARK    5  A    between atoms: C_11  and  C_12
REMARK    6  A    between atoms: C_11  and  N_46
REMARK    7  A    between atoms: N_14  and  C_15
REMARK    8  A    between atoms: C_16  and  C_23
REMARK                            x       y       z     vdW  Elec       q    Type
REMARK                         _______ _______ _______ _____ _____    ______ ____
ROOT
ATOM      1  C   UNL     1       6.143  -0.817  -3.047  0.00  0.00    +0.201 C 
ATOM      2  O   UNL     1       5.306  -0.516  -3.871  0.00  0.00    -0.278 OA
ATOM      3  N   UNL     1       7.422  -1.010  -3.426  0.00  0.00    -0.281 N 
ATOM      4  H   UNL     1       8.092  -1.251  -2.768  0.00  0.00    +0.155 HD
ENDROOT
BRANCH   3   5
ATOM      5  C   UNL     1       7.780  -0.865  -4.758  0.00  0.00    +0.084 A 
ATOM      6  C   UNL     1       9.030  -1.014  -5.334  0.00  0.00    +0.068 A 
ATOM      7  C   UNL     1       9.140  -0.806  -6.777  0.00  0.00    -0.023 A 
ATOM      8  C   UNL     1       7.992  -0.477  -7.396  0.00  0.00    -0.004 A 
ATOM      9  S   UNL     1       6.775  -0.444  -6.102  0.00  0.00    -0.077 S 
ATOM     10  C   UNL     1       8.185  -0.277  -8.875  0.00  0.00    +0.043 C 
ATOM     11  C   UNL     1       9.540  -0.950  -9.184  0.00  0.00    +0.010 C 
ATOM     12  C   UNL     1      10.256  -0.857  -7.822  0.00  0.00    +0.037 C 
BRANCH   6  13
ATOM     13  C   UNL     1      10.201  -1.372  -4.527  0.00  0.00    +0.244 C 
ATOM     14  O   UNL     1      10.489  -2.542  -4.357  0.00  0.00    -0.270 OA
ATOM     15  N   UNL     1      10.958  -0.405  -3.973  0.00  0.00    -0.325 N 
ATOM     16  H   UNL     1      10.729   0.528  -4.108  0.00  0.00    +0.145 HD
ATOM     17  H   UNL     1      11.733  -0.641  -3.439  0.00  0.00    +0.145 HD
ENDBRANCH   6  13
ENDBRANCH   3   5
BRANCH   1  18
ATOM     18  C   UNL     1       5.754  -0.975  -1.600  0.00  0.00    +0.020 C 
BRANCH  18  19
ATOM     19  N   UNL     1       4.334  -0.595  -1.446  0.00  0.00    +0.391 N 
ATOM     20  H   UNL     1       3.791  -1.021  -2.206  0.00  0.00    -0.080 HD
BRANCH  19  21
ATOM     21  C   UNL     1       4.194   0.875  -1.522  0.00  0.00    -0.051 C 
BRANCH  21  23
ATOM     22  C   UNL     1       5.842   2.442  -0.633  0.00  0.00    +0.002 C 
ATOM     23  C   UNL     1       4.930   1.535  -0.385  0.00  0.00    -0.053 C 
ENDBRANCH  21  23
ENDBRANCH  19  21
BRANCH  19  24
ATOM     24  C   UNL     1       3.817  -1.086  -0.152  0.00  0.00    -0.034 C 
BRANCH  24  25
ATOM     25  C   UNL     1       2.325  -0.881  -0.115  0.00  0.00    -0.025 A 
ATOM     26  C   UNL     1       1.339  -1.715  -0.528  0.00  0.00    +0.011 A 
ATOM     27  C   UNL     1       0.022  -1.313  -0.397  0.00  0.00    +0.028 A 
ATOM     28  C   UNL     1      -0.243  -0.097   0.141  0.00  0.00    +0.078 A 
ATOM     29  S   UNL     1       1.397   0.522   0.482  0.00  0.00    -0.084 S 
ATOM     30 CL   UNL     1      -1.778   0.664   0.419  0.00  0.00    -0.076 Cl
ENDBRANCH  24  25
ENDBRANCH  19  24
ENDBRANCH  18  19
ENDBRANCH   1  18
TORSDOF 8
