REMARK  Name = ZINC67621088
REMARK  5 active torsions:
REMARK  status: ('A' for Active; 'I' for Inactive)
REMARK    1  A    between atoms: C_1  and  C_2
REMARK    2  A    between atoms: C_2  and  C_3
REMARK    3  A    between atoms: C_2  and  C_4
REMARK    4  A    between atoms: C_4  and  C_5
REMARK    5  A    between atoms: C_7  and  C_21
REMARK                            x       y       z     vdW  Elec       q    Type
REMARK                         _______ _______ _______ _____ _____    ______ ____
ROOT
ATOM      1  C   UNL     1      -1.240  -2.058  -0.018  0.00  0.00    +0.043 A 
ATOM      2  C   UNL     1      -1.887  -2.840   0.928  0.00  0.00    +0.033 A 
ATOM      3  C   UNL     1      -2.058  -4.187   0.717  0.00  0.00    +0.031 A 
ATOM      4  C   UNL     1      -1.563  -4.761  -0.481  0.00  0.00    +0.038 A 
ATOM      5  C   UNL     1      -1.647  -6.165  -0.903  0.00  0.00    +0.063 A 
ATOM      6  C   UNL     1      -1.085  -6.473  -2.123  0.00  0.00    +0.098 A 
ATOM      7  S   UNL     1      -0.438  -4.931  -2.724  0.00  0.00    -0.062 S 
ATOM      8  C   UNL     1      -0.918  -3.883  -1.375  0.00  0.00    +0.111 A 
ATOM      9  N   UNL     1      -0.783  -2.596  -1.132  0.00  0.00    -0.244 NA
ATOM     10  C   UNL     1      -1.017  -7.752  -2.806  0.00  0.00    +0.253 C 
ATOM     11  O   UNL     1      -1.155  -7.786  -4.015  0.00  0.00    -0.270 OA
ATOM     12  N   UNL     1      -0.806  -8.897  -2.138  0.00  0.00    -0.302 N 
ATOM     13  C   UNL     1      -0.617  -8.892  -0.690  0.00  0.00    +0.200 C 
ATOM     14  C   UNL     1      -1.848  -8.384  -0.002  0.00  0.00    +0.234 C 
ATOM     15  O   UNL     1      -2.493  -9.162   0.669  0.00  0.00    -0.274 OA
ATOM     16  N   UNL     1      -2.271  -7.126  -0.089  0.00  0.00    -0.283 N 
ATOM     17  H   UNL     1      -0.779  -9.737  -2.623  0.00  0.00    +0.150 HD
ATOM     18  H   UNL     1      -3.043  -6.859   0.433  0.00  0.00    +0.155 HD
ENDROOT
BRANCH   3  19
ATOM     19  C   UNL     1      -2.759  -5.041   1.743  0.00  0.00    +0.372 C 
ATOM     20  F   UNL     1      -2.643  -4.445   3.003  0.00  0.00    -0.204 F 
ATOM     21  F   UNL     1      -4.111  -5.158   1.405  0.00  0.00    -0.204 F 
ENDBRANCH   3  19
BRANCH   1  22
ATOM     22  C   UNL     1      -1.062  -0.581   0.227  0.00  0.00    +0.058 C 
BRANCH  22  24
ATOM     23  C   UNL     1       0.586   1.296   0.233  0.00  0.00    +0.007 C 
ATOM     24  C   UNL     1       0.420  -0.219   0.108  0.00  0.00    -0.011 C 
ATOM     25  C   UNL     1       1.205  -0.912   1.224  0.00  0.00    +0.007 C 
ENDBRANCH  22  24
ENDBRANCH   1  22
TORSDOF 3
