REMARK  Name = ZINC63467886
REMARK  8 active torsions:
REMARK  status: ('A' for Active; 'I' for Inactive)
REMARK    1  A    between atoms: C_1  and  C_2
REMARK    2  A    between atoms: C_5  and  N_9
REMARK    3  A    between atoms: C_6  and  C_8
REMARK    4  A    between atoms: C_10  and  C_12
REMARK    5  A    between atoms: N_15  and  S_18
REMARK    6  A    between atoms: S_18  and  C_21
REMARK    7  A    between atoms: C_22  and  C_28
REMARK    8  A    between atoms: C_25  and  C_27
REMARK                            x       y       z     vdW  Elec       q    Type
REMARK                         _______ _______ _______ _____ _____    ______ ____
ROOT
ATOM      1  C   UNL     1      -0.134  -6.343  -1.187  0.00  0.00    +0.078 C 
ATOM      2  C   UNL     1       1.115  -6.931  -0.526  0.00  0.00    +0.030 C 
ATOM      3  C   UNL     1       1.000  -8.459  -0.497  0.00  0.00    +0.110 C 
ATOM      4  N   UNL     1       0.756  -8.941  -1.863  0.00  0.00    -0.177 NA
ATOM      5  C   UNL     1      -0.366  -8.373  -2.623  0.00  0.00    +0.110 C 
ATOM      6  C   UNL     1      -0.236  -6.847  -2.628  0.00  0.00    +0.030 C 
ENDROOT
BRANCH   1   8
ATOM      7  N   UNL     1       0.059  -4.170  -0.021  0.00  0.00    -0.285 N 
ATOM      8  C   UNL     1      -0.040  -4.839  -1.187  0.00  0.00    +0.220 C 
ATOM      9  O   UNL     1      -0.054  -4.230  -2.236  0.00  0.00    -0.275 OA
ATOM     10  H   UNL     1       0.135  -4.658   0.814  0.00  0.00    +0.155 HD
BRANCH   7  15
ATOM     11  C   UNL     1       0.026   1.503   0.005  0.00  0.00    +0.044 C 
ATOM     12  C   UNL     1       0.034  -0.004  -0.002  0.00  0.00    -0.050 A 
ATOM     13  C   UNL     1       0.632  -0.685  -1.046  0.00  0.00    +0.005 A 
ATOM     14  C   UNL     1       0.642  -2.066  -1.055  0.00  0.00    +0.024 A 
ATOM     15  C   UNL     1       0.051  -2.771  -0.014  0.00  0.00    +0.036 A 
ATOM     16  C   UNL     1      -0.548  -2.083   1.033  0.00  0.00    -0.029 A 
ATOM     17  C   UNL     1      -0.550  -0.702   1.039  0.00  0.00    +0.008 A 
ATOM     18  C   UNL     1      -1.191  -2.843   2.165  0.00  0.00    +0.045 C 
ENDBRANCH   7  15
ENDBRANCH   1   8
BRANCH   4  19
ATOM     19  S   UNL     1       1.728 -10.101  -2.535  0.00  0.00    +0.061 S 
ATOM     20  O   UNL     1       1.626  -9.951  -3.944  0.00  0.00    -0.153 OA
ATOM     21  O   UNL     1       2.972 -10.035  -1.850  0.00  0.00    -0.153 OA
BRANCH  19  22
ATOM     22  C   UNL     1       1.020 -11.666  -2.142  0.00  0.00    +0.131 C 
ATOM     23  C   UNL     1       1.435 -12.552  -1.235  0.00  0.00    +0.084 C 
ATOM     24  N   UNL     1       0.632 -13.639  -1.222  0.00  0.00    -0.157 NA
ATOM     25  N   UNL     1      -0.300 -13.596  -2.029  0.00  0.00    -0.178 NA
ATOM     26  C   UNL     1      -0.210 -12.316  -2.752  0.00  0.00    +0.176 C 
ATOM     27  C   UNL     1      -0.009 -12.555  -4.249  0.00  0.00    +0.041 C 
ATOM     28  C   UNL     1       2.638 -12.367  -0.345  0.00  0.00    +0.069 C 
ENDBRANCH  19  22
ENDBRANCH   4  19
TORSDOF 4
