REMARK  Name = ZINC01004376
REMARK  3 active torsions:
REMARK  status: ('A' for Active; 'I' for Inactive)
REMARK    1  A    between atoms: C_1  and  C_2
REMARK    2  A    between atoms: C_7  and  N_8
REMARK    3  A    between atoms: C_9  and  C_11
REMARK                            x       y       z     vdW  Elec       q    Type
REMARK                         _______ _______ _______ _____ _____    ______ ____
ROOT
ATOM      1  N   UNL     1      -2.428   1.713   0.046  0.00  0.00    -0.277 N 
ATOM      2  C   UNL     1      -2.638   0.396   0.244  0.00  0.00    +0.284 C 
ATOM      3  O   UNL     1      -1.701  -0.337   0.500  0.00  0.00    -0.266 OA
ATOM      4  H   UNL     1      -3.181   2.309  -0.091  0.00  0.00    +0.155 HD
ENDROOT
BRANCH   1  11
ATOM      5  C   UNL     1      -1.397   2.711   2.449  0.00  0.00    +0.046 C 
ATOM      6  C   UNL     1      -0.582   2.715   1.181  0.00  0.00    -0.027 A 
ATOM      7  C   UNL     1       0.716   3.222   1.207  0.00  0.00    +0.007 A 
ATOM      8  C   UNL     1       1.490   3.248   0.096  0.00  0.00    +0.031 A 
ATOM      9  C   UNL     1       0.988   2.752  -1.136  0.00  0.00    +0.102 A 
ATOM     10  C   UNL     1      -0.370   2.220  -1.170  0.00  0.00    +0.121 A 
ATOM     11  C   UNL     1      -1.128   2.219   0.037  0.00  0.00    +0.065 A 
ATOM     12  N   UNL     1      -0.710   1.791  -2.382  0.00  0.00    -0.189 NA
ATOM     13  S   UNL     1       0.534   2.045  -3.301  0.00  0.00    +0.117 S 
ATOM     14  N   UNL     1       1.580   2.688  -2.327  0.00  0.00    -0.191 NA
ENDBRANCH   1  11
BRANCH   2  15
ATOM     15  C   UNL     1      -3.997  -0.153   0.152  0.00  0.00    +0.191 A 
ATOM     16  C   UNL     1      -4.326  -1.459   0.332  0.00  0.00    +0.063 A 
ATOM     17  C   UNL     1      -5.775  -1.540   0.147  0.00  0.00    +0.021 A 
ATOM     18  C   UNL     1      -6.706  -2.581   0.199  0.00  0.00    +0.011 A 
ATOM     19  C   UNL     1      -8.028  -2.318  -0.027  0.00  0.00    +0.001 A 
ATOM     20  C   UNL     1      -8.450  -1.026  -0.307  0.00  0.00    +0.004 A 
ATOM     21  C   UNL     1      -7.548   0.014  -0.363  0.00  0.00    +0.047 A 
ATOM     22  C   UNL     1      -6.197  -0.229  -0.137  0.00  0.00    +0.136 A 
ATOM     23  O   UNL     1      -5.108   0.563  -0.119  0.00  0.00    -0.450 OA
ENDBRANCH   2  15
TORSDOF 2
