REMARK  Name = ZINC44460421
REMARK  7 active torsions:
REMARK  status: ('A' for Active; 'I' for Inactive)
REMARK    1  A    between atoms: C_1  and  C_2
REMARK    2  A    between atoms: C_4  and  O_30
REMARK    3  A    between atoms: C_14  and  C_15
REMARK    4  A    between atoms: C_14  and  O_19
REMARK    5  A    between atoms: C_15  and  C_17
REMARK    6  A    between atoms: C_17  and  O_18
REMARK    7  A    between atoms: C_28  and  C_29
REMARK                            x       y       z     vdW  Elec       q    Type
REMARK                         _______ _______ _______ _____ _____    ______ ____
ROOT
ATOM      1  C   UNL     1      -0.019   1.530   0.011  0.00  0.00    +0.015 C 
ATOM      2  C   UNL     1       0.002  -0.004   0.002  0.00  0.00    +0.009 C 
ATOM      3  C   UNL     1      -1.392  -0.560   0.050  0.00  0.00    +0.041 C 
ATOM      4  C   UNL     1      -2.038  -0.358   1.430  0.00  0.00    +0.120 C 
ATOM      5  C   UNL     1      -1.137   0.307   2.446  0.00  0.00    +0.035 C 
ATOM      6  C   UNL     1       0.268  -0.280   2.509  0.00  0.00    -0.000 C 
ATOM      7  C   UNL     1       0.838  -0.587   1.157  0.00  0.00    +0.002 C 
ATOM      8  C   UNL     1       2.240  -0.053   0.837  0.00  0.00    +0.008 C 
ATOM      9  C   UNL     1       2.320  -0.184  -0.710  0.00  0.00    +0.043 C 
ATOM     10  C   UNL     1       0.867  -0.399  -1.211  0.00  0.00    +0.131 C 
ATOM     11  C   UNL     1       1.180   0.639   3.329  0.00  0.00    +0.008 C 
ATOM     12  C   UNL     1       0.655   0.690   4.772  0.00  0.00    +0.032 C 
ATOM     13  C   UNL     1      -0.800   1.117   4.722  0.00  0.00    -0.056 C 
ATOM     14  C   UNL     1      -1.178   2.181   5.414  0.00  0.00    +0.051 C 
ATOM     15  C   UNL     1      -2.572   2.650   5.373  0.00  0.00    +0.179 C 
ATOM     16  O   UNL     1      -2.920   3.628   6.006  0.00  0.00    -0.288 OA
ATOM     17  C   UNL     1      -3.533   1.907   4.542  0.00  0.00    +0.047 C 
ATOM     18  C   UNL     1      -3.135   0.842   3.864  0.00  0.00    -0.012 C 
ATOM     19  C   UNL     1      -1.741   0.316   3.858  0.00  0.00    +0.013 C 
ATOM     20  C   UNL     1      -1.800  -1.107   4.409  0.00  0.00    +0.020 C 
ENDROOT
BRANCH  10  21
ATOM     21  C   UNL     1       0.658  -1.827  -1.615  0.00  0.00    +0.190 C 
ATOM     22  O   UNL     1       0.270  -2.634  -0.803  0.00  0.00    -0.292 OA
BRANCH  21  23
ATOM     23  C   UNL     1       0.931  -2.257  -3.033  0.00  0.00    +0.233 C 
BRANCH  23  24
ATOM     24  O   UNL     1       0.659  -3.654  -3.168  0.00  0.00    -0.387 OA
ATOM     25  H   UNL     1       0.814  -4.000  -4.058  0.00  0.00    +0.210 HD
ENDBRANCH  23  24
ENDBRANCH  21  23
ENDBRANCH  10  21
BRANCH  10  26
ATOM     26  O   UNL     1       0.589   0.481  -2.302  0.00  0.00    -0.380 OA
ATOM     27  H   UNL     1       1.099   0.290  -3.101  0.00  0.00    +0.211 HD
ENDBRANCH  10  26
BRANCH   4  28
ATOM     28  O   UNL     1      -3.219   0.443   1.235  0.00  0.00    -0.391 OA
ATOM     29  H   UNL     1      -3.873   0.042   0.647  0.00  0.00    +0.210 HD
ENDBRANCH   4  28
TORSDOF 5
