REMARK  Name = ZINC61126611
REMARK  3 active torsions:
REMARK  status: ('A' for Active; 'I' for Inactive)
REMARK    1  A    between atoms: C_9  and  S_11
REMARK    2  A    between atoms: S_11  and  C_12
REMARK    3  A    between atoms: C_12  and  C_13
REMARK                            x       y       z     vdW  Elec       q    Type
REMARK                         _______ _______ _______ _____ _____    ______ ____
ROOT
ATOM      1  C   UNL     1       6.633   2.525  -0.050  0.00  0.00    +0.155 C 
ENDROOT
BRANCH   1   2
ATOM      2  C   UNL     1       8.131   2.684  -0.064  0.00  0.00    +0.146 A 
ATOM      3  N   UNL     1       8.798   2.742   1.075  0.00  0.00    -0.199 NA
ATOM      4  C   UNL     1      10.122   2.883   1.067  0.00  0.00    +0.217 A 
ATOM      5  N   UNL     1      10.772   2.965  -0.089  0.00  0.00    -0.181 NA
ATOM      6  C   UNL     1      10.098   2.906  -1.232  0.00  0.00    +0.217 A 
ATOM      7  N   UNL     1       8.774   2.760  -1.216  0.00  0.00    -0.199 NA
ATOM      8  N   UNL     1      10.768   2.991  -2.435  0.00  0.00    -0.327 N 
ATOM      9  N   UNL     1      10.818   2.944   2.256  0.00  0.00    -0.327 N 
ATOM     10  H   UNL     1      11.733   3.094  -2.447  0.00  0.00    +0.145 HD
ATOM     11  H   UNL     1      10.275   2.948  -3.269  0.00  0.00    +0.145 HD
ATOM     12  H   UNL     1      10.343   2.884   3.100  0.00  0.00    +0.145 HD
ATOM     13  H   UNL     1      11.783   3.046   2.249  0.00  0.00    +0.145 HD
ENDBRANCH   1   2
BRANCH   1  14
ATOM     14  S   UNL     1       6.212   0.760  -0.055  0.00  0.00    -0.059 S 
BRANCH  14  23
ATOM     15  C   UNL     1      -0.017   1.383   0.010  0.00  0.00    +0.024 A 
ATOM     16  C   UNL     1       1.164   2.099   0.002  0.00  0.00    +0.050 A 
ATOM     17  C   UNL     1       2.377   1.430  -0.013  0.00  0.00    +0.156 A 
ATOM     18  C   UNL     1       2.401   0.027  -0.021  0.00  0.00    +0.112 A 
ATOM     19  C   UNL     1       1.201  -0.685  -0.013  0.00  0.00    +0.051 A 
ATOM     20  C   UNL     1       0.002  -0.004   0.002  0.00  0.00    +0.043 A 
ATOM     21 CL   UNL     1      -1.492  -0.888   0.012  0.00  0.00    -0.083 Cl
ATOM     22  N   UNL     1       3.712  -0.340  -0.036  0.00  0.00    -0.203 NA
ATOM     23  C   UNL     1       4.451   0.741  -0.037  0.00  0.00    +0.258 A 
ATOM     24  O   UNL     1       3.668   1.835  -0.024  0.00  0.00    -0.431 OA
ENDBRANCH  14  23
ENDBRANCH   1  14
TORSDOF 3
