REMARK  Name = ZINC39898025
REMARK  6 active torsions:
REMARK  status: ('A' for Active; 'I' for Inactive)
REMARK    1  A    between atoms: C_6  and  C_7
REMARK    2  A    between atoms: C_10  and  C_22
REMARK    3  A    between atoms: N_17  and  C_18
REMARK    4  A    between atoms: C_18  and  C_19
REMARK    5  A    between atoms: C_19  and  C_20
REMARK    6  A    between atoms: C_20  and  O_21
REMARK                            x       y       z     vdW  Elec       q    Type
REMARK                         _______ _______ _______ _____ _____    ______ ____
ROOT
ATOM      1  C   UNL     1      -1.293  -0.775   0.011  0.00  0.00    +0.141 C 
ATOM      2  C   UNL     1      -1.570  -1.303   1.392  0.00  0.00    +0.035 A 
ATOM      3  C   UNL     1      -1.796  -1.027   2.702  0.00  0.00    +0.075 A 
ATOM      4  N   UNL     1      -1.968  -2.227   3.331  0.00  0.00    -0.276 N 
ATOM      5  N   UNL     1      -1.858  -3.187   2.483  0.00  0.00    -0.168 NA
ATOM      6  H   UNL     1      -2.145  -2.339   4.278  0.00  0.00    +0.189 HD
ATOM      7  C   UNL     1      -1.615  -2.711   1.277  0.00  0.00    +0.153 A 
ATOM      8  C   UNL     1      -1.373  -3.059  -0.135  0.00  0.00    +0.268 C 
ATOM      9  O   UNL     1      -1.346  -4.191  -0.575  0.00  0.00    -0.268 OA
ATOM     10  N   UNL     1      -1.188  -1.946  -0.868  0.00  0.00    -0.285 N 
ENDROOT
BRANCH   3  11
ATOM     11  C   UNL     1      -1.847   0.313   3.327  0.00  0.00    +0.048 A 
ATOM     12  C   UNL     1      -0.887   0.684   4.267  0.00  0.00    +0.033 A 
ATOM     13  C   UNL     1      -0.939   1.937   4.846  0.00  0.00    +0.042 A 
ATOM     14  C   UNL     1      -1.942   2.825   4.497  0.00  0.00    +0.024 A 
ATOM     15  C   UNL     1      -2.898   2.467   3.566  0.00  0.00    +0.053 A 
ATOM     16  C   UNL     1      -2.855   1.216   2.972  0.00  0.00    +0.188 A 
ATOM     17  O   UNL     1      -3.792   0.865   2.053  0.00  0.00    -0.287 OA
ATOM     18 CL   UNL     1       0.257   2.398   6.017  0.00  0.00    -0.084 Cl
ENDBRANCH   3  11
BRANCH   1  24
ATOM     19  C   UNL     1      -0.017   1.378   0.010  0.00  0.00    +0.007 A 
ATOM     20  C   UNL     1       1.171   2.086   0.002  0.00  0.00    +0.020 A 
ATOM     21  C   UNL     1       2.378   1.410  -0.013  0.00  0.00    +0.041 A 
ATOM     22  C   UNL     1       2.396   0.027  -0.021  0.00  0.00    +0.020 A 
ATOM     23  C   UNL     1       1.208  -0.679  -0.013  0.00  0.00    +0.007 A 
ATOM     24  C   UNL     1       0.002  -0.004   0.002  0.00  0.00    -0.022 A 
ATOM     25 CL   UNL     1       3.870   2.298  -0.023  0.00  0.00    -0.084 Cl
ENDBRANCH   1  24
BRANCH  10  26
ATOM     26  C   UNL     1      -0.924  -1.908  -2.308  0.00  0.00    +0.111 C 
BRANCH  26  27
ATOM     27  C   UNL     1       0.585  -1.962  -2.552  0.00  0.00    +0.047 C 
BRANCH  27  28
ATOM     28  C   UNL     1       0.861  -1.922  -4.056  0.00  0.00    +0.157 C 
BRANCH  28  29
ATOM     29  O   UNL     1       2.271  -1.972  -4.284  0.00  0.00    -0.395 OA
ATOM     30  H   UNL     1       2.519  -1.951  -5.218  0.00  0.00    +0.209 HD
ENDBRANCH  28  29
ENDBRANCH  27  28
ENDBRANCH  26  27
ENDBRANCH  10  26
TORSDOF 6
