REMARK  Name = ZINC06727369
REMARK  8 active torsions:
REMARK  status: ('A' for Active; 'I' for Inactive)
REMARK    1  A    between atoms: C_1  and  N_47
REMARK    2  A    between atoms: C_9  and  O_25
REMARK    3  A    between atoms: C_11  and  C_14
REMARK    4  A    between atoms: C_16  and  O_23
REMARK    5  A    between atoms: C_17  and  O_22
REMARK    6  A    between atoms: C_18  and  O_20
REMARK    7  A    between atoms: O_20  and  C_21
REMARK    8  A    between atoms: O_23  and  C_24
REMARK                            x       y       z     vdW  Elec       q    Type
REMARK                         _______ _______ _______ _____ _____    ______ ____
ROOT
ATOM      1  C   UNL     1      -2.424   7.193   0.585  0.00  0.00    -0.096 C 
ATOM      2  C   UNL     1      -1.787   4.910   1.084  0.00  0.00    -0.074 C 
ATOM      3  C   UNL     1      -1.121   3.671   0.480  0.00  0.00    +0.018 C 
ATOM      4  C   UNL     1       0.345   3.999   0.217  0.00  0.00    -0.027 A 
ATOM      5  C   UNL     1       0.750   5.291   0.171  0.00  0.00    -0.021 A 
ATOM      6  S   UNL     1       2.490   5.210  -0.156  0.00  0.00    -0.080 S 
ATOM      7  C   UNL     1       2.667   3.509  -0.234  0.00  0.00    +0.080 A 
ATOM      8  C   UNL     1       1.381   3.006   0.005  0.00  0.00    +0.067 A 
ATOM      9  C   UNL     1       1.217   1.530  -0.001  0.00  0.00    +0.220 C 
ATOM     10  N   UNL     1       2.297   0.798  -0.010  0.00  0.00    -0.223 NA
ATOM     11  C   UNL     1       3.655   1.320   0.069  0.00  0.00    +0.224 C 
ATOM     12  N   UNL     1       3.745   2.691  -0.469  0.00  0.00    -0.313 N 
ATOM     13  C   UNL     1      -0.110   6.500   0.358  0.00  0.00    -0.036 C 
ATOM     14  H   UNL     1       4.523   2.997  -0.961  0.00  0.00    +0.149 HD
ATOM     15  N   UNL     1      -1.525   6.078   0.218  0.00  0.00    +0.381 N 
ATOM     16  H   UNL     1      -1.700   5.816  -0.759  0.00  0.00    -0.082 HD
ENDROOT
BRANCH  11  17
ATOM     17  C   UNL     1       4.089   1.329   1.512  0.00  0.00    +0.002 A 
ATOM     18  C   UNL     1       5.027   2.247   1.945  0.00  0.00    +0.057 A 
ATOM     19  C   UNL     1       5.424   2.262   3.273  0.00  0.00    +0.165 A 
ATOM     20  C   UNL     1       4.886   1.344   4.168  0.00  0.00    +0.201 A 
ATOM     21  C   UNL     1       3.947   0.419   3.727  0.00  0.00    +0.165 A 
ATOM     22  C   UNL     1       3.552   0.414   2.398  0.00  0.00    +0.057 A 
BRANCH  21  23
ATOM     23  O   UNL     1       3.418  -0.482   4.598  0.00  0.00    -0.491 OA
ATOM     24  C   UNL     1       2.460  -1.404   4.076  0.00  0.00    +0.277 C 
ENDBRANCH  21  23
BRANCH  20  25
ATOM     25  O   UNL     1       5.277   1.352   5.471  0.00  0.00    -0.501 OA
ATOM     26  H   UNL     1       6.040   0.787   5.656  0.00  0.00    +0.292 HD
ENDBRANCH  20  25
BRANCH  19  27
ATOM     27  O   UNL     1       6.342   3.170   3.699  0.00  0.00    -0.491 OA
ATOM     28  C   UNL     1       6.852   4.083   2.725  0.00  0.00    +0.277 C 
ENDBRANCH  19  27
ENDBRANCH  11  17
BRANCH   9  29
ATOM     29  O   UNL     1      -0.011   0.963   0.007  0.00  0.00    -0.492 OA
ATOM     30  H   UNL     1       0.002  -0.004   0.002  0.00  0.00    +0.294 HD
ENDBRANCH   9  29
TORSDOF 5
