REMARK  Name = ZINC11298245
REMARK  7 active torsions:
REMARK  status: ('A' for Active; 'I' for Inactive)
REMARK    1  A    between atoms: C_1  and  C_2
REMARK    2  A    between atoms: N_4  and  C_5
REMARK    3  A    between atoms: C_15  and  C_18
REMARK    4  A    between atoms: C_19  and  C_20
REMARK    5  A    between atoms: C_19  and  C_22
REMARK    6  A    between atoms: N_28  and  C_29
REMARK    7  A    between atoms: N_28  and  C_30
REMARK                            x       y       z     vdW  Elec       q    Type
REMARK                         _______ _______ _______ _____ _____    ______ ____
ROOT
ATOM      1  C   UNL     1       6.563   7.887  -0.013  0.00  0.00    +0.110 C 
ATOM      2  C   UNL     1       6.327   6.399  -0.020  0.00  0.00    +0.223 C 
ATOM      3  O   UNL     1       5.194   5.964  -0.011  0.00  0.00    -0.275 OA
ATOM      4  N   UNL     1       7.374   5.550  -0.035  0.00  0.00    -0.216 N 
ATOM      5  C   UNL     1       7.156   4.178  -0.042  0.00  0.00    +0.172 A 
ATOM      6  N   UNL     1       6.015   3.521  -0.035  0.00  0.00    -0.225 NA
ATOM      7  C   UNL     1       6.015   2.185  -0.042  0.00  0.00    +0.074 A 
ATOM      8  C   UNL     1       7.233   1.523  -0.052  0.00  0.00    +0.076 A 
ATOM      9  S   UNL     1       8.351   2.852  -0.061  0.00  0.00    -0.059 S 
ENDROOT
BRANCH   4  10
ATOM     10  C   UNL     1       8.683   6.053  -0.045  0.00  0.00    +0.078 A 
ATOM     11  C   UNL     1       9.322   6.304  -1.251  0.00  0.00    +0.029 A 
ATOM     12  C   UNL     1      10.610   6.803  -1.259  0.00  0.00    +0.040 A 
ATOM     13  C   UNL     1      11.269   7.044  -0.064  0.00  0.00    +0.126 A 
ATOM     14  C   UNL     1      10.636   6.790   1.141  0.00  0.00    +0.078 A 
ATOM     15  C   UNL     1       9.345   6.294   1.153  0.00  0.00    +0.148 A 
ATOM     16  F   UNL     1       8.728   6.045   2.329  0.00  0.00    -0.203 F 
ATOM     17  F   UNL     1      12.530   7.528  -0.075  0.00  0.00    -0.205 F 
ENDBRANCH   4  10
BRANCH   7  18
ATOM     18  C   UNL     1       4.759   1.438  -0.035  0.00  0.00    +0.051 C 
ATOM     19  C   UNL     1       3.557   2.111  -0.020  0.00  0.00    +0.098 C 
BRANCH  19  20
ATOM     20  C   UNL     1       2.288   1.356  -0.013  0.00  0.00    +0.177 A 
ATOM     21  N   UNL     1       2.304   0.023  -0.020  0.00  0.00    -0.194 NA
ATOM     22  C   UNL     1       1.162  -0.655  -0.013  0.00  0.00    +0.217 A 
ATOM     23  N   UNL     1       0.002  -0.004   0.002  0.00  0.00    -0.181 NA
ATOM     24  C   UNL     1      -0.016   1.325   0.009  0.00  0.00    +0.222 A 
ATOM     25  N   UNL     1       1.125   2.006   0.002  0.00  0.00    -0.194 NA
ATOM     26  N   UNL     1      -1.221   1.999   0.019  0.00  0.00    -0.306 N 
ATOM     27  C   UNL     1      -2.479   1.249   0.021  0.00  0.00    +0.132 C 
ATOM     28  C   UNL     1      -1.241   3.463   0.027  0.00  0.00    +0.132 C 
ATOM     29  N   UNL     1       1.178  -2.035  -0.020  0.00  0.00    -0.327 N 
ATOM     30  H   UNL     1       0.344  -2.530  -0.014  0.00  0.00    +0.145 HD
ATOM     31  H   UNL     1       2.024  -2.510  -0.030  0.00  0.00    +0.145 HD
ENDBRANCH  19  20
BRANCH  19  32
ATOM     32  C   UNL     1       3.539   3.542  -0.012  0.00  0.00    +0.103 C 
ATOM     33  N   UNL     1       3.524   4.678  -0.006  0.00  0.00    -0.191 NA
ENDBRANCH  19  32
ENDBRANCH   7  18
TORSDOF 4
