REMARK  Name = ZINC17005077
REMARK  10 active torsions:
REMARK  status: ('A' for Active; 'I' for Inactive)
REMARK    1  A    between atoms: C_1  and  C_2
REMARK    2  A    between atoms: C_2  and  O_4
REMARK    3  A    between atoms: O_4  and  C_5
REMARK    4  A    between atoms: C_5  and  C_6
REMARK    5  A    between atoms: C_6  and  C_8
REMARK    6  A    between atoms: C_6  and  O_34
REMARK    7  A    between atoms: C_8  and  O_33
REMARK    8  A    between atoms: C_13  and  C_32
REMARK    9  A    between atoms: C_15  and  O_31
REMARK   10  A    between atoms: C_29  and  C_30
REMARK                            x       y       z     vdW  Elec       q    Type
REMARK                         _______ _______ _______ _____ _____    ______ ____
ROOT
ATOM      1  C   UNL     1      -1.337   8.219  -4.546  0.00  0.00    +0.101 C 
ATOM      2  C   UNL     1      -2.885   8.226  -4.503  0.00  0.00    +0.038 C 
ATOM      3  C   UNL     1      -3.296   7.305  -3.322  0.00  0.00    +0.007 C 
ATOM      4  C   UNL     1      -2.082   6.381  -3.170  0.00  0.00    +0.001 C 
ATOM      5  C   UNL     1      -0.904   7.377  -3.350  0.00  0.00    +0.005 C 
ATOM      6  C   UNL     1       0.355   6.550  -3.526  0.00  0.00    +0.041 C 
ATOM      7  C   UNL     1       0.588   5.794  -2.208  0.00  0.00    +0.119 C 
ATOM      8  C   UNL     1      -0.609   4.923  -1.838  0.00  0.00    +0.031 C 
ATOM      9  C   UNL     1      -1.915   5.730  -1.809  0.00  0.00    -0.001 C 
ATOM     10  C   UNL     1      -3.084   4.778  -1.543  0.00  0.00    +0.008 C 
ATOM     11  C   UNL     1      -2.939   4.180  -0.142  0.00  0.00    +0.032 C 
ATOM     12  C   UNL     1      -1.579   3.518  -0.048  0.00  0.00    -0.060 C 
ATOM     13  C   UNL     1      -1.519   2.287   0.459  0.00  0.00    +0.046 C 
ATOM     14  C   UNL     1      -0.224   1.619   0.630  0.00  0.00    +0.156 C 
ATOM     15  O   UNL     1      -0.135   0.412   0.717  0.00  0.00    -0.293 OA
ATOM     16  C   UNL     1       0.997   2.515   0.688  0.00  0.00    +0.080 C 
ATOM     17  C   UNL     1       0.911   3.481  -0.495  0.00  0.00    +0.019 C 
ATOM     18  C   UNL     1      -0.368   4.298  -0.458  0.00  0.00    -0.005 C 
ATOM     19  C   UNL     1      -0.174   5.435   0.547  0.00  0.00    +0.016 C 
ATOM     20  C   UNL     1      -0.779   8.263  -2.109  0.00  0.00    +0.014 C 
ENDROOT
BRANCH   7  21
ATOM     21  O   UNL     1       1.743   4.964  -2.346  0.00  0.00    -0.391 OA
ATOM     22  H   UNL     1       2.548   5.446  -2.581  0.00  0.00    +0.210 HD
ENDBRANCH   7  21
BRANCH   1  23
ATOM     23  O   UNL     1      -0.878   7.627  -5.763  0.00  0.00    -0.385 OA
ATOM     24  H   UNL     1      -1.158   8.098  -6.559  0.00  0.00    +0.210 HD
ENDBRANCH   1  23
BRANCH   1  25
ATOM     25  C   UNL     1      -0.796   9.644  -4.414  0.00  0.00    +0.184 C 
BRANCH  25  26
ATOM     26  O   UNL     1      -1.387  10.473  -5.417  0.00  0.00    -0.386 OA
ATOM     27  H   UNL     1      -1.210  10.182  -6.322  0.00  0.00    +0.210 HD
ENDBRANCH  25  26
BRANCH  25  28
ATOM     28  C   UNL     1       0.723   9.631  -4.593  0.00  0.00    +0.266 C 
BRANCH  28  29
ATOM     29  O   UNL     1       1.250  10.963  -4.352  0.00  0.00    -0.462 OA
BRANCH  29  31
ATOM     30  C   UNL     1       3.197  12.477  -4.233  0.00  0.00    +0.136 C 
ATOM     31  C   UNL     1       2.578  11.123  -4.469  0.00  0.00    +0.304 C 
ATOM     32  O   UNL     1       3.276  10.183  -4.765  0.00  0.00    -0.251 OA
ENDBRANCH  29  31
ENDBRANCH  28  29
ENDBRANCH  25  28
ENDBRANCH   1  25
TORSDOF 7
