REMARK  Name = ZINC06607378
REMARK  8 active torsions:
REMARK  status: ('A' for Active; 'I' for Inactive)
REMARK    1  A    between atoms: C_1  and  C_2
REMARK    2  A    between atoms: C_5  and  N_9
REMARK    3  A    between atoms: C_10  and  C_26
REMARK    4  A    between atoms: C_12  and  C_15
REMARK    5  A    between atoms: C_13  and  C_14
REMARK    6  A    between atoms: C_15  and  C_17
REMARK    7  A    between atoms: C_17  and  S_18
REMARK    8  A    between atoms: S_18  and  C_19
REMARK                            x       y       z     vdW  Elec       q    Type
REMARK                         _______ _______ _______ _____ _____    ______ ____
ROOT
ATOM      1  N   UNL     1       0.058  -4.173  -0.023  0.00  0.00    -0.317 N 
ATOM      2  C   UNL     1      -0.949  -4.964  -0.503  0.00  0.00    +0.022 A 
ATOM      3  C   UNL     1      -0.603  -6.254  -0.359  0.00  0.00    +0.034 A 
ATOM      4  C   UNL     1       0.729  -6.260   0.261  0.00  0.00    +0.039 A 
ATOM      5  C   UNL     1       1.073  -4.932   0.434  0.00  0.00    +0.031 A 
ATOM      6  C   UNL     1       2.359  -4.422   1.032  0.00  0.00    +0.064 C 
ATOM      7  C   UNL     1      -2.241  -4.468  -1.098  0.00  0.00    +0.064 C 
ENDROOT
BRANCH   1  12
ATOM      8  C   UNL     1      -0.018   1.503   0.010  0.00  0.00    +0.047 C 
ATOM      9  C   UNL     1       0.002  -0.004   0.002  0.00  0.00    -0.015 A 
ATOM     10  C   UNL     1       0.006  -0.688  -1.200  0.00  0.00    +0.008 A 
ATOM     11  C   UNL     1       0.024  -2.069  -1.211  0.00  0.00    +0.026 A 
ATOM     12  C   UNL     1       0.040  -2.772  -0.014  0.00  0.00    +0.049 A 
ATOM     13  C   UNL     1       0.036  -2.085   1.192  0.00  0.00    +0.064 A 
ATOM     14  C   UNL     1       0.023  -0.702   1.198  0.00  0.00    +0.128 A 
ATOM     15  F   UNL     1       0.025  -0.031   2.371  0.00  0.00    -0.205 F 
ENDBRANCH   1  12
BRANCH   4  16
ATOM     16  C   UNL     1       1.530  -7.432   0.619  0.00  0.00    +0.175 C 
ATOM     17  O   UNL     1       2.621  -7.288   1.130  0.00  0.00    -0.291 OA
BRANCH  16  18
ATOM     18  C   UNL     1       1.000  -8.818   0.353  0.00  0.00    +0.157 C 
BRANCH  18  19
ATOM     19  S   UNL     1       2.215 -10.047   0.904  0.00  0.00    -0.076 S 
BRANCH  19  20
ATOM     20  C   UNL     1       1.457 -11.593   0.529  0.00  0.00    +0.210 A 
ATOM     21  N   UNL     1       1.988 -12.797   0.767  0.00  0.00    -0.188 NA
ATOM     22  C   UNL     1       1.157 -13.735   0.365  0.00  0.00    +0.209 A 
ATOM     23  N   UNL     1       0.063 -13.132  -0.144  0.00  0.00    -0.246 N 
ATOM     24  H   UNL     1      -0.720 -13.567  -0.517  0.00  0.00    +0.192 HD
ATOM     25  N   UNL     1       0.277 -11.749  -0.023  0.00  0.00    -0.144 NA
ATOM     26  N   UNL     1       1.368 -15.099   0.449  0.00  0.00    -0.328 N 
ATOM     27  H   UNL     1       2.191 -15.440   0.834  0.00  0.00    +0.145 HD
ATOM     28  H   UNL     1       0.694 -15.715   0.124  0.00  0.00    +0.145 HD
ENDBRANCH  19  20
ENDBRANCH  18  19
ENDBRANCH  16  18
ENDBRANCH   4  16
TORSDOF 5
