REMARK  Name = ZINC51597236
REMARK  5 active torsions:
REMARK  status: ('A' for Active; 'I' for Inactive)
REMARK    1  A    between atoms: C_1  and  C_2
REMARK    2  A    between atoms: C_5  and  C_18
REMARK    3  A    between atoms: C_6  and  N_8
REMARK    4  A    between atoms: C_13  and  C_15
REMARK    5  A    between atoms: C_18  and  N_20
REMARK                            x       y       z     vdW  Elec       q    Type
REMARK                         _______ _______ _______ _____ _____    ______ ____
ROOT
ATOM      1  C   UNL     1      -0.730   2.380   1.853  0.00  0.00    +0.044 C 
ATOM      2  C   UNL     1      -0.365   0.991   1.397  0.00  0.00    -0.049 A 
ATOM      3  C   UNL     1      -0.047   0.764   0.068  0.00  0.00    +0.004 A 
ATOM      4  C   UNL     1       0.289  -0.501  -0.362  0.00  0.00    +0.012 A 
ATOM      5  C   UNL     1       0.310  -1.563   0.547  0.00  0.00    +0.024 A 
ATOM      6  C   UNL     1      -0.013  -1.330   1.893  0.00  0.00    +0.040 A 
ATOM      7  C   UNL     1      -0.344  -0.046   2.308  0.00  0.00    +0.027 A 
ENDROOT
BRANCH   6   8
ATOM      8  N   UNL     1       0.004  -2.376   2.807  0.00  0.00    -0.318 N 
ATOM      9  C   UNL     1       1.227  -2.698   3.554  0.00  0.00    +0.106 C 
ATOM     10  C   UNL     1       0.901  -2.713   5.051  0.00  0.00    +0.019 C 
ATOM     11  C   UNL     1      -0.262  -3.674   5.306  0.00  0.00    +0.004 C 
ATOM     12  C   UNL     1      -1.500  -3.191   4.547  0.00  0.00    +0.032 C 
ATOM     13  C   UNL     1      -1.203  -3.178   3.049  0.00  0.00    +0.159 C 
BRANCH  13  14
ATOM     14  C   UNL     1      -2.369  -2.572   2.311  0.00  0.00    +0.231 C 
ATOM     15  O   UNL     1      -2.509  -1.367   2.283  0.00  0.00    -0.274 OA
ATOM     16  N   UNL     1      -3.255  -3.368   1.680  0.00  0.00    -0.328 N 
ATOM     17  H   UNL     1      -3.142  -4.331   1.702  0.00  0.00    +0.145 HD
ATOM     18  H   UNL     1      -4.005  -2.978   1.205  0.00  0.00    +0.145 HD
ENDBRANCH  13  14
ENDBRANCH   6   8
BRANCH   5  19
ATOM     19  C   UNL     1       0.668  -2.918   0.095  0.00  0.00    +0.079 C 
ATOM     20  S   UNL     1       0.692  -4.215   1.213  0.00  0.00    -0.035 S 
BRANCH  19  21
ATOM     21  N   UNL     1       0.977  -3.138  -1.198  0.00  0.00    -0.352 N 
ATOM     22  H   UNL     1       0.963  -2.403  -1.831  0.00  0.00    +0.143 HD
ATOM     23  H   UNL     1       1.212  -4.030  -1.496  0.00  0.00    +0.143 HD
ENDBRANCH  19  21
ENDBRANCH   5  19
TORSDOF 4
