REMARK  Name = ZINC32074717
REMARK  7 active torsions:
REMARK  status: ('A' for Active; 'I' for Inactive)
REMARK    1  A    between atoms: C_1  and  C_2
REMARK    2  A    between atoms: C_2  and  C_3
REMARK    3  A    between atoms: C_2  and  C_4
REMARK    4  A    between atoms: C_2  and  N_5
REMARK    5  A    between atoms: C_12  and  O_14
REMARK    6  A    between atoms: N_21  and  C_24
REMARK    7  A    between atoms: C_24  and  C_25
REMARK                            x       y       z     vdW  Elec       q    Type
REMARK                         _______ _______ _______ _____ _____    ______ ____
ROOT
ATOM      1  N   UNL     1       0.688  -0.476  -1.203  0.00  0.00    -0.241 N 
ATOM      2  C   UNL     1       0.891  -1.765  -1.550  0.00  0.00    +0.159 A 
ATOM      3  C   UNL     1       1.567  -1.760  -2.765  0.00  0.00    +0.036 A 
ATOM      4  C   UNL     1       1.771  -0.443  -3.131  0.00  0.00    +0.141 A 
ATOM      5  N   UNL     1       1.246   0.330  -2.208  0.00  0.00    -0.177 NA
ATOM      6  C   UNL     1       1.944  -3.043  -3.452  0.00  0.00    +0.112 C 
ATOM      7  C   UNL     1       2.137  -4.127  -2.393  0.00  0.00    +0.121 C 
ATOM      8  C   UNL     1       1.081  -4.047  -1.327  0.00  0.00    +0.191 C 
ATOM      9  N   UNL     1       0.536  -2.933  -0.940  0.00  0.00    -0.198 NA
ATOM     10  C   UNL     1       0.916  -3.444  -4.459  0.00  0.00    -0.006 A 
ATOM     11  C   UNL     1      -0.422  -3.749  -4.331  0.00  0.00    +0.007 A 
ATOM     12  C   UNL     1      -1.106  -4.090  -5.492  0.00  0.00    +0.000 A 
ATOM     13  C   UNL     1      -0.471  -4.123  -6.717  0.00  0.00    +0.002 A 
ATOM     14  C   UNL     1       0.875  -3.819  -6.854  0.00  0.00    +0.024 A 
ATOM     15  C   UNL     1       1.573  -3.474  -5.696  0.00  0.00    +0.041 A 
ATOM     16  N   UNL     1       2.905  -3.130  -5.542  0.00  0.00    -0.261 N 
ATOM     17  C   UNL     1       3.212  -2.860  -4.255  0.00  0.00    +0.236 C 
ATOM     18  O   UNL     1       4.298  -2.534  -3.825  0.00  0.00    -0.274 OA
ENDROOT
BRANCH   1  20
ATOM     19  C   UNL     1      -0.019   1.526   0.010  0.00  0.00    +0.036 C 
ATOM     20  C   UNL     1       0.002  -0.004   0.002  0.00  0.00    +0.057 C 
ATOM     21  C   UNL     1       0.742  -0.511   1.242  0.00  0.00    +0.036 C 
ATOM     22  C   UNL     1      -1.433  -0.534   0.013  0.00  0.00    +0.036 C 
ENDBRANCH   1  20
BRANCH   8  23
ATOM     23  O   UNL     1       0.675  -5.193  -0.742  0.00  0.00    -0.495 OA
ATOM     24  H   UNL     1      -0.005  -5.070  -0.066  0.00  0.00    +0.293 HD
ENDBRANCH   8  23
BRANCH  16  25
ATOM     25  C   UNL     1       3.867  -3.066  -6.644  0.00  0.00    +0.209 C 
BRANCH  25  26
ATOM     26  C   UNL     1       3.868  -1.678  -7.231  0.00  0.00    +0.228 C 
ATOM     27  O   UNL     1       3.137  -0.825  -6.772  0.00  0.00    -0.274 OA
ATOM     28  N   UNL     1       4.681  -1.383  -8.264  0.00  0.00    -0.328 N 
ATOM     29  H   UNL     1       5.266  -2.065  -8.631  0.00  0.00    +0.145 HD
ATOM     30  H   UNL     1       4.682  -0.489  -8.641  0.00  0.00    +0.145 HD
ENDBRANCH  25  26
ENDBRANCH  16  25
TORSDOF 4
