REMARK  Name = ZINC62489186
REMARK  4 active torsions:
REMARK  status: ('A' for Active; 'I' for Inactive)
REMARK    1  A    between atoms: C_2  and  C_3
REMARK    2  A    between atoms: C_7  and  N_9
REMARK    3  A    between atoms: C_10  and  C_12
REMARK    4  A    between atoms: C_12  and  N_13
REMARK                            x       y       z     vdW  Elec       q    Type
REMARK                         _______ _______ _______ _____ _____    ______ ____
ROOT
ATOM      1  N   UNL     1       3.319   7.800  -0.324  0.00  0.00    -0.291 N 
ATOM      2  C   UNL     1       4.327   8.688  -0.437  0.00  0.00    +0.303 C 
ATOM      3  O   UNL     1       5.471   8.297  -0.560  0.00  0.00    -0.253 OA
ATOM      4  N   UNL     1       4.065  10.010  -0.414  0.00  0.00    -0.282 N 
ATOM      5  C   UNL     1       2.695  10.434  -0.364  0.00  0.00    +0.113 C 
ATOM      6  C   UNL     1       2.499  11.693   0.426  0.00  0.00    +0.007 C 
ATOM      7  C   UNL     1       3.242  11.680   1.752  0.00  0.00    +0.008 C 
ATOM      8  C   UNL     1       4.670  12.180   1.671  0.00  0.00    -0.009 C 
ATOM      9  C   UNL     1       4.742  13.522   0.937  0.00  0.00    +0.007 C 
ATOM     10  C   UNL     1       4.178  13.300  -0.468  0.00  0.00    -0.009 C 
ATOM     11  C   UNL     1       2.690  12.970  -0.342  0.00  0.00    +0.008 C 
ATOM     12  C   UNL     1       4.921  12.208  -1.202  0.00  0.00    +0.026 C 
ATOM     13  C   UNL     1       5.183  10.937  -0.436  0.00  0.00    +0.078 C 
ATOM     14  C   UNL     1       5.623  11.201   0.999  0.00  0.00    +0.026 C 
ATOM     15  H   UNL     1       2.400   8.109  -0.303  0.00  0.00    +0.151 HD
ENDROOT
BRANCH   1  16
ATOM     16  C   UNL     1       3.613   6.367  -0.235  0.00  0.00    +0.202 C 
BRANCH  16  18
ATOM     17  N   UNL     1       2.348   4.253  -0.020  0.00  0.00    -0.284 N 
ATOM     18  C   UNL     1       2.323   5.597  -0.117  0.00  0.00    +0.234 C 
ATOM     19  O   UNL     1       1.263   6.186  -0.108  0.00  0.00    -0.274 OA
ATOM     20  H   UNL     1       3.196   3.787   0.047  0.00  0.00    +0.155 HD
BRANCH  17  25
ATOM     21  C   UNL     1      -1.124   3.255  -0.752  0.00  0.00    +0.026 A 
ATOM     22  C   UNL     1      -1.219   2.082  -0.001  0.00  0.00    +0.017 A 
ATOM     23  C   UNL     1      -0.136   1.643   0.733  0.00  0.00    +0.003 A 
ATOM     24  C   UNL     1       1.045   2.361   0.727  0.00  0.00    +0.023 A 
ATOM     25  C   UNL     1       1.150   3.530  -0.018  0.00  0.00    +0.035 A 
ATOM     26  C   UNL     1       0.069   3.976  -0.763  0.00  0.00    +0.040 A 
BRANCH  21  28
ATOM     27  C   UNL     1      -3.167   4.088  -2.139  0.00  0.00    +0.009 C 
ATOM     28  C   UNL     1      -2.247   3.713  -1.514  0.00  0.00    -0.070 C 
ENDBRANCH  21  28
ENDBRANCH  17  25
ENDBRANCH  16  18
ENDBRANCH   1  16
TORSDOF 4
