REMARK  Name = ZINC05082429
REMARK  7 active torsions:
REMARK  status: ('A' for Active; 'I' for Inactive)
REMARK    1  A    between atoms: C_1  and  C_2
REMARK    2  A    between atoms: C_2  and  C_4
REMARK    3  A    between atoms: C_2  and  S_7
REMARK    4  A    between atoms: S_7  and  C_8
REMARK    5  A    between atoms: C_13  and  N_17
REMARK    6  A    between atoms: C_14  and  N_16
REMARK    7  A    between atoms: C_18  and  C_20
REMARK                            x       y       z     vdW  Elec       q    Type
REMARK                         _______ _______ _______ _____ _____    ______ ____
ROOT
ATOM      1  C   UNL     1       2.511  -0.027  -1.304  0.00  0.00    +0.172 A 
ATOM      2  N   UNL     1       3.437  -0.304  -2.264  0.00  0.00    -0.300 N 
ATOM      3  H   UNL     1       3.179  -0.804  -3.054  0.00  0.00    +0.171 HD
ATOM      4  C   UNL     1       4.711   0.116  -2.119  0.00  0.00    +0.275 A 
ATOM      5  O   UNL     1       5.547  -0.128  -2.975  0.00  0.00    -0.266 OA
ATOM      6  C   UNL     1       5.058   0.838  -0.968  0.00  0.00    +0.139 A 
ATOM      7  C   UNL     1       4.073   1.093  -0.018  0.00  0.00    +0.146 A 
ATOM      8  N   UNL     1       2.826   0.655  -0.222  0.00  0.00    -0.207 NA
ENDROOT
BRANCH   6   9
ATOM      9  N   UNL     1       6.376   1.295  -0.776  0.00  0.00    -0.272 N 
ATOM     10  C   UNL     1       7.395   0.413  -0.733  0.00  0.00    +0.284 C 
ATOM     11  O   UNL     1       7.188  -0.768  -0.944  0.00  0.00    -0.266 OA
ATOM     12  H   UNL     1       6.551   2.244  -0.676  0.00  0.00    +0.155 HD
BRANCH  10  13
ATOM     13  C   UNL     1       8.752   0.877  -0.431  0.00  0.00    +0.191 A 
ATOM     14  C   UNL     1       9.870   0.095  -0.361  0.00  0.00    +0.056 A 
ATOM     15  C   UNL     1      10.940   0.947  -0.050  0.00  0.00    +0.058 A 
ATOM     16  C   UNL     1      10.435   2.198   0.056  0.00  0.00    +0.171 A 
ATOM     17  O   UNL     1       9.117   2.151  -0.179  0.00  0.00    -0.444 OA
ATOM     18 BR   UNL     1      11.428   3.756   0.463  0.00  0.00    -0.008 Br
ENDBRANCH  10  13
ENDBRANCH   6   9
BRANCH   7  19
ATOM     19  N   UNL     1       4.382   1.802   1.129  0.00  0.00    -0.341 N 
ATOM     20  H   UNL     1       5.286   2.123   1.272  0.00  0.00    +0.144 HD
ATOM     21  H   UNL     1       3.693   1.979   1.789  0.00  0.00    +0.144 HD
ENDBRANCH   7  19
BRANCH   1  22
ATOM     22  S   UNL     1       0.854  -0.587  -1.517  0.00  0.00    -0.073 S 
BRANCH  22  24
ATOM     23  C   UNL     1      -0.023   1.535  -0.030  0.00  0.00    +0.031 C 
ATOM     24  C   UNL     1      -0.004   0.005  -0.032  0.00  0.00    +0.164 C 
BRANCH  24  25
ATOM     25  C   UNL     1      -1.418  -0.515  -0.028  0.00  0.00    +0.369 C 
ATOM     26  O   UNL     1      -1.962  -0.811  -1.079  0.00  0.00    -0.245 OA
ATOM     27  O   UNL     1      -2.018  -0.641   1.026  0.00  0.00    -0.245 OA
ENDBRANCH  24  25
ENDBRANCH  22  24
ENDBRANCH   1  22
TORSDOF 6
