REMARK  Name = ZINC06546066
REMARK  13 active torsions:
REMARK  status: ('A' for Active; 'I' for Inactive)
REMARK    1  A    between atoms: C_1  and  C_2
REMARK    2  A    between atoms: C_2  and  O_3
REMARK    3  A    between atoms: O_3  and  C_4
REMARK    4  A    between atoms: C_4  and  C_6
REMARK    5  A    between atoms: C_6  and  C_7
REMARK    6  A    between atoms: C_8  and  C_28
REMARK    7  A    between atoms: C_17  and  N_21
REMARK    8  A    between atoms: C_18  and  C_19
REMARK    9  A    between atoms: N_24  and  C_25
REMARK   10  A    between atoms: C_25  and  C_26
REMARK   11  A    between atoms: C_28  and  O_30
REMARK   12  A    between atoms: O_30  and  C_31
REMARK   13  A    between atoms: C_31  and  C_32
REMARK                            x       y       z     vdW  Elec       q    Type
REMARK                         _______ _______ _______ _____ _____    ______ ____
ROOT
ATOM      1  C   UNL     1      -1.827   2.699   0.719  0.00  0.00    +0.037 C 
ATOM      2  C   UNL     1      -0.782   2.006   1.212  0.00  0.00    +0.079 C 
ATOM      3  C   UNL     1      -0.018   1.498   0.010  0.00  0.00    +0.148 C 
ATOM      4  C   UNL     1       0.002  -0.004   0.002  0.00  0.00    +0.020 A 
ATOM      5  C   UNL     1      -1.143  -0.706  -0.328  0.00  0.00    +0.009 A 
ATOM      6  C   UNL     1      -1.131  -2.088  -0.340  0.00  0.00    +0.001 A 
ATOM      7  C   UNL     1       0.026  -2.774  -0.018  0.00  0.00    +0.004 A 
ATOM      8  C   UNL     1       1.171  -2.078   0.313  0.00  0.00    +0.046 A 
ATOM      9  C   UNL     1       1.165  -0.689   0.324  0.00  0.00    +0.135 A 
ATOM     10  O   UNL     1       2.297  -0.019   0.650  0.00  0.00    -0.441 OA
ATOM     11  C   UNL     1       2.438   1.275   0.315  0.00  0.00    +0.199 C 
ATOM     12  C   UNL     1       1.374   2.053   0.000  0.00  0.00    +0.110 C 
ATOM     13  C   UNL     1      -0.807   2.020  -1.169  0.00  0.00    +0.241 C 
ATOM     14  O   UNL     1      -0.559   1.855  -2.344  0.00  0.00    -0.273 OA
ATOM     15  N   UNL     1      -1.841   2.707  -0.645  0.00  0.00    -0.261 N 
ENDROOT
BRANCH  11  16
ATOM     16  N   UNL     1       3.696   1.823   0.291  0.00  0.00    -0.328 N 
ATOM     17  H   UNL     1       4.468   1.278   0.515  0.00  0.00    +0.145 HD
ATOM     18  H   UNL     1       3.815   2.756   0.052  0.00  0.00    +0.145 HD
ENDBRANCH  11  16
BRANCH  12  19
ATOM     19  C   UNL     1       1.583   3.427  -0.347  0.00  0.00    +0.102 C 
ATOM     20  N   UNL     1       1.748   4.516  -0.623  0.00  0.00    -0.191 NA
ENDBRANCH  12  19
BRANCH   2  21
ATOM     21  C   UNL     1      -0.465   1.796   2.575  0.00  0.00    +0.338 C 
ATOM     22  O   UNL     1      -1.174   2.268   3.444  0.00  0.00    -0.245 OA
BRANCH  21  23
ATOM     23  O   UNL     1       0.624   1.073   2.911  0.00  0.00    -0.462 OA
BRANCH  23  24
ATOM     24  C   UNL     1       0.883   0.902   4.306  0.00  0.00    +0.229 C 
ATOM     25  C   UNL     1       2.149   0.061   4.489  0.00  0.00    +0.048 C 
ENDBRANCH  23  24
ENDBRANCH  21  23
ENDBRANCH   2  21
BRANCH   1  26
ATOM     26  C   UNL     1      -2.860   3.385   1.575  0.00  0.00    +0.172 C 
BRANCH  26  27
ATOM     27  C   UNL     1      -2.480   4.832   1.758  0.00  0.00    +0.313 C 
ATOM     28  O   UNL     1      -1.474   5.262   1.245  0.00  0.00    -0.250 OA
BRANCH  27  29
ATOM     29  O   UNL     1      -3.260   5.643   2.490  0.00  0.00    -0.465 OA
BRANCH  29  31
ATOM     30  C   UNL     1      -3.839   7.789   3.485  0.00  0.00    +0.048 C 
ATOM     31  C   UNL     1      -2.833   7.025   2.623  0.00  0.00    +0.229 C 
ENDBRANCH  29  31
ENDBRANCH  27  29
ENDBRANCH  26  27
ENDBRANCH   1  26
BRANCH  15  32
ATOM     32  C   UNL     1      -2.862   3.385  -1.448  0.00  0.00    +0.201 C 
BRANCH  32  33
ATOM     33  C   UNL     1      -2.436   4.768  -1.717  0.00  0.00    -0.086 C 
ATOM     34  C   UNL     1      -2.096   5.871  -1.933  0.00  0.00    +0.005 C 
ENDBRANCH  32  33
ENDBRANCH  15  32
TORSDOF 11
