REMARK  Name = ZINC36020509
REMARK  7 active torsions:
REMARK  status: ('A' for Active; 'I' for Inactive)
REMARK    1  A    between atoms: C_10  and  N_11
REMARK    2  A    between atoms: N_11  and  C_12
REMARK    3  A    between atoms: C_12  and  C_13
REMARK    4  A    between atoms: N_15  and  N_16
REMARK    5  A    between atoms: C_17  and  C_18
REMARK    6  A    between atoms: C_21  and  N_25
REMARK    7  A    between atoms: C_22  and  O_24
REMARK                            x       y       z     vdW  Elec       q    Type
REMARK                         _______ _______ _______ _____ _____    ______ ____
ROOT
ATOM      1  C   UNL     1       7.279   0.378  -0.065  0.00  0.00    +0.249 C 
ATOM      2  O   UNL     1       7.041   1.567  -0.057  0.00  0.00    -0.272 OA
ATOM      3  N   UNL     1       8.556  -0.053  -0.079  0.00  0.00    -0.206 N 
ATOM      4  H   UNL     1       8.747  -1.004  -0.086  0.00  0.00    +0.177 HD
ENDROOT
BRANCH   3   5
ATOM      5  N   UNL     1       9.608   0.872  -0.085  0.00  0.00    -0.188 NA
ATOM      6  C   UNL     1      10.837   0.458  -0.099  0.00  0.00    +0.138 C 
BRANCH   6   7
ATOM      7  C   UNL     1      11.944   1.432  -0.105  0.00  0.00    -0.002 A 
ATOM      8  C   UNL     1      11.673   2.803  -0.090  0.00  0.00    +0.012 A 
ATOM      9  C   UNL     1      12.711   3.711  -0.095  0.00  0.00    +0.037 A 
ATOM     10  C   UNL     1      14.021   3.270  -0.116  0.00  0.00    +0.167 A 
ATOM     11  C   UNL     1      14.302   1.910  -0.131  0.00  0.00    +0.148 A 
ATOM     12  C   UNL     1      13.268   0.989  -0.119  0.00  0.00    +0.057 A 
BRANCH  10  13
ATOM     13  N   UNL     1      15.130   4.251  -0.123  0.00  0.00    +0.060 N 
ATOM     14  O   UNL     1      14.888   5.436  -0.110  0.00  0.00    -0.126 OA
ATOM     15  O   UNL     1      16.276   3.868  -0.141  0.00  0.00    -0.126 OA
ENDBRANCH  10  13
BRANCH  11  16
ATOM     16  O   UNL     1      15.592   1.483  -0.153  0.00  0.00    -0.504 OA
ATOM     17  H   UNL     1      15.977   1.352   0.725  0.00  0.00    +0.292 HD
ENDBRANCH  11  16
ENDBRANCH   6   7
ENDBRANCH   3   5
BRANCH   1  18
ATOM     18  C   UNL     1       6.148  -0.618  -0.059  0.00  0.00    +0.199 C 
BRANCH  18  19
ATOM     19  N   UNL     1       4.869   0.096  -0.044  0.00  0.00    -0.335 N 
ATOM     20  H   UNL     1       4.855   1.066  -0.039  0.00  0.00    +0.147 HD
BRANCH  19  30
ATOM     21  C   UNL     1      -0.016   1.357   0.009  0.00  0.00    +0.001 A 
ATOM     22  C   UNL     1       1.169   2.090   0.002  0.00  0.00    +0.001 A 
ATOM     23  C   UNL     1       2.378   1.466  -0.013  0.00  0.00    +0.010 A 
ATOM     24  C   UNL     1       2.437   0.064  -0.021  0.00  0.00    +0.003 A 
ATOM     25  C   UNL     1       1.233  -0.683  -0.013  0.00  0.00    -0.016 A 
ATOM     26  C   UNL     1       0.002  -0.004   0.002  0.00  0.00    +0.008 A 
ATOM     27  C   UNL     1       1.290  -2.087  -0.020  0.00  0.00    +0.008 A 
ATOM     28  C   UNL     1       2.496  -2.719  -0.034  0.00  0.00    +0.002 A 
ATOM     29  C   UNL     1       3.685  -1.997  -0.041  0.00  0.00    +0.023 A 
ATOM     30  C   UNL     1       3.673  -0.618  -0.036  0.00  0.00    +0.035 A 
ENDBRANCH  19  30
ENDBRANCH  18  19
ENDBRANCH   1  18
TORSDOF 7
