REMARK  Name = ZINC41626535
REMARK  6 active torsions:
REMARK  status: ('A' for Active; 'I' for Inactive)
REMARK    1  A    between atoms: C_1  and  C_2
REMARK    2  A    between atoms: C_2  and  C_3
REMARK    3  A    between atoms: C_9  and  S_11
REMARK    4  A    between atoms: S_11  and  C_12
REMARK    5  A    between atoms: C_12  and  C_13
REMARK    6  A    between atoms: C_13  and  C_15
REMARK                            x       y       z     vdW  Elec       q    Type
REMARK                         _______ _______ _______ _____ _____    ______ ____
ROOT
ATOM      1  C   UNL     1       6.380  -0.639   0.315  0.00  0.00    +0.173 C 
ATOM      2  O   UNL     1       7.099  -1.022   1.214  0.00  0.00    -0.291 OA
ENDROOT
BRANCH   1   3
ATOM      3  C   UNL     1       6.965  -0.226  -0.967  0.00  0.00    +0.020 A 
ATOM      4  C   UNL     1       6.138   0.222  -2.005  0.00  0.00    +0.015 A 
ATOM      5  C   UNL     1       6.686   0.610  -3.207  0.00  0.00    +0.048 A 
ATOM      6  C   UNL     1       8.061   0.559  -3.394  0.00  0.00    +0.142 A 
ATOM      7  C   UNL     1       8.893   0.114  -2.363  0.00  0.00    +0.076 A 
ATOM      8  C   UNL     1       8.353  -0.272  -1.154  0.00  0.00    +0.038 A 
ATOM      9  N   UNL     1      10.279   0.070  -2.573  0.00  0.00    -0.280 N 
ATOM     10  C   UNL     1      10.804   0.742  -3.621  0.00  0.00    +0.255 C 
ATOM     11  O   UNL     1      11.996   0.694  -3.840  0.00  0.00    -0.272 OA
ATOM     12  C   UNL     1       9.902   1.551  -4.517  0.00  0.00    +0.325 C 
ATOM     13  O   UNL     1       8.610   0.941  -4.575  0.00  0.00    -0.481 OA
ATOM     14  H   UNL     1      10.852  -0.435  -1.975  0.00  0.00    +0.155 HD
ENDBRANCH   1   3
BRANCH   1  15
ATOM     15  C   UNL     1       4.887  -0.589   0.513  0.00  0.00    +0.156 C 
BRANCH  15  16
ATOM     16  S   UNL     1       4.480  -1.158   2.187  0.00  0.00    -0.080 S 
BRANCH  16  23
ATOM     17  C   UNL     1       0.731  -0.503   1.223  0.00  0.00    +0.049 A 
ATOM     18  C   UNL     1       0.029  -0.849   2.342  0.00  0.00    +0.093 A 
ATOM     19  C   UNL     1       0.731  -1.312   3.468  0.00  0.00    +0.252 A 
ATOM     20  O   UNL     1       0.135  -1.630   4.484  0.00  0.00    -0.268 OA
ATOM     21  N   UNL     1       2.076  -1.400   3.404  0.00  0.00    -0.302 N 
ATOM     22  H   UNL     1       2.580  -1.717   4.170  0.00  0.00    +0.171 HD
ATOM     23  C   UNL     1       2.723  -1.041   2.261  0.00  0.00    +0.170 A 
ATOM     24  N   UNL     1       2.057  -0.612   1.206  0.00  0.00    -0.228 NA
BRANCH  17  26
ATOM     25  C   UNL     1      -0.019   1.526   0.010  0.00  0.00    +0.010 C 
ATOM     26  C   UNL     1       0.002  -0.004   0.002  0.00  0.00    +0.052 C 
ENDBRANCH  17  26
ENDBRANCH  16  23
ENDBRANCH  15  16
ENDBRANCH   1  15
TORSDOF 5
