REMARK  Name = ZINC39664168
REMARK  10 active torsions:
REMARK  status: ('A' for Active; 'I' for Inactive)
REMARK    1  A    between atoms: C_1  and  C_2
REMARK    2  A    between atoms: C_5  and  C_9
REMARK    3  A    between atoms: C_6  and  C_8
REMARK    4  A    between atoms: C_13  and  C_22
REMARK    5  A    between atoms: N_24  and  C_25
REMARK    6  A    between atoms: C_25  and  C_26
REMARK    7  A    between atoms: C_26  and  C_28
REMARK    8  A    between atoms: C_26  and  N_36
REMARK    9  A    between atoms: C_31  and  O_34
REMARK   10  A    between atoms: O_34  and  C_35
REMARK                            x       y       z     vdW  Elec       q    Type
REMARK                         _______ _______ _______ _____ _____    ______ ____
ROOT
ATOM      1  C   UNL     1       0.082  -4.138  -0.137  0.00  0.00    +0.247 C 
ATOM      2  O   UNL     1       0.120  -4.820   0.869  0.00  0.00    -0.270 OA
ATOM      3  N   UNL     1      -0.033  -4.725  -1.345  0.00  0.00    -0.296 N 
ATOM      4  C   UNL     1      -0.000  -4.077  -2.677  0.00  0.00    +0.121 C 
ATOM      5  C   UNL     1       0.803  -5.052  -3.566  0.00  0.00    +0.100 C 
ATOM      6  C   UNL     1       0.652  -6.421  -2.882  0.00  0.00    -0.004 C 
ATOM      7  C   UNL     1      -0.215  -6.167  -1.641  0.00  0.00    +0.115 C 
ATOM      8  C   UNL     1      -0.040  -7.407  -3.819  0.00  0.00    -0.010 C 
ATOM      9  C   UNL     1      -0.126  -8.776  -3.139  0.00  0.00    -0.082 C 
ATOM     10  N   UNL     1       1.225  -9.248  -2.812  0.00  0.00    +0.379 N 
ATOM     11  C   UNL     1       1.849  -8.344  -1.838  0.00  0.00    -0.082 C 
ATOM     12  C   UNL     1       2.018  -6.956  -2.464  0.00  0.00    -0.010 C 
ATOM     13  H   UNL     1       1.169 -10.176  -2.420  0.00  0.00    -0.086 HD
ATOM     14  H   UNL     1       1.783  -9.273  -3.652  0.00  0.00    -0.086 HD
ENDROOT
BRANCH   1  19
ATOM     15  C   UNL     1       0.394   1.594   0.258  0.00  0.00    +0.044 C 
ATOM     16  C   UNL     1       0.312   0.093   0.155  0.00  0.00    -0.050 A 
ATOM     17  C   UNL     1      -0.706  -0.493  -0.577  0.00  0.00    +0.004 A 
ATOM     18  C   UNL     1      -0.786  -1.866  -0.676  0.00  0.00    +0.013 A 
ATOM     19  C   UNL     1       0.162  -2.666  -0.036  0.00  0.00    +0.040 A 
ATOM     20  C   UNL     1       1.187  -2.069   0.700  0.00  0.00    -0.038 A 
ATOM     21  C   UNL     1       1.259  -0.694   0.787  0.00  0.00    +0.007 A 
ATOM     22  C   UNL     1       2.215  -2.924   1.394  0.00  0.00    +0.044 C 
ENDBRANCH   1  19
BRANCH   5  23
ATOM     23  C   UNL     1       2.253  -4.644  -3.616  0.00  0.00    +0.218 C 
ATOM     24  O   UNL     1       2.735  -4.008  -2.703  0.00  0.00    -0.275 OA
ATOM     25  N   UNL     1       3.014  -4.988  -4.674  0.00  0.00    -0.316 N 
ATOM     26  H   UNL     1       2.628  -5.497  -5.404  0.00  0.00    +0.149 HD
BRANCH  25  27
ATOM     27  C   UNL     1       4.423  -4.591  -4.722  0.00  0.00    +0.093 C 
BRANCH  27  28
ATOM     28  C   UNL     1       5.020  -4.991  -6.073  0.00  0.00    -0.020 C 
BRANCH  28  29
ATOM     29  C   UNL     1       4.325  -4.231  -7.173  0.00  0.00    -0.059 A 
ATOM     30  C   UNL     1       4.687  -2.925  -7.445  0.00  0.00    +0.005 A 
ATOM     31  C   UNL     1       4.051  -2.226  -8.453  0.00  0.00    +0.046 A 
ATOM     32  C   UNL     1       3.049  -2.836  -9.193  0.00  0.00    +0.120 A 
ATOM     33  C   UNL     1       2.688  -4.148  -8.919  0.00  0.00    +0.046 A 
ATOM     34  C   UNL     1       3.331  -4.844  -7.914  0.00  0.00    +0.005 A 
BRANCH  32  35
ATOM     35  O   UNL     1       2.422  -2.151 -10.185  0.00  0.00    -0.495 OA
ATOM     36  C   UNL     1       1.400  -2.843 -10.906  0.00  0.00    +0.277 C 
ENDBRANCH  32  35
ENDBRANCH  28  29
BRANCH  28  37
ATOM     37  N   UNL     1       6.454  -4.673  -6.088  0.00  0.00    +0.385 N 
ATOM     38  C   UNL     1       7.181  -5.542  -5.128  0.00  0.00    -0.078 C 
ATOM     39  C   UNL     1       8.640  -5.503  -5.650  0.00  0.00    -0.020 C 
ATOM     40  C   UNL     1       8.458  -5.497  -7.185  0.00  0.00    -0.020 C 
ATOM     41  C   UNL     1       7.028  -4.973  -7.418  0.00  0.00    -0.078 C 
ATOM     42  H   UNL     1       6.598  -3.701  -5.858  0.00  0.00    -0.081 HD
ENDBRANCH  28  37
ENDBRANCH  27  28
ENDBRANCH  25  27
ENDBRANCH   5  23
TORSDOF 7
