REMARK  Name = ZINC36525843
REMARK  18 active torsions:
REMARK  status: ('A' for Active; 'I' for Inactive)
REMARK    1  A    between atoms: C_1  and  C_2
REMARK    2  A    between atoms: C_2  and  C_3
REMARK    3  A    between atoms: C_2  and  C_4
REMARK    4  A    between atoms: C_2  and  C_5
REMARK    5  A    between atoms: C_5  and  C_6
REMARK    6  A    between atoms: C_6  and  C_7
REMARK    7  A    between atoms: C_6  and  C_8
REMARK    8  A    between atoms: C_6  and  N_9
REMARK    9  A    between atoms: C_10  and  C_12
REMARK   10  A    between atoms: C_12  and  C_14
REMARK   11  A    between atoms: C_12  and  N_23
REMARK   12  A    between atoms: C_15  and  O_22
REMARK   13  A    between atoms: C_17  and  O_21
REMARK   14  A    between atoms: C_19  and  O_20
REMARK   15  A    between atoms: N_23  and  C_24
REMARK   16  A    between atoms: C_25  and  C_27
REMARK   17  A    between atoms: C_27  and  C_28
REMARK   18  A    between atoms: C_28  and  C_29
REMARK                            x       y       z     vdW  Elec       q    Type
REMARK                         _______ _______ _______ _____ _____    ______ ____
ROOT
ATOM      1  C   UNL     1       5.668  -0.696  -3.947  0.00  0.00    +0.199 C 
ENDROOT
BRANCH   1   2
ATOM      2  C   UNL     1       5.293   0.123  -5.155  0.00  0.00    +0.065 A 
ATOM      3  C   UNL     1       5.923  -0.105  -6.370  0.00  0.00    +0.129 A 
ATOM      4  C   UNL     1       5.578   0.648  -7.481  0.00  0.00    +0.091 A 
ATOM      5  C   UNL     1       4.603   1.630  -7.379  0.00  0.00    +0.124 A 
ATOM      6  C   UNL     1       3.973   1.857  -6.165  0.00  0.00    +0.091 A 
ATOM      7  C   UNL     1       4.315   1.101  -5.054  0.00  0.00    +0.129 A 
BRANCH   7   8
ATOM      8  O   UNL     1       3.694   1.320  -3.865  0.00  0.00    -0.506 OA
ATOM      9  H   UNL     1       4.132   1.979  -3.309  0.00  0.00    +0.292 HD
ENDBRANCH   7   8
BRANCH   5  10
ATOM     10  O   UNL     1       4.266   2.369  -8.468  0.00  0.00    -0.507 OA
ATOM     11  H   UNL     1       3.549   1.989  -8.994  0.00  0.00    +0.292 HD
ENDBRANCH   5  10
BRANCH   3  12
ATOM     12  O   UNL     1       6.877  -1.067  -6.470  0.00  0.00    -0.506 OA
ATOM     13  H   UNL     1       6.527  -1.953  -6.634  0.00  0.00    +0.292 HD
ENDBRANCH   3  12
ENDBRANCH   1   2
BRANCH   1  15
ATOM     14  N   UNL     1       3.547  -1.719  -3.189  0.00  0.00    -0.308 N 
ATOM     15  C   UNL     1       4.491  -0.775  -3.009  0.00  0.00    +0.239 C 
ATOM     16  O   UNL     1       4.394   0.012  -2.091  0.00  0.00    -0.273 OA
ATOM     17  H   UNL     1       3.657  -2.388  -3.883  0.00  0.00    +0.149 HD
BRANCH  14  18
ATOM     18  C   UNL     1       2.355  -1.736  -2.338  0.00  0.00    +0.030 C 
ATOM     19  C   UNL     1       1.654  -0.379  -2.416  0.00  0.00    +0.031 C 
ATOM     20  C   UNL     1       2.766  -2.016  -0.891  0.00  0.00    +0.031 C 
BRANCH  18  21
ATOM     21  C   UNL     1       1.401  -2.831  -2.818  0.00  0.00    +0.031 C 
BRANCH  21  23
ATOM     22  C   UNL     1       2.560  -3.478  -4.935  0.00  0.00    +0.010 C 
ATOM     23  C   UNL     1       1.319  -2.803  -4.345  0.00  0.00    -0.036 C 
ATOM     24  C   UNL     1       1.251  -1.352  -4.826  0.00  0.00    +0.010 C 
ATOM     25  C   UNL     1       0.066  -3.552  -4.803  0.00  0.00    +0.010 C 
ENDBRANCH  21  23
ENDBRANCH  18  21
ENDBRANCH  14  18
ENDBRANCH   1  15
BRANCH   1  26
ATOM     26  N   UNL     1       6.798  -0.065  -3.261  0.00  0.00    -0.289 N 
ATOM     27  C   UNL     1       6.644   1.265  -2.666  0.00  0.00    +0.133 C 
ATOM     28  C   UNL     1       7.980  -0.708  -3.177  0.00  0.00    +0.216 C 
ATOM     29  O   UNL     1       8.107  -1.809  -3.670  0.00  0.00    -0.276 OA
BRANCH  28  30
ATOM     30  C   UNL     1       9.142  -0.059  -2.471  0.00  0.00    +0.096 C 
BRANCH  30  31
ATOM     31  C   UNL     1      10.354  -0.993  -2.519  0.00  0.00    +0.013 C 
BRANCH  31  32
ATOM     32  C   UNL     1      11.534  -0.334  -1.802  0.00  0.00    -0.011 C 
ATOM     33  C   UNL     1      11.204  -0.175  -0.317  0.00  0.00    +0.003 C 
ATOM     34  C   UNL     1      12.385   0.484   0.399  0.00  0.00    +0.000 C 
ATOM     35  C   UNL     1      13.629  -0.393   0.245  0.00  0.00    +0.000 C 
ATOM     36  C   UNL     1      13.959  -0.552  -1.241  0.00  0.00    +0.000 C 
ATOM     37  C   UNL     1      12.778  -1.211  -1.957  0.00  0.00    +0.003 C 
ENDBRANCH  31  32
ENDBRANCH  30  31
ENDBRANCH  28  30
ENDBRANCH   1  26
TORSDOF 12
