REMARK  Name = ZINC65520913
REMARK  11 active torsions:
REMARK  status: ('A' for Active; 'I' for Inactive)
REMARK    1  A    between atoms: C_1  and  C_2
REMARK    2  A    between atoms: C_5  and  O_9
REMARK    3  A    between atoms: C_7  and  C_8
REMARK    4  A    between atoms: O_9  and  C_10
REMARK    5  A    between atoms: C_10  and  C_11
REMARK    6  A    between atoms: N_13  and  N_14
REMARK    7  A    between atoms: N_17  and  C_18
REMARK    8  A    between atoms: C_18  and  C_19
REMARK    9  A    between atoms: N_22  and  C_24
REMARK   10  A    between atoms: C_24  and  C_25
REMARK   11  A    between atoms: C_24  and  C_26
REMARK                            x       y       z     vdW  Elec       q    Type
REMARK                         _______ _______ _______ _____ _____    ______ ____
ROOT
ATOM      1  N   UNL     1       0.103  -8.471  -2.006  0.00  0.00    -0.218 N 
ATOM      2  C   UNL     1       0.108  -9.286  -3.079  0.00  0.00    +0.316 C 
ATOM      3  O   UNL     1       0.124 -10.492  -2.926  0.00  0.00    -0.251 OA
ATOM      4  N   UNL     1       0.095  -8.764  -4.322  0.00  0.00    -0.298 N 
ATOM      5  H   UNL     1       0.112  -8.846  -1.111  0.00  0.00    +0.174 HD
ATOM      6  H   UNL     1       0.082  -7.802  -4.443  0.00  0.00    +0.150 HD
ENDROOT
BRANCH   1   9
ATOM      7  C   UNL     1       0.079  -6.266  -1.108  0.00  0.00    +0.267 C 
ATOM      8  O   UNL     1       0.090  -6.735   0.010  0.00  0.00    -0.271 OA
ATOM      9  N   UNL     1       0.084  -7.081  -2.182  0.00  0.00    -0.230 N 
ATOM     10  H   UNL     1       0.074  -6.705  -3.076  0.00  0.00    +0.173 HD
BRANCH   7  11
ATOM     11  C   UNL     1       0.058  -4.771  -1.298  0.00  0.00    +0.326 C 
BRANCH  11  12
ATOM     12  O   UNL     1       0.057  -4.129  -0.021  0.00  0.00    -0.483 OA
BRANCH  12  17
ATOM     13  C   UNL     1      -0.018   1.503   0.010  0.00  0.00    +0.044 C 
ATOM     14  C   UNL     1       0.002  -0.004   0.002  0.00  0.00    -0.047 A 
ATOM     15  C   UNL     1       0.006  -0.688  -1.200  0.00  0.00    +0.007 A 
ATOM     16  C   UNL     1       0.024  -2.069  -1.210  0.00  0.00    +0.046 A 
ATOM     17  C   UNL     1       0.039  -2.770  -0.013  0.00  0.00    +0.121 A 
ATOM     18  C   UNL     1       0.036  -2.082   1.191  0.00  0.00    +0.049 A 
ATOM     19  C   UNL     1       0.023  -0.701   1.196  0.00  0.00    -0.044 A 
ATOM     20  C   UNL     1       0.025   0.048   2.504  0.00  0.00    +0.044 C 
ENDBRANCH  12  17
ENDBRANCH  11  12
ENDBRANCH   7  11
ENDBRANCH   1   9
BRANCH   4  21
ATOM     21  C   UNL     1       0.100  -9.650  -5.488  0.00  0.00    +0.107 C 
BRANCH  21  22
ATOM     22  C   UNL     1       0.083  -8.810  -6.767  0.00  0.00    -0.012 C 
ATOM     23  C   UNL     1       1.444  -8.108  -6.979  0.00  0.00    -0.015 C 
ATOM     24  C   UNL     1       1.712  -8.199  -8.493  0.00  0.00    -0.078 C 
ATOM     25  N   UNL     1       0.550  -8.885  -9.098  0.00  0.00    +0.381 N 
ATOM     26  C   UNL     1      -0.038  -9.717  -8.017  0.00  0.00    -0.074 C 
ATOM     27  H   UNL     1      -0.125  -8.208  -9.422  0.00  0.00    -0.081 HD
BRANCH  25  28
ATOM     28  C   UNL     1       0.989  -9.737 -10.211  0.00  0.00    -0.075 C 
ATOM     29  C   UNL     1      -0.220 -10.466 -10.803  0.00  0.00    -0.014 C 
ATOM     30  C   UNL     1       1.640  -8.871 -11.291  0.00  0.00    -0.014 C 
ENDBRANCH  25  28
ENDBRANCH  21  22
ENDBRANCH   4  21
TORSDOF 7
