REMARK  Name = ZINC67163484
REMARK  14 active torsions:
REMARK  status: ('A' for Active; 'I' for Inactive)
REMARK    1  A    between atoms: C_1  and  C_2
REMARK    2  A    between atoms: C_2  and  C_3
REMARK    3  A    between atoms: C_3  and  C_4
REMARK    4  A    between atoms: C_3  and  C_6
REMARK    5  A    between atoms: C_3  and  N_26
REMARK    6  A    between atoms: C_4  and  C_5
REMARK    7  A    between atoms: C_6  and  N_7
REMARK    8  A    between atoms: C_8  and  C_10
REMARK    9  A    between atoms: C_10  and  C_11
REMARK   10  A    between atoms: C_11  and  C_12
REMARK   11  A    between atoms: C_12  and  C_13
REMARK   12  A    between atoms: C_13  and  C_14
REMARK   13  A    between atoms: N_26  and  C_27
REMARK   14  A    between atoms: N_26  and  C_28
REMARK                            x       y       z     vdW  Elec       q    Type
REMARK                         _______ _______ _______ _____ _____    ______ ____
ROOT
ATOM      1  C   UNL     1      -4.384  -4.077  -0.539  0.00  0.00    +0.096 C 
ENDROOT
BRANCH   1   3
ATOM      2  N   UNL     1      -2.804  -2.184  -0.345  0.00  0.00    -0.317 N 
ATOM      3  C   UNL     1      -2.992  -3.517  -0.399  0.00  0.00    +0.213 C 
ATOM      4  O   UNL     1      -2.040  -4.267  -0.335  0.00  0.00    -0.276 OA
ATOM      5  H   UNL     1      -3.565  -1.585  -0.397  0.00  0.00    +0.149 HD
BRANCH   2   6
ATOM      6  C   UNL     1      -1.451  -1.639  -0.209  0.00  0.00    +0.092 C 
BRANCH   6   7
ATOM      7  C   UNL     1      -1.528  -0.124  -0.013  0.00  0.00    -0.051 C 
BRANCH   7   8
ATOM      8  N   UNL     1      -0.172   0.441  -0.022  0.00  0.00    +0.381 N 
ATOM      9  C   UNL     1       0.648  -0.239   0.990  0.00  0.00    -0.096 C 
ATOM     10  C   UNL     1       0.429   0.250  -1.349  0.00  0.00    -0.096 C 
ATOM     11  H   UNL     1      -0.217   1.427   0.188  0.00  0.00    -0.082 HD
ENDBRANCH   7   8
BRANCH   7  13
ATOM     12  C   UNL     1      -2.320   2.021  -1.021  0.00  0.00    +0.002 C 
ATOM     13  C   UNL     1      -2.347   0.496  -1.147  0.00  0.00    -0.014 C 
ENDBRANCH   7  13
BRANCH   7  14
ATOM     14  C   UNL     1      -2.200   0.183   1.327  0.00  0.00    -0.014 C 
ATOM     15  C   UNL     1      -3.658  -0.278   1.285  0.00  0.00    +0.002 C 
ENDBRANCH   7  14
ENDBRANCH   6   7
ENDBRANCH   2   6
ENDBRANCH   1   3
BRANCH   1  16
ATOM     16  C   UNL     1      -4.317  -5.606  -0.576  0.00  0.00    +0.009 C 
BRANCH  16  17
ATOM     17  C   UNL     1      -5.731  -6.174  -0.718  0.00  0.00    +0.002 C 
BRANCH  17  18
ATOM     18  C   UNL     1      -5.664  -7.702  -0.754  0.00  0.00    +0.016 C 
BRANCH  18  19
ATOM     19  C   UNL     1      -7.078  -8.271  -0.897  0.00  0.00    +0.069 C 
ATOM     20  C   UNL     1      -7.057  -9.815  -0.894  0.00  0.00    +0.108 C 
ATOM     21  C   UNL     1      -8.026 -10.445  -1.899  0.00  0.00    +0.105 C 
ATOM     22  C   UNL     1      -8.825  -9.411  -2.722  0.00  0.00    +0.093 C 
ATOM     23  S   UNL     1      -7.769  -7.917  -2.571  0.00  0.00    -0.154 S 
ATOM     24  N   UNL     1      -7.154 -11.202  -2.810  0.00  0.00    -0.294 N 
ATOM     25  C   UNL     1      -5.880 -11.053  -2.420  0.00  0.00    +0.300 C 
ATOM     26  O   UNL     1      -4.945 -11.573  -2.996  0.00  0.00    -0.253 OA
ATOM     27  N   UNL     1      -5.736 -10.278  -1.346  0.00  0.00    -0.294 N 
ATOM     28  H   UNL     1      -7.452 -11.726  -3.570  0.00  0.00    +0.151 HD
ATOM     29  H   UNL     1      -4.888 -10.059  -0.928  0.00  0.00    +0.151 HD
ENDBRANCH  18  19
ENDBRANCH  17  18
ENDBRANCH  16  17
ENDBRANCH   1  16
TORSDOF 10
