REMARK  Name = ZINC35575690
REMARK  8 active torsions:
REMARK  status: ('A' for Active; 'I' for Inactive)
REMARK    1  A    between atoms: C_1  and  C_2
REMARK    2  A    between atoms: C_2  and  C_3
REMARK    3  A    between atoms: C_2  and  C_4
REMARK    4  A    between atoms: C_7  and  N_10
REMARK    5  A    between atoms: C_11  and  N_29
REMARK    6  A    between atoms: C_13  and  C_23
REMARK    7  A    between atoms: C_15  and  S_19
REMARK    8  A    between atoms: S_19  and  C_22
REMARK                            x       y       z     vdW  Elec       q    Type
REMARK                         _______ _______ _______ _____ _____    ______ ____
ROOT
ATOM      1  N   UNL     1      -5.543  -1.641   0.039  0.00  0.00    -0.216 N 
ATOM      2  C   UNL     1      -6.168  -2.100  -1.063  0.00  0.00    +0.131 A 
ATOM      3  C   UNL     1      -7.229  -2.892  -0.642  0.00  0.00    +0.086 A 
ATOM      4  C   UNL     1      -8.245  -3.644  -1.271  0.00  0.00    +0.089 A 
ATOM      5  N   UNL     1      -9.112  -4.292  -0.502  0.00  0.00    -0.211 NA
ATOM      6  C   UNL     1      -9.050  -4.253   0.819  0.00  0.00    +0.272 A 
ATOM      7  N   UNL     1      -8.144  -3.582   1.486  0.00  0.00    -0.190 NA
ATOM      8  C   UNL     1      -7.200  -2.878   0.833  0.00  0.00    +0.189 A 
ATOM      9  N   UNL     1      -6.180  -2.127   1.186  0.00  0.00    -0.144 NA
ENDROOT
BRANCH   1  13
ATOM     10  C   UNL     1      -2.197   0.844   0.032  0.00  0.00    -0.045 A 
ATOM     11  C   UNL     1      -3.155   0.979   1.020  0.00  0.00    +0.006 A 
ATOM     12  C   UNL     1      -4.265   0.157   1.025  0.00  0.00    +0.028 A 
ATOM     13  C   UNL     1      -4.419  -0.806   0.036  0.00  0.00    +0.068 A 
ATOM     14  C   UNL     1      -3.455  -0.938  -0.955  0.00  0.00    +0.028 A 
ATOM     15  C   UNL     1      -2.350  -0.110  -0.957  0.00  0.00    +0.006 A 
BRANCH  10  17
ATOM     16  C   UNL     1      -1.436   3.201  -0.078  0.00  0.00    +0.012 C 
ATOM     17  C   UNL     1      -0.988   1.742   0.030  0.00  0.00    +0.013 C 
ATOM     18  C   UNL     1      -0.203   1.545   1.328  0.00  0.00    +0.012 C 
ENDBRANCH  10  17
ENDBRANCH   1  13
BRANCH   4  19
ATOM     19  C   UNL     1      -8.341  -3.707  -2.747  0.00  0.00    +0.001 A 
ATOM     20  C   UNL     1      -7.200  -3.944  -3.514  0.00  0.00    +0.010 A 
ATOM     21  C   UNL     1      -7.296  -4.002  -4.889  0.00  0.00    +0.001 A 
ATOM     22  C   UNL     1      -8.521  -3.826  -5.508  0.00  0.00    +0.000 A 
ATOM     23  C   UNL     1      -9.656  -3.591  -4.753  0.00  0.00    +0.001 A 
ATOM     24  C   UNL     1      -9.575  -3.536  -3.377  0.00  0.00    +0.010 A 
ENDBRANCH   4  19
BRANCH   6  25
ATOM     25  S   UNL     1     -10.256  -5.154   1.734  0.00  0.00    +0.029 S 
ATOM     26  O   UNL     1     -10.347  -4.477   2.980  0.00  0.00    -0.167 OA
ATOM     27  O   UNL     1     -11.381  -5.235   0.869  0.00  0.00    -0.167 OA
ATOM     28  C   UNL     1      -9.530  -6.799   1.969  0.00  0.00    +0.204 C 
ENDBRANCH   6  25
BRANCH   2  29
ATOM     29  N   UNL     1      -5.817  -1.832  -2.373  0.00  0.00    -0.342 N 
ATOM     30  H   UNL     1      -4.971  -1.401  -2.570  0.00  0.00    +0.144 HD
ATOM     31  H   UNL     1      -6.418  -2.075  -3.095  0.00  0.00    +0.144 HD
ENDBRANCH   2  29
TORSDOF 5
