REMARK  Name = ZINC53156382
REMARK  8 active torsions:
REMARK  status: ('A' for Active; 'I' for Inactive)
REMARK    1  A    between atoms: C_1  and  C_2
REMARK    2  A    between atoms: C_2  and  C_3
REMARK    3  A    between atoms: C_2  and  C_4
REMARK    4  A    between atoms: C_2  and  N_17
REMARK    5  A    between atoms: N_6  and  N_7
REMARK    6  A    between atoms: C_8  and  C_10
REMARK    7  A    between atoms: N_14  and  C_15
REMARK    8  A    between atoms: N_20  and  C_21
REMARK                            x       y       z     vdW  Elec       q    Type
REMARK                         _______ _______ _______ _____ _____    ______ ____
ROOT
ATOM      1  C   UNL     1      -1.106  -1.548  -0.093  0.00  0.00    +0.252 C 
ATOM      2  O   UNL     1      -1.652  -1.782   0.964  0.00  0.00    -0.272 OA
ATOM      3  N   UNL     1      -1.826  -1.513  -1.231  0.00  0.00    -0.232 N 
ATOM      4  H   UNL     1      -1.389  -1.326  -2.077  0.00  0.00    +0.173 HD
ENDROOT
BRANCH   3   5
ATOM      5  N   UNL     1      -3.207  -1.747  -1.194  0.00  0.00    -0.229 N 
ATOM      6  C   UNL     1      -3.928  -1.712  -2.332  0.00  0.00    +0.277 C 
ATOM      7  O   UNL     1      -3.401  -1.377  -3.376  0.00  0.00    -0.267 OA
ATOM      8  H   UNL     1      -3.644  -1.934  -0.348  0.00  0.00    +0.173 HD
BRANCH   6   9
ATOM      9  C   UNL     1      -5.348  -2.078  -2.312  0.00  0.00    +0.107 A 
ATOM     10  C   UNL     1      -6.092  -2.395  -1.195  0.00  0.00    +0.047 A 
ATOM     11  C   UNL     1      -7.391  -2.678  -1.633  0.00  0.00    +0.036 A 
ATOM     12  C   UNL     1      -7.416  -2.532  -2.980  0.00  0.00    +0.101 A 
ATOM     13  N   UNL     1      -6.182  -2.162  -3.404  0.00  0.00    -0.345 N 
ATOM     14  C   UNL     1      -5.799  -1.899  -4.793  0.00  0.00    +0.149 C 
ATOM     15 BR   UNL     1      -8.851  -3.176  -0.540  0.00  0.00    -0.049 Br
ENDBRANCH   6   9
ENDBRANCH   3   5
BRANCH   1  17
ATOM     16  C   UNL     1       0.643   0.211  -0.082  0.00  0.00    +0.041 C 
ATOM     17  C   UNL     1       0.380  -1.296  -0.134  0.00  0.00    +0.108 C 
ATOM     18  C   UNL     1       1.045  -1.972   1.067  0.00  0.00    +0.041 C 
BRANCH  17  19
ATOM     19  N   UNL     1       0.934  -1.846  -1.373  0.00  0.00    -0.286 N 
ATOM     20  C   UNL     1       2.254  -1.737  -1.627  0.00  0.00    +0.300 C 
ATOM     21  O   UNL     1       2.983  -1.182  -0.828  0.00  0.00    -0.253 OA
ATOM     22  N   UNL     1       2.764  -2.243  -2.768  0.00  0.00    -0.302 N 
ATOM     23  C   UNL     1       4.198  -2.124  -3.044  0.00  0.00    +0.129 C 
ATOM     24  H   UNL     1       0.353  -2.288  -2.010  0.00  0.00    +0.151 HD
ATOM     25  H   UNL     1       2.182  -2.685  -3.405  0.00  0.00    +0.150 HD
ENDBRANCH  17  19
ENDBRANCH   1  17
TORSDOF 4
