REMARK  Name = ZINC12296272
REMARK  11 active torsions:
REMARK  status: ('A' for Active; 'I' for Inactive)
REMARK    1  A    between atoms: C_1  and  O_2
REMARK    2  A    between atoms: O_2  and  C_3
REMARK    3  A    between atoms: C_6  and  O_9
REMARK    4  A    between atoms: O_9  and  C_10
REMARK    5  A    between atoms: C_15  and  O_21
REMARK    6  A    between atoms: O_21  and  C_22
REMARK    7  A    between atoms: C_24  and  O_37
REMARK    8  A    between atoms: C_26  and  O_36
REMARK    9  A    between atoms: C_28  and  O_35
REMARK   10  A    between atoms: C_30  and  C_33
REMARK   11  A    between atoms: C_33  and  O_34
REMARK                            x       y       z     vdW  Elec       q    Type
REMARK                         _______ _______ _______ _____ _____    ______ ____
ROOT
ATOM      1  C   UNL     1      -6.989   1.789  -2.314  0.00  0.00    +0.210 A 
ATOM      2  C   UNL     1      -6.382   2.733  -3.060  0.00  0.00    +0.245 A 
ATOM      3  O   UNL     1      -5.141   3.169  -2.807  0.00  0.00    -0.459 OA
ATOM      4  C   UNL     1      -4.404   2.696  -1.782  0.00  0.00    +0.142 A 
ATOM      5  C   UNL     1      -3.120   3.170  -1.547  0.00  0.00    +0.092 A 
ATOM      6  C   UNL     1      -2.385   2.666  -0.488  0.00  0.00    +0.128 A 
ATOM      7  C   UNL     1      -2.920   1.682   0.342  0.00  0.00    +0.047 A 
ATOM      8  C   UNL     1      -4.182   1.209   0.127  0.00  0.00    +0.019 A 
ATOM      9  C   UNL     1      -4.937   1.707  -0.937  0.00  0.00    +0.068 A 
ATOM     10  C   UNL     1      -6.300   1.219  -1.206  0.00  0.00    +0.234 A 
ATOM     11  O   UNL     1      -6.818   0.363  -0.508  0.00  0.00    -0.283 OA
ENDROOT
BRANCH   1  12
ATOM     12  O   UNL     1      -8.252   1.383  -2.618  0.00  0.00    -0.449 OA
BRANCH  12  16
ATOM     13  C   UNL     1     -10.106   3.095  -5.884  0.00  0.00    +0.120 A 
ATOM     14  C   UNL     1      -9.347   1.945  -6.042  0.00  0.00    +0.049 A 
ATOM     15  C   UNL     1      -8.727   1.372  -4.949  0.00  0.00    +0.050 A 
ATOM     16  C   UNL     1      -8.863   1.947  -3.693  0.00  0.00    +0.129 A 
ATOM     17  C   UNL     1      -9.626   3.094  -3.535  0.00  0.00    +0.050 A 
ATOM     18  C   UNL     1     -10.242   3.670  -4.630  0.00  0.00    +0.049 A 
BRANCH  13  20
ATOM     19  C   UNL     1     -11.481   4.843  -6.726  0.00  0.00    +0.277 C 
ATOM     20  O   UNL     1     -10.716   3.660  -6.961  0.00  0.00    -0.495 OA
ENDBRANCH  13  20
ENDBRANCH  12  16
ENDBRANCH   1  12
BRANCH   6  21
ATOM     21  O   UNL     1      -1.130   3.130  -0.259  0.00  0.00    -0.461 OA
BRANCH  21  22
ATOM     22  C   UNL     1      -0.423   2.570   0.849  0.00  0.00    +0.339 C 
ATOM     23  C   UNL     1       0.853   3.377   1.101  0.00  0.00    +0.214 C 
ATOM     24  C   UNL     1       1.635   2.734   2.251  0.00  0.00    +0.180 C 
ATOM     25  C   UNL     1       1.931   1.273   1.900  0.00  0.00    +0.177 C 
ATOM     26  C   UNL     1       0.612   0.548   1.617  0.00  0.00    +0.179 C 
ATOM     27  O   UNL     1      -0.079   1.214   0.558  0.00  0.00    -0.331 OA
BRANCH  25  28
ATOM     28  O   UNL     1       2.764   1.219   0.740  0.00  0.00    -0.386 OA
ATOM     29  H   UNL     1       3.618   1.660   0.848  0.00  0.00    +0.210 HD
ENDBRANCH  25  28
BRANCH  24  30
ATOM     30  O   UNL     1       0.857   2.790   3.448  0.00  0.00    -0.386 OA
ATOM     31  H   UNL     1       0.632   3.687   3.730  0.00  0.00    +0.210 HD
ENDBRANCH  24  30
BRANCH  23  32
ATOM     32  O   UNL     1       0.509   4.719   1.449  0.00  0.00    -0.383 OA
ATOM     33  H   UNL     1       0.007   5.186   0.767  0.00  0.00    +0.210 HD
ENDBRANCH  23  32
BRANCH  26  34
ATOM     34  C   UNL     1       0.903  -0.897   1.206  0.00  0.00    +0.190 C 
BRANCH  34  35
ATOM     35  O   UNL     1      -0.329  -1.606   1.054  0.00  0.00    -0.392 OA
ATOM     36  H   UNL     1      -0.220  -2.531   0.794  0.00  0.00    +0.210 HD
ENDBRANCH  34  35
ENDBRANCH  26  34
ENDBRANCH  21  22
ENDBRANCH   6  21
TORSDOF 10
