REMARK  Name = ZINC28465868
REMARK  2 active torsions:
REMARK  status: ('A' for Active; 'I' for Inactive)
REMARK    1  A    between atoms: C_4  and  C_23
REMARK    2  A    between atoms: C_5  and  C_7
REMARK                            x       y       z     vdW  Elec       q    Type
REMARK                         _______ _______ _______ _____ _____    ______ ____
ROOT
ATOM      1  C   UNL     1       2.285   6.515   0.035  0.00  0.00    +0.141 C 
ATOM      2  C   UNL     1       2.289   5.008   0.176  0.00  0.00    +0.046 C 
ATOM      3  C   UNL     1       1.092   4.361   0.203  0.00  0.00    +0.052 C 
ATOM      4  C   UNL     1       1.343   2.902   0.347  0.00  0.00    +0.007 A 
ATOM      5  C   UNL     1       0.502   1.806   0.426  0.00  0.00    +0.010 A 
ATOM      6  C   UNL     1       1.041   0.529   0.555  0.00  0.00    +0.001 A 
ATOM      7  C   UNL     1       2.406   0.353   0.616  0.00  0.00    +0.001 A 
ATOM      8  C   UNL     1       3.260   1.450   0.537  0.00  0.00    +0.012 A 
ATOM      9  C   UNL     1       2.735   2.719   0.404  0.00  0.00    +0.031 A 
ATOM     10  C   UNL     1       3.344   4.074   0.294  0.00  0.00    +0.194 C 
ATOM     11  O   UNL     1       4.533   4.330   0.303  0.00  0.00    -0.287 OA
ATOM     12  N   UNL     1      -0.081   5.073   0.103  0.00  0.00    -0.268 N 
ATOM     13  C   UNL     1      -0.135   6.403  -0.024  0.00  0.00    +0.305 C 
ATOM     14  O   UNL     1      -1.223   6.939  -0.104  0.00  0.00    -0.252 OA
ATOM     15  N   UNL     1       0.971   7.172  -0.064  0.00  0.00    -0.288 N 
ATOM     16  H   UNL     1      -1.047   4.547   0.125  0.00  0.00    +0.156 HD
ATOM     17  H   UNL     1       0.909   8.265  -0.168  0.00  0.00    +0.151 HD
ENDROOT
BRANCH   1  22
ATOM     18  C   UNL     1       3.276   6.929  -3.585  0.00  0.00    +0.000 A 
ATOM     19  C   UNL     1       4.522   7.516  -3.464  0.00  0.00    +0.001 A 
ATOM     20  C   UNL     1       5.044   7.777  -2.212  0.00  0.00    +0.013 A 
ATOM     21  C   UNL     1       4.320   7.454  -1.079  0.00  0.00    +0.060 A 
ATOM     22  C   UNL     1       3.074   6.868  -1.200  0.00  0.00    -0.011 A 
ATOM     23  C   UNL     1       2.554   6.601  -2.453  0.00  0.00    +0.006 A 
BRANCH  21  24
ATOM     24  C   UNL     1       4.890   7.739   0.286  0.00  0.00    +0.418 C 
ATOM     25  F   UNL     1       6.188   8.245   0.154  0.00  0.00    -0.166 F 
ATOM     26  F   UNL     1       4.087   8.681   0.939  0.00  0.00    -0.166 F 
ATOM     27  F   UNL     1       4.924   6.557   1.034  0.00  0.00    -0.166 F 
ENDBRANCH  21  24
ENDBRANCH   1  22
TORSDOF 2
