REMARK  Name = ZINC17115229
REMARK  2 active torsions:
REMARK  status: ('A' for Active; 'I' for Inactive)
REMARK    1  A    between atoms: C_9  and  C_13
REMARK    2  A    between atoms: N_15  and  N_16
REMARK                            x       y       z     vdW  Elec       q    Type
REMARK                         _______ _______ _______ _____ _____    ______ ____
ROOT
ATOM      1  C   UNL     1       6.164  -0.497  -0.186  0.00  0.00    +0.236 C 
ATOM      2  O   UNL     1       6.192  -1.601   0.316  0.00  0.00    -0.274 OA
ATOM      3  N   UNL     1       7.314   0.132  -0.496  0.00  0.00    -0.223 N 
ATOM      4  H   UNL     1       7.292   1.015  -0.897  0.00  0.00    +0.174 HD
ENDROOT
BRANCH   3   5
ATOM      5  N   UNL     1       8.544  -0.490  -0.240  0.00  0.00    -0.137 N 
ATOM      6  C   UNL     1       9.366  -0.154   0.775  0.00  0.00    +0.263 C 
ATOM      7  O   UNL     1       9.190   0.709   1.608  0.00  0.00    -0.271 OA
ATOM      8  C   UNL     1      10.554  -1.082   0.656  0.00  0.00    +0.114 C 
ATOM      9  C   UNL     1      11.831  -0.283   0.422  0.00  0.00    +0.035 C 
ATOM     10  C   UNL     1      13.015  -1.242   0.275  0.00  0.00    +0.003 C 
ATOM     11  C   UNL     1      13.147  -2.087   1.543  0.00  0.00    +0.000 C 
ATOM     12  C   UNL     1      11.868  -2.900   1.752  0.00  0.00    +0.003 C 
ATOM     13  C   UNL     1      10.679  -1.948   1.905  0.00  0.00    +0.035 C 
ATOM     14  N   UNL     1      10.243  -1.911  -0.515  0.00  0.00    -0.284 N 
ATOM     15  C   UNL     1       9.045  -1.494  -0.969  0.00  0.00    +0.326 C 
ATOM     16  O   UNL     1       8.484  -1.975  -1.935  0.00  0.00    -0.251 OA
ATOM     17  H   UNL     1      10.790  -2.620  -0.887  0.00  0.00    +0.151 HD
ENDBRANCH   3   5
BRANCH   1  26
ATOM     18  C   UNL     1      -0.017   1.379   0.010  0.00  0.00    +0.023 A 
ATOM     19  C   UNL     1       1.170   2.084   0.002  0.00  0.00    +0.047 A 
ATOM     20  C   UNL     1       2.386   1.409  -0.012  0.00  0.00    +0.124 A 
ATOM     21  C   UNL     1       2.402   0.025  -0.016  0.00  0.00    -0.004 A 
ATOM     22  C   UNL     1       1.209  -0.678  -0.011  0.00  0.00    +0.027 A 
ATOM     23  C   UNL     1       0.002  -0.004   0.002  0.00  0.00    +0.041 A 
ATOM     24 CL   UNL     1      -1.489  -0.893   0.009  0.00  0.00    -0.084 Cl
ATOM     25  C   UNL     1       3.698  -0.745  -0.019  0.00  0.00    +0.055 C 
ATOM     26  C   UNL     1       4.841   0.171  -0.461  0.00  0.00    +0.118 C 
ATOM     27  C   UNL     1       4.746   1.479   0.336  0.00  0.00    +0.242 C 
ATOM     28  O   UNL     1       3.532   2.138  -0.024  0.00  0.00    -0.491 OA
ENDBRANCH   1  26
TORSDOF 2
