REMARK  Name = ZINC67549084
REMARK  9 active torsions:
REMARK  status: ('A' for Active; 'I' for Inactive)
REMARK    1  A    between atoms: C_1  and  C_2
REMARK    2  A    between atoms: C_2  and  C_4
REMARK    3  A    between atoms: C_2  and  N_12
REMARK    4  A    between atoms: N_15  and  C_16
REMARK    5  A    between atoms: C_18  and  C_26
REMARK    6  A    between atoms: C_21  and  O_22
REMARK    7  A    between atoms: O_22  and  C_23
REMARK    8  A    between atoms: C_23  and  C_24
REMARK    9  A    between atoms: C_23  and  C_25
REMARK                            x       y       z     vdW  Elec       q    Type
REMARK                         _______ _______ _______ _____ _____    ______ ____
ROOT
ATOM      1  N   UNL     1       1.385   0.597  -1.598  0.00  0.00    -0.288 N 
ATOM      2  C   UNL     1       2.618   0.138  -1.308  0.00  0.00    +0.305 C 
ATOM      3  O   UNL     1       3.065   0.264  -0.185  0.00  0.00    -0.252 OA
ATOM      4  N   UNL     1       3.356  -0.461  -2.264  0.00  0.00    -0.266 N 
ATOM      5  H   UNL     1       1.028   0.496  -2.495  0.00  0.00    +0.151 HD
ATOM      6  H   UNL     1       2.975  -0.621  -3.142  0.00  0.00    +0.156 HD
ENDROOT
BRANCH   4   7
ATOM      7  C   UNL     1       4.674  -0.853  -1.990  0.00  0.00    +0.078 A 
ATOM      8  C   UNL     1       5.036  -1.208  -0.703  0.00  0.00    +0.046 A 
ATOM      9  C   UNL     1       6.350  -1.599  -0.433  0.00  0.00    +0.054 A 
ATOM     10  C   UNL     1       7.292  -1.629  -1.465  0.00  0.00    +0.022 A 
ATOM     11  C   UNL     1       6.925  -1.275  -2.745  0.00  0.00    +0.049 A 
ATOM     12  C   UNL     1       5.619  -0.891  -3.015  0.00  0.00    +0.142 A 
BRANCH   9  13
ATOM     13  C   UNL     1       6.731  -1.966   0.897  0.00  0.00    +0.099 C 
ATOM     14  N   UNL     1       7.033  -2.258   1.953  0.00  0.00    -0.191 NA
ENDBRANCH   9  13
BRANCH  12  15
ATOM     15  O   UNL     1       5.260  -0.548  -4.279  0.00  0.00    -0.488 OA
BRANCH  15  16
ATOM     16  C   UNL     1       6.298  -0.517  -5.262  0.00  0.00    +0.167 C 
ATOM     17  C   UNL     1       6.506  -1.923  -5.828  0.00  0.00    +0.051 C 
ATOM     18  C   UNL     1       5.902   0.435  -6.392  0.00  0.00    +0.051 C 
ENDBRANCH  15  16
ENDBRANCH  12  15
ENDBRANCH   4   7
BRANCH   1  20
ATOM     19  C   UNL     1       0.956   2.730  -0.481  0.00  0.00    +0.038 C 
ATOM     20  C   UNL     1       0.583   1.248  -0.560  0.00  0.00    +0.157 C 
BRANCH  20  21
ATOM     21  C   UNL     1      -0.880   1.116  -0.898  0.00  0.00    +0.236 C 
ATOM     22  O   UNL     1      -1.226   0.983  -2.053  0.00  0.00    -0.274 OA
ATOM     23  N   UNL     1      -1.804   1.147   0.083  0.00  0.00    -0.298 N 
ATOM     24  C   UNL     1      -1.387   1.415   1.460  0.00  0.00    +0.118 C 
ATOM     25  C   UNL     1      -1.975   2.755   1.919  0.00  0.00    +0.088 C 
ATOM     26  S   UNL     1      -3.784   2.686   1.748  0.00  0.00    -0.158 S 
ATOM     27  C   UNL     1      -4.016   2.190   0.014  0.00  0.00    +0.088 C 
ATOM     28  C   UNL     1      -3.212   0.916  -0.243  0.00  0.00    +0.118 C 
ENDBRANCH  20  21
ENDBRANCH   1  20
TORSDOF 6
