REMARK  Name = ZINC39671437
REMARK  5 active torsions:
REMARK  status: ('A' for Active; 'I' for Inactive)
REMARK    1  A    between atoms: C_6  and  C_11
REMARK    2  A    between atoms: C_11  and  N_12
REMARK    3  A    between atoms: C_13  and  C_15
REMARK    4  A    between atoms: C_26  and  C_28
REMARK    5  A    between atoms: C_32  and  C_34
REMARK                            x       y       z     vdW  Elec       q    Type
REMARK                         _______ _______ _______ _____ _____    ______ ____
ROOT
ATOM      1  C   UNL     1      -8.277   0.079   3.800  0.00  0.00    +0.100 C 
ATOM      2  C   UNL     1      -7.733   1.416   4.351  0.00  0.00    +0.121 C 
ATOM      3  N   UNL     1      -8.877   2.353   4.258  0.00  0.00    -0.296 N 
ATOM      4  C   UNL     1     -10.053   1.537   4.645  0.00  0.00    +0.115 C 
ATOM      5  C   UNL     1      -9.800   0.161   3.998  0.00  0.00    -0.004 C 
ATOM      6  C   UNL     1     -10.273  -0.954   4.926  0.00  0.00    -0.010 C 
ATOM      7  C   UNL     1     -11.796  -0.888   5.061  0.00  0.00    -0.082 C 
ATOM      8  N   UNL     1     -12.414  -1.031   3.737  0.00  0.00    +0.379 N 
ATOM      9  C   UNL     1     -12.027   0.097   2.880  0.00  0.00    -0.082 C 
ATOM     10  C   UNL     1     -10.513   0.072   2.652  0.00  0.00    -0.010 C 
ATOM     11  C   UNL     1      -8.854   3.653   3.903  0.00  0.00    +0.247 C 
ATOM     12  O   UNL     1      -7.826   4.152   3.490  0.00  0.00    -0.270 OA
ATOM     13  H   UNL     1     -12.105  -1.894   3.315  0.00  0.00    -0.086 HD
ATOM     14  H   UNL     1     -13.418  -1.048   3.836  0.00  0.00    -0.086 HD
ENDROOT
BRANCH  11  15
ATOM     15  C   UNL     1     -10.079   4.471   4.016  0.00  0.00    +0.038 A 
ATOM     16  C   UNL     1     -11.113   4.072   4.867  0.00  0.00    +0.016 A 
ATOM     17  C   UNL     1     -12.253   4.839   4.968  0.00  0.00    +0.039 A 
ATOM     18  C   UNL     1     -12.375   6.006   4.229  0.00  0.00    +0.135 A 
ATOM     19  C   UNL     1     -11.352   6.407   3.384  0.00  0.00    +0.091 A 
ATOM     20  C   UNL     1     -10.204   5.650   3.279  0.00  0.00    +0.028 A 
ATOM     21  F   UNL     1     -13.495   6.754   4.332  0.00  0.00    -0.205 F 
BRANCH  19  22
ATOM     22  C   UNL     1     -11.492   7.676   2.583  0.00  0.00    +0.420 C 
ATOM     23  F   UNL     1     -10.341   7.870   1.811  0.00  0.00    -0.166 F 
ATOM     24  F   UNL     1     -12.606   7.577   1.743  0.00  0.00    -0.166 F 
ATOM     25  F   UNL     1     -11.658   8.760   3.452  0.00  0.00    -0.166 F 
ENDBRANCH  19  22
ENDBRANCH  11  15
BRANCH   1  27
ATOM     26  N   UNL     1      -7.882  -1.282   1.772  0.00  0.00    -0.309 N 
ATOM     27  C   UNL     1      -7.945  -0.059   2.336  0.00  0.00    +0.219 C 
ATOM     28  O   UNL     1      -7.735   0.929   1.666  0.00  0.00    -0.275 OA
ATOM     29  H   UNL     1      -8.050  -2.072   2.308  0.00  0.00    +0.149 HD
BRANCH  26  30
ATOM     30  C   UNL     1      -7.559  -1.416   0.349  0.00  0.00    +0.157 C 
BRANCH  30  36
ATOM     31  C   UNL     1      -6.970  -7.300  -1.089  0.00  0.00    +0.001 A 
ATOM     32  C   UNL     1      -8.342  -7.213  -1.276  0.00  0.00    +0.002 A 
ATOM     33  C   UNL     1      -9.006  -6.024  -1.068  0.00  0.00    +0.026 A 
ATOM     34  C   UNL     1      -8.296  -4.897  -0.667  0.00  0.00    +0.047 A 
ATOM     35  N   UNL     1      -8.658  -3.599  -0.385  0.00  0.00    -0.357 N 
ATOM     36  C   UNL     1      -7.553  -2.875  -0.028  0.00  0.00    +0.034 A 
ATOM     37  H   UNL     1      -9.561  -3.249  -0.433  0.00  0.00    +0.166 HD
ATOM     38  C   UNL     1      -6.462  -3.657  -0.064  0.00  0.00    +0.032 A 
ATOM     39  C   UNL     1      -6.905  -4.990  -0.478  0.00  0.00    -0.000 A 
ATOM     40  C   UNL     1      -6.253  -6.207  -0.690  0.00  0.00    +0.010 A 
ENDBRANCH  30  36
ENDBRANCH  26  30
ENDBRANCH   1  27
TORSDOF 5
