REMARK  Name = ZINC67556272
REMARK  13 active torsions:
REMARK  status: ('A' for Active; 'I' for Inactive)
REMARK    1  A    between atoms: C_1  and  C_2
REMARK    2  A    between atoms: C_5  and  N_9
REMARK    3  A    between atoms: C_7  and  C_8
REMARK    4  A    between atoms: N_12  and  C_13
REMARK    5  A    between atoms: C_13  and  C_14
REMARK    6  A    between atoms: C_14  and  C_16
REMARK    7  A    between atoms: C_14  and  O_28
REMARK    8  A    between atoms: C_16  and  O_17
REMARK    9  A    between atoms: O_17  and  C_18
REMARK   10  A    between atoms: C_19  and  O_26
REMARK   11  A    between atoms: C_23  and  O_24
REMARK   12  A    between atoms: O_24  and  C_25
REMARK   13  A    between atoms: O_26  and  C_27
REMARK                            x       y       z     vdW  Elec       q    Type
REMARK                         _______ _______ _______ _____ _____    ______ ____
ROOT
ATOM      1  C   UNL     1      -0.231  -6.911  -2.454  0.00  0.00    +0.140 C 
ENDROOT
BRANCH   1   5
ATOM      2  N   UNL     1       0.058  -4.170  -0.021  0.00  0.00    -0.269 N 
ATOM      3  C   UNL     1      -0.041  -4.839  -1.187  0.00  0.00    +0.304 C 
ATOM      4  O   UNL     1      -0.054  -4.229  -2.239  0.00  0.00    -0.253 OA
ATOM      5  N   UNL     1      -0.124  -6.184  -1.187  0.00  0.00    -0.297 N 
ATOM      6  H   UNL     1       0.146  -4.658   0.812  0.00  0.00    +0.156 HD
ATOM      7  H   UNL     1      -0.114  -6.671  -0.348  0.00  0.00    +0.150 HD
BRANCH   2  12
ATOM      8  C   UNL     1      -0.045   1.502   0.014  0.00  0.00    +0.044 C 
ATOM      9  C   UNL     1      -0.018  -0.004   0.004  0.00  0.00    -0.047 A 
ATOM     10  C   UNL     1      -0.754  -0.702  -0.935  0.00  0.00    +0.005 A 
ATOM     11  C   UNL     1      -0.731  -2.083  -0.946  0.00  0.00    +0.023 A 
ATOM     12  C   UNL     1       0.033  -2.771  -0.013  0.00  0.00    +0.035 A 
ATOM     13  C   UNL     1       0.771  -2.067   0.929  0.00  0.00    +0.027 A 
ATOM     14  C   UNL     1       0.749  -0.686   0.932  0.00  0.00    -0.046 A 
ATOM     15  C   UNL     1       1.555   0.078   1.950  0.00  0.00    +0.044 C 
ENDBRANCH   2  12
ENDBRANCH   1   5
BRANCH   1  16
ATOM     16  C   UNL     1      -0.311  -8.413  -2.175  0.00  0.00    +0.169 C 
BRANCH  16  17
ATOM     17  O   UNL     1       0.867  -8.832  -1.484  0.00  0.00    -0.387 OA
ATOM     18  H   UNL     1       1.687  -8.676  -1.973  0.00  0.00    +0.210 HD
ENDBRANCH  16  17
BRANCH  16  19
ATOM     19  C   UNL     1      -0.423  -9.172  -3.499  0.00  0.00    +0.262 C 
BRANCH  19  20
ATOM     20  O   UNL     1      -0.615 -10.564  -3.235  0.00  0.00    -0.483 OA
BRANCH  20  21
ATOM     21  C   UNL     1      -0.734 -11.386  -4.313  0.00  0.00    +0.204 A 
ATOM     22  C   UNL     1      -1.986 -11.638  -4.862  0.00  0.00    +0.165 A 
ATOM     23  C   UNL     1      -2.103 -12.476  -5.960  0.00  0.00    +0.049 A 
ATOM     24  C   UNL     1      -0.977 -13.062  -6.508  0.00  0.00    +0.007 A 
ATOM     25  C   UNL     1       0.269 -12.815  -5.965  0.00  0.00    +0.049 A 
ATOM     26  C   UNL     1       0.396 -11.972  -4.871  0.00  0.00    +0.165 A 
BRANCH  26  27
ATOM     27  O   UNL     1       1.623 -11.725  -4.340  0.00  0.00    -0.491 OA
ATOM     28  C   UNL     1       2.740 -12.361  -4.965  0.00  0.00    +0.277 C 
ENDBRANCH  26  27
BRANCH  22  29
ATOM     29  O   UNL     1      -3.094 -11.062  -4.323  0.00  0.00    -0.491 OA
ATOM     30  C   UNL     1      -4.347 -11.366  -4.939  0.00  0.00    +0.277 C 
ENDBRANCH  22  29
ENDBRANCH  20  21
ENDBRANCH  19  20
ENDBRANCH  16  19
ENDBRANCH   1  16
TORSDOF 9
