REMARK  Name = ZINC04453421
REMARK  6 active torsions:
REMARK  status: ('A' for Active; 'I' for Inactive)
REMARK    1  A    between atoms: C_1  and  N_2
REMARK    2  A    between atoms: C_9  and  C_21
REMARK    3  A    between atoms: C_11  and  C_17
REMARK    4  A    between atoms: C_11  and  C_19
REMARK    5  A    between atoms: C_12  and  N_16
REMARK    6  A    between atoms: C_13  and  C_14
REMARK                            x       y       z     vdW  Elec       q    Type
REMARK                         _______ _______ _______ _____ _____    ______ ____
ROOT
ATOM      1  C   UNL     1      -0.018   1.465   0.010  0.00  0.00    +0.105 C 
ATOM      2  N   UNL     1       0.002  -0.004   0.002  0.00  0.00    -0.301 NA
ATOM      3  C   UNL     1      -1.365  -0.551  -0.058  0.00  0.00    +0.111 C 
ATOM      4  C   UNL     1      -1.252  -2.044  -0.239  0.00  0.00    -0.007 C 
ATOM      5  C   UNL     1      -0.243  -2.699   0.305  0.00  0.00    -0.026 C 
ATOM      6  C   UNL     1       0.796  -2.035   1.161  0.00  0.00    +0.047 C 
ATOM      7  C   UNL     1       0.705  -0.526   1.177  0.00  0.00    +0.093 C 
ATOM      8  C   UNL     1       2.172  -2.524   0.704  0.00  0.00    +0.103 C 
ATOM      9  C   UNL     1       2.264  -4.031   0.941  0.00  0.00    +0.191 C 
ATOM     10  C   UNL     1       1.085  -4.759   0.370  0.00  0.00    +0.054 C 
ATOM     11  C   UNL     1      -0.097  -4.159   0.078  0.00  0.00    +0.074 C 
ENDROOT
BRANCH   8  12
ATOM     12  C   UNL     1       2.351  -2.228  -0.763  0.00  0.00    +0.111 A 
ATOM     13  C   UNL     1       3.316  -1.459  -1.298  0.00  0.00    +0.045 A 
ATOM     14  C   UNL     1       3.108  -1.456  -2.697  0.00  0.00    +0.041 A 
ATOM     15  C   UNL     1       2.028  -2.223  -2.932  0.00  0.00    +0.195 A 
ATOM     16  O   UNL     1       1.577  -2.693  -1.758  0.00  0.00    -0.467 OA
ENDBRANCH   8  12
BRANCH  10  17
ATOM     17  N   UNL     1       1.206  -6.099   0.131  0.00  0.00    -0.358 N 
ATOM     18  H   UNL     1       2.039  -6.554   0.330  0.00  0.00    +0.142 HD
ATOM     19  H   UNL     1       0.459  -6.595  -0.238  0.00  0.00    +0.142 HD
ENDBRANCH  10  17
BRANCH  11  20
ATOM     20  C   UNL     1      -1.190  -4.925  -0.443  0.00  0.00    +0.101 C 
ATOM     21  N   UNL     1      -2.057  -5.532  -0.856  0.00  0.00    -0.191 NA
ENDBRANCH  11  20
BRANCH   9  22
ATOM     22  C   UNL     1       3.493  -4.541   0.310  0.00  0.00    +0.091 C 
ATOM     23  N   UNL     1       4.441  -4.934  -0.177  0.00  0.00    -0.194 NA
ENDBRANCH   9  22
BRANCH   9  24
ATOM     24  C   UNL     1       2.330  -4.286   2.389  0.00  0.00    +0.091 C 
ATOM     25  N   UNL     1       2.381  -4.483   3.507  0.00  0.00    -0.194 NA
ENDBRANCH   9  24
TORSDOF 5
