REMARK  Name = ZINC67020775
REMARK  5 active torsions:
REMARK  status: ('A' for Active; 'I' for Inactive)
REMARK    1  A    between atoms: C_1  and  N_2
REMARK    2  A    between atoms: C_3  and  C_5
REMARK    3  A    between atoms: C_5  and  N_6
REMARK    4  A    between atoms: N_6  and  C_7
REMARK    5  A    between atoms: C_14  and  C_16
REMARK                            x       y       z     vdW  Elec       q    Type
REMARK                         _______ _______ _______ _____ _____    ______ ____
ROOT
ATOM      1  N   UNL     1       1.179  -3.425  -2.235  0.00  0.00    -0.258 N 
ATOM      2  C   UNL     1       0.441  -4.021  -3.192  0.00  0.00    +0.255 C 
ATOM      3  O   UNL     1       0.968  -4.780  -3.982  0.00  0.00    -0.269 OA
ENDROOT
BRANCH   2   4
ATOM      4  C   UNL     1      -1.007  -3.752  -3.281  0.00  0.00    +0.081 A 
ATOM      5  C   UNL     1      -1.535  -2.563  -2.768  0.00  0.00    +0.017 A 
ATOM      6  C   UNL     1      -2.888  -2.315  -2.852  0.00  0.00    +0.003 A 
ATOM      7  C   UNL     1      -3.735  -3.238  -3.445  0.00  0.00    +0.027 A 
ATOM      8  C   UNL     1      -3.227  -4.419  -3.957  0.00  0.00    +0.076 A 
ATOM      9  C   UNL     1      -1.860  -4.682  -3.883  0.00  0.00    +0.154 A 
ATOM     10  O   UNL     1      -1.373  -5.841  -4.392  0.00  0.00    -0.480 OA
ATOM     11  C   UNL     1      -2.228  -6.985  -4.319  0.00  0.00    +0.325 C 
ATOM     12  C   UNL     1      -3.615  -6.610  -4.777  0.00  0.00    +0.255 C 
ATOM     13  O   UNL     1      -4.317  -7.431  -5.328  0.00  0.00    -0.272 OA
ATOM     14  N   UNL     1      -4.074  -5.361  -4.560  0.00  0.00    -0.280 N 
ATOM     15  H   UNL     1      -4.973  -5.115  -4.827  0.00  0.00    +0.155 HD
ENDBRANCH   2   4
BRANCH   1  16
ATOM     16  C   UNL     1       2.569  -3.580  -2.227  0.00  0.00    +0.040 A 
ATOM     17  C   UNL     1       3.218  -3.980  -1.065  0.00  0.00    +0.024 A 
ATOM     18  C   UNL     1       4.590  -4.133  -1.059  0.00  0.00    +0.005 A 
ATOM     19  C   UNL     1       5.321  -3.888  -2.208  0.00  0.00    +0.038 A 
ATOM     20  C   UNL     1       4.678  -3.489  -3.368  0.00  0.00    +0.125 A 
ATOM     21  C   UNL     1       3.303  -3.340  -3.381  0.00  0.00    +0.061 A 
ATOM     22  F   UNL     1       5.394  -3.251  -4.488  0.00  0.00    -0.205 F 
ENDBRANCH   1  16
BRANCH   1  23
ATOM     23  C   UNL     1       0.526  -2.615  -1.204  0.00  0.00    +0.209 C 
BRANCH  23  26
ATOM     24  C   UNL     1       0.548   1.201  -0.898  0.00  0.00    +0.128 C 
ATOM     25  N   UNL     1       0.288  -0.218  -0.642  0.00  0.00    -0.317 N 
ATOM     26  C   UNL     1       0.794  -1.155  -1.468  0.00  0.00    +0.231 C 
ATOM     27  O   UNL     1       1.464  -0.825  -2.423  0.00  0.00    -0.274 OA
ATOM     28  H   UNL     1      -0.248  -0.483   0.122  0.00  0.00    +0.148 HD
ENDBRANCH  23  26
ENDBRANCH   1  23
TORSDOF 4
