REMARK  Name = ZINC00919285
REMARK  8 active torsions:
REMARK  status: ('A' for Active; 'I' for Inactive)
REMARK    1  A    between atoms: C_1  and  C_2
REMARK    2  A    between atoms: C_2  and  C_3
REMARK    3  A    between atoms: C_2  and  C_4
REMARK    4  A    between atoms: C_2  and  C_5
REMARK    5  A    between atoms: C_10  and  N_11
REMARK    6  A    between atoms: C_12  and  C_14
REMARK    7  A    between atoms: C_19  and  C_30
REMARK    8  A    between atoms: C_22  and  C_25
REMARK                            x       y       z     vdW  Elec       q    Type
REMARK                         _______ _______ _______ _____ _____    ______ ____
ROOT
ATOM      1  C   UNL     1      -0.520  -5.014  -0.286  0.00  0.00    +0.149 A 
ATOM      2  C   UNL     1      -0.615  -6.399  -0.552  0.00  0.00    +0.078 A 
ATOM      3  C   UNL     1      -1.320  -6.958   0.451  0.00  0.00    +0.119 A 
ATOM      4  N   UNL     1      -1.670  -5.971   1.328  0.00  0.00    -0.238 N 
ATOM      5  N   UNL     1      -1.152  -4.768   0.848  0.00  0.00    -0.164 NA
ATOM      6  C   UNL     1      -2.452  -6.204   2.545  0.00  0.00    +0.215 C 
ATOM      7  C   UNL     1      -3.187  -7.542   2.414  0.00  0.00    +0.066 C 
ATOM      8  C   UNL     1      -2.206  -8.637   1.982  0.00  0.00    +0.140 C 
ATOM      9  N   UNL     1      -1.679  -8.295   0.646  0.00  0.00    -0.319 N 
ATOM     10  H   UNL     1      -1.588  -8.959  -0.056  0.00  0.00    +0.148 HD
ENDROOT
BRANCH   8  11
ATOM     11  C   UNL     1      -2.920  -9.963   1.925  0.00  0.00    +0.125 A 
ATOM     12  C   UNL     1      -2.883 -10.918   2.872  0.00  0.00    +0.046 A 
ATOM     13  C   UNL     1      -3.689 -11.984   2.410  0.00  0.00    +0.041 A 
ATOM     14  C   UNL     1      -4.169 -11.617   1.208  0.00  0.00    +0.195 A 
ATOM     15  O   UNL     1      -3.704 -10.390   0.922  0.00  0.00    -0.466 OA
ENDBRANCH   8  11
BRANCH   1  17
ATOM     16  N   UNL     1       0.190  -2.720  -0.757  0.00  0.00    -0.280 N 
ATOM     17  C   UNL     1       0.170  -4.016  -1.128  0.00  0.00    +0.268 C 
ATOM     18  O   UNL     1       0.719  -4.362  -2.156  0.00  0.00    -0.268 OA
ATOM     19  H   UNL     1      -0.213  -2.450   0.083  0.00  0.00    +0.155 HD
BRANCH  16  25
ATOM     20  C   UNL     1       0.404  -0.435  -1.506  0.00  0.00    -0.021 A 
ATOM     21  C   UNL     1       1.006   0.506  -2.319  0.00  0.00    +0.006 A 
ATOM     22  C   UNL     1       1.990   0.124  -3.211  0.00  0.00    +0.000 A 
ATOM     23  C   UNL     1       2.376  -1.202  -3.293  0.00  0.00    +0.002 A 
ATOM     24  C   UNL     1       1.779  -2.148  -2.483  0.00  0.00    +0.023 A 
ATOM     25  C   UNL     1       0.793  -1.766  -1.582  0.00  0.00    +0.037 A 
BRANCH  20  27
ATOM     26  C   UNL     1      -1.030   1.451  -0.774  0.00  0.00    +0.015 C 
ATOM     27  C   UNL     1      -0.669  -0.017  -0.534  0.00  0.00    -0.011 C 
ATOM     28  C   UNL     1      -0.157  -0.189   0.897  0.00  0.00    +0.015 C 
ATOM     29  C   UNL     1      -1.911  -0.887  -0.740  0.00  0.00    +0.015 C 
ENDBRANCH  20  27
ENDBRANCH  16  25
ENDBRANCH   1  17
BRANCH   6  30
ATOM     30  C   UNL     1      -3.467  -5.074   2.727  0.00  0.00    +0.412 C 
ATOM     31  F   UNL     1      -4.325  -5.037   1.622  0.00  0.00    -0.168 F 
ATOM     32  F   UNL     1      -4.212  -5.298   3.889  0.00  0.00    -0.168 F 
ATOM     33  F   UNL     1      -2.792  -3.853   2.834  0.00  0.00    -0.168 F 
ENDBRANCH   6  30
TORSDOF 5
