REMARK  Name = ZINC40679181
REMARK  6 active torsions:
REMARK  status: ('A' for Active; 'I' for Inactive)
REMARK    1  A    between atoms: C_3  and  N_18
REMARK    2  A    between atoms: C_6  and  C_7
REMARK    3  A    between atoms: C_7  and  C_8
REMARK    4  A    between atoms: C_8  and  N_9
REMARK    5  A    between atoms: N_9  and  S_10
REMARK    6  A    between atoms: S_10  and  C_13
REMARK                            x       y       z     vdW  Elec       q    Type
REMARK                         _______ _______ _______ _____ _____    ______ ____
ROOT
ATOM      1  C   UNL     1      -1.744  -1.028  -1.429  0.00  0.00    +0.110 C 
ENDROOT
BRANCH   1   2
ATOM      2  N   UNL     1      -3.003  -1.778  -1.421  0.00  0.00    -0.194 NA
ATOM      3  H   UNL     1      -3.301  -2.217  -0.610  0.00  0.00    +0.148 HD
BRANCH   2   4
ATOM      4  S   UNL     1      -3.918  -1.876  -2.799  0.00  0.00    +0.032 S 
ATOM      5  O   UNL     1      -5.055  -2.642  -2.425  0.00  0.00    -0.158 OA
ATOM      6  O   UNL     1      -4.061  -0.531  -3.234  0.00  0.00    -0.158 OA
BRANCH   4   7
ATOM      7  C   UNL     1      -2.895  -2.807  -3.973  0.00  0.00    +0.148 C 
ATOM      8  C   UNL     1      -2.681  -4.257  -3.473  0.00  0.00    +0.028 C 
ATOM      9  C   UNL     1      -2.364  -5.025  -4.780  0.00  0.00    +0.002 C 
ATOM     10  C   UNL     1      -3.295  -4.385  -5.830  0.00  0.00    +0.002 C 
ATOM     11  C   UNL     1      -3.633  -2.974  -5.317  0.00  0.00    +0.028 C 
ENDBRANCH   4   7
ENDBRANCH   2   4
ENDBRANCH   1   2
BRANCH   1  12
ATOM     12  C   UNL     1      -1.293  -0.775   0.010  0.00  0.00    +0.052 C 
BRANCH  12  18
ATOM     13  C   UNL     1      -0.017   1.378   0.010  0.00  0.00    +0.006 A 
ATOM     14  C   UNL     1       1.171   2.086   0.002  0.00  0.00    +0.033 A 
ATOM     15  C   UNL     1       2.377   1.411  -0.013  0.00  0.00    +0.126 A 
ATOM     16  C   UNL     1       2.396   0.029  -0.020  0.00  0.00    +0.033 A 
ATOM     17  C   UNL     1       1.208  -0.679  -0.012  0.00  0.00    +0.006 A 
ATOM     18  C   UNL     1       0.002  -0.004   0.002  0.00  0.00    -0.046 A 
BRANCH  15  19
ATOM     19  N   UNL     1       3.649   2.168  -0.022  0.00  0.00    +0.056 N 
ATOM     20  O   UNL     1       3.633   3.377  -0.016  0.00  0.00    -0.126 OA
ATOM     21  O   UNL     1       4.704   1.578  -0.035  0.00  0.00    -0.126 OA
ENDBRANCH  15  19
ENDBRANCH  12  18
ENDBRANCH   1  12
TORSDOF 6
