REMARK  Name = ZINC38610417
REMARK  6 active torsions:
REMARK  status: ('A' for Active; 'I' for Inactive)
REMARK    1  A    between atoms: C_4  and  O_35
REMARK    2  A    between atoms: C_5  and  C_7
REMARK    3  A    between atoms: N_15  and  C_27
REMARK    4  A    between atoms: C_16  and  C_18
REMARK    5  A    between atoms: C_22  and  N_24
REMARK    6  A    between atoms: C_27  and  C_28
REMARK                            x       y       z     vdW  Elec       q    Type
REMARK                         _______ _______ _______ _____ _____    ______ ____
ROOT
ATOM      1  C   UNL     1       1.328  -2.617  -0.321  0.00  0.00    +0.102 A 
ATOM      2  C   UNL     1       0.118  -3.266  -0.053  0.00  0.00    +0.035 A 
ATOM      3  C   UNL     1       0.413  -4.615  -0.020  0.00  0.00    +0.126 A 
ATOM      4  N   UNL     1       1.754  -4.716  -0.264  0.00  0.00    -0.272 N 
ATOM      5  H   UNL     1       2.252  -5.548  -0.303  0.00  0.00    +0.189 HD
ATOM      6  N   UNL     1       2.256  -3.546  -0.439  0.00  0.00    -0.173 NA
ATOM      7  C   UNL     1      -0.822  -5.357   0.258  0.00  0.00    +0.266 C 
ATOM      8  O   UNL     1      -0.899  -6.567   0.352  0.00  0.00    -0.268 OA
ATOM      9  N   UNL     1      -1.857  -4.509   0.396  0.00  0.00    -0.281 N 
ATOM     10  C   UNL     1      -1.357  -3.139   0.213  0.00  0.00    +0.142 C 
ENDROOT
BRANCH   1  15
ATOM     11  C   UNL     1       1.157   1.079   0.347  0.00  0.00    +0.001 A 
ATOM     12  C   UNL     1       1.902   1.582  -0.705  0.00  0.00    +0.004 A 
ATOM     13  C   UNL     1       2.463   0.727  -1.634  0.00  0.00    +0.046 A 
ATOM     14  C   UNL     1       2.280  -0.642  -1.516  0.00  0.00    +0.126 A 
ATOM     15  C   UNL     1       1.528  -1.153  -0.455  0.00  0.00    +0.044 A 
ATOM     16  C   UNL     1       0.968  -0.282   0.476  0.00  0.00    +0.014 A 
BRANCH  14  17
ATOM     17  O   UNL     1       2.831  -1.484  -2.430  0.00  0.00    -0.506 OA
ATOM     18  H   UNL     1       3.722  -1.782  -2.203  0.00  0.00    +0.292 HD
ENDBRANCH  14  17
ENDBRANCH   1  15
BRANCH  10  19
ATOM     19  C   UNL     1      -2.043  -2.490  -0.961  0.00  0.00    -0.020 A 
ATOM     20  C   UNL     1      -2.237  -3.202  -2.129  0.00  0.00    +0.006 A 
ATOM     21  C   UNL     1      -2.865  -2.606  -3.206  0.00  0.00    +0.003 A 
ATOM     22  C   UNL     1      -3.300  -1.297  -3.115  0.00  0.00    +0.033 A 
ATOM     23  C   UNL     1      -3.107  -0.585  -1.946  0.00  0.00    +0.127 A 
ATOM     24  C   UNL     1      -2.482  -1.182  -0.868  0.00  0.00    +0.038 A 
BRANCH  23  25
ATOM     25  N   UNL     1      -3.572   0.817  -1.849  0.00  0.00    +0.056 N 
ATOM     26  O   UNL     1      -4.121   1.339  -2.791  0.00  0.00    -0.126 OA
ATOM     27  O   UNL     1      -3.403   1.440  -0.827  0.00  0.00    -0.126 OA
ENDBRANCH  23  25
ENDBRANCH  10  19
BRANCH   9  28
ATOM     28  C   UNL     1      -3.244  -4.886   0.680  0.00  0.00    +0.144 C 
BRANCH  28  29
ATOM     29  C   UNL     1      -3.459  -4.923   2.171  0.00  0.00    -0.030 A 
ATOM     30  C   UNL     1      -3.235  -6.093   2.872  0.00  0.00    +0.008 A 
ATOM     31  C   UNL     1      -3.431  -6.129   4.239  0.00  0.00    +0.038 A 
ATOM     32  C   UNL     1      -3.853  -4.992   4.907  0.00  0.00    +0.123 A 
ATOM     33  C   UNL     1      -4.077  -3.820   4.204  0.00  0.00    +0.038 A 
ATOM     34  C   UNL     1      -3.875  -3.785   2.838  0.00  0.00    +0.008 A 
ATOM     35  F   UNL     1      -4.046  -5.025   6.244  0.00  0.00    -0.205 F 
ENDBRANCH  28  29
ENDBRANCH   9  28
TORSDOF 6
