REMARK  Name = ZINC43596530
REMARK  5 active torsions:
REMARK  status: ('A' for Active; 'I' for Inactive)
REMARK    1  A    between atoms: C_3  and  N_11
REMARK    2  A    between atoms: C_6  and  N_7
REMARK    3  A    between atoms: N_11  and  C_12
REMARK    4  A    between atoms: C_12  and  C_13
REMARK    5  A    between atoms: C_13  and  C_14
REMARK                            x       y       z     vdW  Elec       q    Type
REMARK                         _______ _______ _______ _____ _____    ______ ____
ROOT
ATOM      1  C   UNL     1      -0.017   1.378   0.010  0.00  0.00    +0.034 A 
ATOM      2  C   UNL     1       1.169   2.087   0.002  0.00  0.00    +0.026 A 
ATOM      3  C   UNL     1       2.381   1.410  -0.013  0.00  0.00    +0.041 A 
ATOM      4  C   UNL     1       2.397   0.020  -0.021  0.00  0.00    +0.041 A 
ATOM      5  C   UNL     1       1.207  -0.682  -0.013  0.00  0.00    +0.049 A 
ATOM      6  C   UNL     1       0.002  -0.004   0.002  0.00  0.00    +0.127 A 
ATOM      7 BR   UNL     1       4.044  -0.908  -0.042  0.00  0.00    -0.048 Br
ENDROOT
BRANCH   6   8
ATOM      8  N   UNL     1      -1.270  -0.760   0.010  0.00  0.00    +0.056 N 
ATOM      9  O   UNL     1      -2.325  -0.168   0.023  0.00  0.00    -0.126 OA
ATOM     10  O   UNL     1      -1.256  -1.969   0.003  0.00  0.00    -0.126 OA
ENDBRANCH   6   8
BRANCH   3  11
ATOM     11  N   UNL     1       3.582   2.124  -0.021  0.00  0.00    -0.343 N 
ATOM     12  H   UNL     1       4.428   1.649  -0.032  0.00  0.00    +0.146 HD
BRANCH  11  13
ATOM     13  C   UNL     1       3.564   3.589  -0.014  0.00  0.00    +0.111 C 
BRANCH  13  14
ATOM     14  C   UNL     1       5.000   4.117  -0.025  0.00  0.00    +0.114 C 
BRANCH  14  15
ATOM     15  C   UNL     1       4.981   5.624  -0.017  0.00  0.00    +0.212 C 
ATOM     16  O   UNL     1       3.923   6.217  -0.004  0.00  0.00    -0.276 OA
ATOM     17  N   UNL     1       6.139   6.312  -0.025  0.00  0.00    -0.329 N 
ATOM     18  H   UNL     1       6.985   5.838  -0.036  0.00  0.00    +0.145 HD
ATOM     19  H   UNL     1       6.127   7.282  -0.020  0.00  0.00    +0.145 HD
ENDBRANCH  14  15
ENDBRANCH  13  14
ENDBRANCH  11  13
ENDBRANCH   3  11
TORSDOF 5
