REMARK  Name = ZINC20751506
REMARK  4 active torsions:
REMARK  status: ('A' for Active; 'I' for Inactive)
REMARK    1  A    between atoms: C_1  and  C_2
REMARK    2  A    between atoms: C_2  and  C_4
REMARK    3  A    between atoms: C_17  and  C_20
REMARK    4  A    between atoms: C_29  and  O_30
REMARK                            x       y       z     vdW  Elec       q    Type
REMARK                         _______ _______ _______ _____ _____    ______ ____
ROOT
ATOM      1  C   UNL     1       7.656   0.287  -0.893  0.00  0.00    +0.017 A 
ATOM      2  C   UNL     1       7.011  -0.206  -2.036  0.00  0.00    +0.013 A 
ATOM      3  C   UNL     1       5.695  -0.559  -1.966  0.00  0.00    +0.024 A 
ATOM      4  C   UNL     1       4.995  -0.430  -0.767  0.00  0.00    +0.031 A 
ATOM      5  C   UNL     1       5.625   0.057   0.374  0.00  0.00    -0.019 A 
ATOM      6  C   UNL     1       6.949   0.412   0.307  0.00  0.00    +0.017 A 
ATOM      7  C   UNL     1       4.910   0.207   1.679  0.00  0.00    +0.049 C 
ATOM      8  C   UNL     1       4.593   1.655   1.970  0.00  0.00    -0.023 C 
ATOM      9  C   UNL     1       3.431   1.755   2.568  0.00  0.00    -0.030 C 
ATOM     10  C   UNL     1       2.815   0.383   2.763  0.00  0.00    +0.033 C 
ATOM     11  C   UNL     1       3.536  -0.491   1.695  0.00  0.00    +0.029 C 
ATOM     12  C   UNL     1       2.820  -0.262   0.360  0.00  0.00    +0.109 C 
ATOM     13  N   UNL     1       3.653  -0.794  -0.723  0.00  0.00    -0.336 N 
ATOM     14  H   UNL     1       3.213  -1.464  -1.476  0.00  0.00    +0.147 HD
ENDROOT
BRANCH  12  15
ATOM     15  C   UNL     1       2.603   1.214   0.152  0.00  0.00    +0.022 A 
ATOM     16  C   UNL     1       1.458   1.840   0.672  0.00  0.00    -0.009 A 
ATOM     17  C   UNL     1       0.495   1.115   1.393  0.00  0.00    +0.009 A 
ATOM     18  C   UNL     1      -0.606   1.752   1.877  0.00  0.00    +0.001 A 
ATOM     19  C   UNL     1      -0.788   3.120   1.679  0.00  0.00    +0.001 A 
ATOM     20  C   UNL     1       0.124   3.855   0.985  0.00  0.00    +0.008 A 
ATOM     21  C   UNL     1       1.270   3.230   0.465  0.00  0.00    -0.017 A 
ATOM     22  C   UNL     1       2.232   3.958  -0.257  0.00  0.00    +0.012 A 
ATOM     23  C   UNL     1       3.330   3.322  -0.748  0.00  0.00    +0.046 A 
ATOM     24  C   UNL     1       3.518   1.952  -0.545  0.00  0.00    +0.122 A 
BRANCH  24  25
ATOM     25  O   UNL     1       4.625   1.345  -1.048  0.00  0.00    -0.506 OA
ATOM     26  H   UNL     1       5.366   1.932  -1.610  0.00  0.00    +0.292 HD
ENDBRANCH  24  25
ENDBRANCH  12  15
BRANCH   1  28
ATOM     27  C   UNL     1       9.798   0.656  -2.275  0.00  0.00    +0.091 C 
ATOM     28  C   UNL     1       9.071   0.670  -0.955  0.00  0.00    +0.160 C 
ATOM     29  O   UNL     1       9.655   0.999   0.055  0.00  0.00    -0.292 OA
ENDBRANCH   1  28
TORSDOF 3
