REMARK  Name = ZINC67573833
REMARK  9 active torsions:
REMARK  status: ('A' for Active; 'I' for Inactive)
REMARK    1  A    between atoms: C_1  and  C_2
REMARK    2  A    between atoms: C_2  and  C_4
REMARK    3  A    between atoms: C_2  and  N_11
REMARK    4  A    between atoms: C_8  and  O_10
REMARK    5  A    between atoms: N_11  and  C_12
REMARK    6  A    between atoms: N_15  and  C_16
REMARK    7  A    between atoms: C_19  and  C_22
REMARK    8  A    between atoms: C_22  and  S_23
REMARK    9  A    between atoms: S_23  and  C_24
REMARK                            x       y       z     vdW  Elec       q    Type
REMARK                         _______ _______ _______ _____ _____    ______ ____
ROOT
ATOM      1  N   UNL     1       0.837  -0.433   1.159  0.00  0.00    -0.282 N 
ATOM      2  C   UNL     1       0.380  -0.219   2.534  0.00  0.00    +0.134 C 
ATOM      3  C   UNL     1       2.067  -0.934   0.928  0.00  0.00    +0.307 C 
ATOM      4  O   UNL     1       2.446  -1.112  -0.213  0.00  0.00    -0.252 OA
ATOM      5  N   UNL     1       2.876  -1.237   1.963  0.00  0.00    -0.269 N 
ATOM      6  H   UNL     1       2.602  -1.029   2.870  0.00  0.00    +0.156 HD
ENDROOT
BRANCH   5   7
ATOM      7  C   UNL     1       4.111  -1.851   1.728  0.00  0.00    +0.035 A 
ATOM      8  C   UNL     1       4.603  -2.790   2.624  0.00  0.00    +0.023 A 
ATOM      9  C   UNL     1       5.822  -3.395   2.390  0.00  0.00    +0.006 A 
ATOM     10  C   UNL     1       6.553  -3.066   1.263  0.00  0.00    -0.037 A 
ATOM     11  C   UNL     1       6.067  -2.130   0.368  0.00  0.00    +0.006 A 
ATOM     12  C   UNL     1       4.845  -1.526   0.595  0.00  0.00    +0.023 A 
BRANCH  10  13
ATOM     13  C   UNL     1       7.883  -3.727   1.010  0.00  0.00    +0.104 C 
BRANCH  13  14
ATOM     14  S   UNL     1       7.632  -5.237   0.036  0.00  0.00    -0.159 S 
ATOM     15  C   UNL     1       9.305  -5.904  -0.179  0.00  0.00    +0.084 C 
ENDBRANCH  13  14
ENDBRANCH  10  13
ENDBRANCH   5   7
BRANCH   1  17
ATOM     16  C   UNL     1      -0.507   1.348   0.159  0.00  0.00    +0.033 C 
ATOM     17  C   UNL     1      -0.043  -0.104   0.035  0.00  0.00    +0.104 C 
BRANCH  17  18
ATOM     18  C   UNL     1      -1.242  -1.018   0.051  0.00  0.00    -0.024 A 
ATOM     19  C   UNL     1      -1.519  -1.813  -1.046  0.00  0.00    +0.006 A 
ATOM     20  C   UNL     1      -2.617  -2.652  -1.034  0.00  0.00    +0.004 A 
ATOM     21  C   UNL     1      -3.442  -2.697   0.073  0.00  0.00    +0.045 A 
ATOM     22  C   UNL     1      -3.166  -1.901   1.175  0.00  0.00    +0.117 A 
ATOM     23  C   UNL     1      -2.059  -1.064   1.163  0.00  0.00    +0.050 A 
BRANCH  22  24
ATOM     24  O   UNL     1      -3.976  -1.943   2.265  0.00  0.00    -0.507 OA
ATOM     25  H   UNL     1      -3.714  -2.601   2.924  0.00  0.00    +0.292 HD
ENDBRANCH  22  24
ENDBRANCH  17  18
ENDBRANCH   1  17
TORSDOF 6
