REMARK  Name = ZINC39662494
REMARK  7 active torsions:
REMARK  status: ('A' for Active; 'I' for Inactive)
REMARK    1  A    between atoms: C_4  and  C_7
REMARK    2  A    between atoms: C_7  and  C_9
REMARK    3  A    between atoms: C_7  and  N_11
REMARK    4  A    between atoms: C_12  and  C_14
REMARK    5  A    between atoms: C_25  and  C_27
REMARK    6  A    between atoms: C_32  and  S_33
REMARK    7  A    between atoms: S_33  and  C_34
REMARK                            x       y       z     vdW  Elec       q    Type
REMARK                         _______ _______ _______ _____ _____    ______ ____
ROOT
ATOM      1  C   UNL     1       4.546  -3.608  -3.035  0.00  0.00    +0.100 C 
ATOM      2  C   UNL     1       4.121  -4.724  -2.055  0.00  0.00    +0.121 C 
ATOM      3  N   UNL     1       4.944  -5.895  -2.441  0.00  0.00    -0.296 N 
ATOM      4  C   UNL     1       6.273  -5.322  -2.760  0.00  0.00    +0.115 C 
ATOM      5  C   UNL     1       5.959  -4.003  -3.495  0.00  0.00    -0.004 C 
ATOM      6  C   UNL     1       6.965  -2.927  -3.098  0.00  0.00    -0.010 C 
ATOM      7  C   UNL     1       8.352  -3.314  -3.617  0.00  0.00    -0.082 C 
ATOM      8  N   UNL     1       8.308  -3.457  -5.077  0.00  0.00    +0.379 N 
ATOM      9  C   UNL     1       7.409  -4.557  -5.446  0.00  0.00    -0.082 C 
ATOM     10  C   UNL     1       5.982  -4.222  -5.004  0.00  0.00    -0.010 C 
ATOM     11  C   UNL     1       4.568  -7.188  -2.491  0.00  0.00    +0.249 C 
ATOM     12  O   UNL     1       5.389  -8.051  -2.737  0.00  0.00    -0.270 OA
ATOM     13  H   UNL     1       7.973  -2.598  -5.488  0.00  0.00    -0.086 HD
ATOM     14  H   UNL     1       9.236  -3.652  -5.423  0.00  0.00    -0.086 HD
ENDROOT
BRANCH  11  15
ATOM     15  C   UNL     1       3.162  -7.557  -2.248  0.00  0.00    +0.069 A 
ATOM     16  C   UNL     1       2.392  -6.855  -1.313  0.00  0.00    +0.017 A 
ATOM     17  C   UNL     1       1.077  -7.240  -1.122  0.00  0.00    +0.020 A 
ATOM     18  C   UNL     1       0.563  -8.298  -1.853  0.00  0.00    +0.112 A 
ATOM     19  N   UNL     1       1.304  -8.947  -2.729  0.00  0.00    -0.248 NA
ATOM     20  C   UNL     1       2.567  -8.617  -2.955  0.00  0.00    +0.114 A 
BRANCH  20  21
ATOM     21  S   UNL     1       3.508  -9.514  -4.144  0.00  0.00    -0.069 S 
BRANCH  21  22
ATOM     22  C   UNL     1       2.432 -10.817  -4.644  0.00  0.00    +0.014 A 
ATOM     23  C   UNL     1       1.641 -10.670  -5.777  0.00  0.00    +0.015 A 
ATOM     24  C   UNL     1       0.799 -11.692  -6.167  0.00  0.00    +0.001 A 
ATOM     25  C   UNL     1       0.742 -12.862  -5.430  0.00  0.00    +0.000 A 
ATOM     26  C   UNL     1       1.527 -13.011  -4.302  0.00  0.00    +0.001 A 
ATOM     27  C   UNL     1       2.376 -11.995  -3.910  0.00  0.00    +0.015 A 
ENDBRANCH  21  22
ENDBRANCH  20  21
ENDBRANCH  11  15
BRANCH   1  29
ATOM     28  N   UNL     1       4.348  -1.143  -3.024  0.00  0.00    -0.296 N 
ATOM     29  C   UNL     1       4.577  -2.276  -2.331  0.00  0.00    +0.219 C 
ATOM     30  O   UNL     1       4.808  -2.223  -1.142  0.00  0.00    -0.275 OA
ATOM     31  H   UNL     1       4.163  -1.185  -3.975  0.00  0.00    +0.150 HD
BRANCH  28  32
ATOM     32  C   UNL     1       4.377   0.153  -2.340  0.00  0.00    +0.207 C 
BRANCH  32  36
ATOM     33  C   UNL     1       5.312   3.227  -5.155  0.00  0.00    +0.000 A 
ATOM     34  C   UNL     1       5.859   3.262  -3.886  0.00  0.00    +0.000 A 
ATOM     35  C   UNL     1       5.556   2.267  -2.975  0.00  0.00    +0.006 A 
ATOM     36  C   UNL     1       4.707   1.238  -3.333  0.00  0.00    -0.013 A 
ATOM     37  C   UNL     1       4.159   1.202  -4.601  0.00  0.00    +0.006 A 
ATOM     38  C   UNL     1       4.463   2.196  -5.513  0.00  0.00    +0.000 A 
ENDBRANCH  32  36
BRANCH  32  39
ATOM     39  C   UNL     1       3.061   0.421  -1.739  0.00  0.00    +0.090 C 
ATOM     40  N   UNL     1       2.045   0.627  -1.275  0.00  0.00    -0.194 NA
ENDBRANCH  32  39
ENDBRANCH  28  32
ENDBRANCH   1  29
TORSDOF 7
