REMARK  Name = ZINC49682057
REMARK  5 active torsions:
REMARK  status: ('A' for Active; 'I' for Inactive)
REMARK    1  A    between atoms: N_7  and  C_8
REMARK    2  A    between atoms: C_8  and  C_9
REMARK    3  A    between atoms: C_9  and  C_10
REMARK    4  A    between atoms: C_10  and  C_11
REMARK    5  A    between atoms: N_13  and  C_14
REMARK                            x       y       z     vdW  Elec       q    Type
REMARK                         _______ _______ _______ _____ _____    ______ ____
ROOT
ATOM      1  C   UNL     1       6.369  -4.649  -0.087  0.00  0.00    +0.217 C 
ATOM      2  O   UNL     1       7.290  -3.860  -0.085  0.00  0.00    -0.275 OA
ATOM      3  N   UNL     1       6.617  -5.974  -0.093  0.00  0.00    -0.284 N 
ATOM      4  H   UNL     1       5.884  -6.605  -0.014  0.00  0.00    +0.155 HD
ENDROOT
BRANCH   3   5
ATOM      5  C   UNL     1       7.933  -6.440  -0.214  0.00  0.00    +0.055 A 
ATOM      6  C   UNL     1       8.896  -5.647  -0.826  0.00  0.00    +0.072 A 
ATOM      7  C   UNL     1      10.194  -6.109  -0.943  0.00  0.00    +0.144 A 
ATOM      8  C   UNL     1      10.532  -7.369  -0.449  0.00  0.00    +0.077 A 
ATOM      9  C   UNL     1       9.570  -8.157   0.161  0.00  0.00    +0.048 A 
ATOM     10  C   UNL     1       8.274  -7.692   0.283  0.00  0.00    +0.064 A 
ATOM     11 CL   UNL     1       7.069  -8.676   1.053  0.00  0.00    -0.082 Cl
ATOM     12  N   UNL     1      11.854  -7.823  -0.577  0.00  0.00    -0.280 N 
ATOM     13  C   UNL     1      12.825  -6.934  -0.879  0.00  0.00    +0.255 C 
ATOM     14  O   UNL     1      13.970  -7.308  -1.025  0.00  0.00    -0.272 OA
ATOM     15  C   UNL     1      12.481  -5.474  -1.034  0.00  0.00    +0.325 C 
ATOM     16  O   UNL     1      11.149  -5.346  -1.538  0.00  0.00    -0.481 OA
ATOM     17  H   UNL     1      12.067  -8.761  -0.451  0.00  0.00    +0.155 HD
ENDBRANCH   3   5
BRANCH   1  18
ATOM     18  C   UNL     1       4.947  -4.149  -0.083  0.00  0.00    +0.097 C 
BRANCH  18  19
ATOM     19  C   UNL     1       4.946  -2.619  -0.076  0.00  0.00    +0.028 C 
BRANCH  19  20
ATOM     20  C   UNL     1       3.503  -2.111  -0.072  0.00  0.00    +0.105 C 
BRANCH  20  27
ATOM     21  C   UNL     1      -0.019   1.381  -0.051  0.00  0.00    +0.039 A 
ATOM     22  C   UNL     1       1.189   2.060  -0.050  0.00  0.00    +0.116 A 
ATOM     23  N   UNL     1       2.318   1.370  -0.054  0.00  0.00    -0.223 NA
ATOM     24  C   UNL     1       2.301   0.045  -0.060  0.00  0.00    +0.215 A 
ATOM     25  N   UNL     1       1.164  -0.634  -0.062  0.00  0.00    -0.223 NA
ATOM     26  C   UNL     1       0.000  -0.005  -0.057  0.00  0.00    +0.116 A 
ATOM     27  N   UNL     1       3.501  -0.646  -0.065  0.00  0.00    -0.313 N 
ATOM     28  H   UNL     1       4.340  -0.160  -0.064  0.00  0.00    +0.149 HD
ENDBRANCH  20  27
ENDBRANCH  19  20
ENDBRANCH  18  19
ENDBRANCH   1  18
TORSDOF 5
