REMARK  Name = ZINC41078957
REMARK  7 active torsions:
REMARK  status: ('A' for Active; 'I' for Inactive)
REMARK    1  A    between atoms: C_1  and  C_2
REMARK    2  A    between atoms: C_2  and  C_3
REMARK    3  A    between atoms: C_3  and  C_4
REMARK    4  A    between atoms: C_6  and  O_10
REMARK    5  A    between atoms: O_10  and  C_11
REMARK    6  A    between atoms: C_14  and  C_18
REMARK    7  A    between atoms: C_16  and  N_17
REMARK                            x       y       z     vdW  Elec       q    Type
REMARK                         _______ _______ _______ _____ _____    ______ ____
ROOT
ATOM      1  O   UNL     1      -2.676  -4.891   1.866  0.00  0.00    -0.436 OA
ENDROOT
BRANCH   1   2
ATOM      2  C   UNL     1      -2.683  -6.242   1.711  0.00  0.00    +0.151 A 
ATOM      3  C   UNL     1      -3.702  -6.853   0.999  0.00  0.00    +0.048 A 
ATOM      4  C   UNL     1      -3.708  -8.227   0.843  0.00  0.00    +0.007 A 
ATOM      5  C   UNL     1      -2.700  -8.994   1.395  0.00  0.00    -0.048 A 
ATOM      6  C   UNL     1      -1.680  -8.392   2.107  0.00  0.00    +0.029 A 
ATOM      7  C   UNL     1      -1.663  -7.014   2.264  0.00  0.00    +0.068 A 
ATOM      8  C   UNL     1      -2.712 -10.491   1.221  0.00  0.00    +0.044 C 
BRANCH   7   9
ATOM      9  N   UNL     1      -0.629  -6.401   2.979  0.00  0.00    -0.355 N 
ATOM     10  H   UNL     1      -0.621  -5.437   3.091  0.00  0.00    +0.142 HD
ATOM     11  H   UNL     1       0.081  -6.940   3.363  0.00  0.00    +0.142 HD
ENDBRANCH   7   9
ENDBRANCH   1   2
BRANCH   1  14
ATOM     12  C   UNL     1      -1.259  -2.052   0.100  0.00  0.00    +0.048 A 
ATOM     13  C   UNL     1      -2.003  -2.760   1.025  0.00  0.00    +0.091 A 
ATOM     14  C   UNL     1      -1.963  -4.153   0.980  0.00  0.00    +0.224 A 
ATOM     15  N   UNL     1      -1.216  -4.746   0.055  0.00  0.00    -0.201 NA
ATOM     16  C   UNL     1      -0.521  -4.033  -0.808  0.00  0.00    +0.225 A 
ATOM     17  N   UNL     1      -0.541  -2.715  -0.796  0.00  0.00    -0.240 NA
BRANCH  12  18
ATOM     18  C   UNL     1      -1.268  -0.545   0.105  0.00  0.00    +0.055 C 
BRANCH  18  20
ATOM     19  C   UNL     1       0.158   1.503   0.205  0.00  0.00    +0.004 C 
ATOM     20  C   UNL     1       0.168  -0.027   0.199  0.00  0.00    +0.003 C 
ENDBRANCH  18  20
ENDBRANCH  12  18
ENDBRANCH   1  14
TORSDOF 5
