REMARK  Name = ZINC67035600
REMARK  7 active torsions:
REMARK  status: ('A' for Active; 'I' for Inactive)
REMARK    1  A    between atoms: C_1  and  C_2
REMARK    2  A    between atoms: C_2  and  C_3
REMARK    3  A    between atoms: C_2  and  C_4
REMARK    4  A    between atoms: C_4  and  C_5
REMARK    5  A    between atoms: C_5  and  C_6
REMARK    6  A    between atoms: N_8  and  N_9
REMARK    7  A    between atoms: N_12  and  C_13
REMARK                            x       y       z     vdW  Elec       q    Type
REMARK                         _______ _______ _______ _____ _____    ______ ____
ROOT
ATOM      1  N   UNL     1      -4.375  -4.387  -0.212  0.00  0.00    -0.218 N 
ATOM      2  C   UNL     1      -4.605  -5.711  -0.312  0.00  0.00    +0.320 C 
ATOM      3  O   UNL     1      -5.746  -6.133  -0.295  0.00  0.00    -0.251 OA
ATOM      4  N   UNL     1      -3.572  -6.568  -0.430  0.00  0.00    -0.268 N 
ATOM      5  H   UNL     1      -5.118  -3.770  -0.127  0.00  0.00    +0.174 HD
ATOM      6  H   UNL     1      -2.667  -6.229  -0.511  0.00  0.00    +0.156 HD
ENDROOT
BRANCH   4   7
ATOM      7  C   UNL     1      -3.804  -7.950  -0.435  0.00  0.00    +0.036 A 
ATOM      8  C   UNL     1      -4.954  -8.458  -1.036  0.00  0.00    +0.027 A 
ATOM      9  C   UNL     1      -5.198  -9.814  -1.051  0.00  0.00    +0.049 A 
ATOM     10  C   UNL     1      -4.293 -10.690  -0.463  0.00  0.00    +0.139 A 
ATOM     11  C   UNL     1      -3.132 -10.182   0.145  0.00  0.00    +0.019 A 
ATOM     12  C   UNL     1      -2.890  -8.805   0.150  0.00  0.00    +0.035 A 
ATOM     13  C   UNL     1      -2.185 -11.116   0.762  0.00  0.00    +0.018 A 
ATOM     14  C   UNL     1      -2.473 -12.442   0.720  0.00  0.00    +0.092 A 
ATOM     15  C   UNL     1      -3.659 -12.882   0.093  0.00  0.00    +0.337 A 
ATOM     16  O   UNL     1      -3.906 -14.075   0.062  0.00  0.00    -0.245 OA
ATOM     17  O   UNL     1      -4.520 -12.021  -0.469  0.00  0.00    -0.422 OA
ENDBRANCH   4   7
BRANCH   1  20
ATOM     18  C   UNL     1      -2.830  -2.578  -0.133  0.00  0.00    +0.229 C 
ATOM     19  O   UNL     1      -3.760  -1.806  -0.026  0.00  0.00    -0.274 OA
ATOM     20  N   UNL     1      -3.061  -3.902  -0.232  0.00  0.00    -0.233 N 
ATOM     21  H   UNL     1      -2.317  -4.518  -0.317  0.00  0.00    +0.173 HD
BRANCH  18  22
ATOM     22  C   UNL     1      -1.417  -2.055  -0.154  0.00  0.00    +0.097 C 
BRANCH  22  23
ATOM     23  C   UNL     1      -1.434  -0.530  -0.027  0.00  0.00    +0.012 C 
BRANCH  23  25
ATOM     24  C   UNL     1      -0.021   1.530  -0.047  0.00  0.00    +0.007 C 
ATOM     25  C   UNL     1       0.001  -0.000  -0.048  0.00  0.00    -0.017 C 
ATOM     26  C   UNL     1       0.748  -0.501   1.189  0.00  0.00    +0.007 C 
ENDBRANCH  23  25
ENDBRANCH  22  23
ENDBRANCH  18  22
ENDBRANCH   1  20
TORSDOF 5
