REMARK  Name = ZINC63831271
REMARK  13 active torsions:
REMARK  status: ('A' for Active; 'I' for Inactive)
REMARK    1  A    between atoms: C_1  and  C_2
REMARK    2  A    between atoms: C_2  and  C_3
REMARK    3  A    between atoms: C_3  and  N_4
REMARK    4  A    between atoms: N_7  and  C_8
REMARK    5  A    between atoms: C_8  and  C_9
REMARK    6  A    between atoms: C_8  and  C_10
REMARK    7  A    between atoms: C_8  and  C_11
REMARK    8  A    between atoms: N_13  and  C_14
REMARK    9  A    between atoms: C_14  and  C_15
REMARK   10  A    between atoms: C_15  and  C_16
REMARK   11  A    between atoms: C_16  and  N_17
REMARK   12  A    between atoms: C_19  and  C_24
REMARK   13  A    between atoms: C_21  and  C_23
REMARK                            x       y       z     vdW  Elec       q    Type
REMARK                         _______ _______ _______ _____ _____    ______ ____
ROOT
ATOM      1  C   UNL     1      -3.516  -6.263   0.002  0.00  0.00    +0.236 C 
ATOM      2  O   UNL     1      -4.235  -7.030   0.607  0.00  0.00    -0.273 OA
ATOM      3  N   UNL     1      -2.453  -6.733  -0.680  0.00  0.00    -0.314 N 
ATOM      4  H   UNL     1      -1.878  -6.120  -1.164  0.00  0.00    +0.149 HD
ENDROOT
BRANCH   1   5
ATOM      5  C   UNL     1      -3.812  -4.785   0.013  0.00  0.00    +0.106 C 
ATOM      6  C   UNL     1      -4.607  -4.434   1.272  0.00  0.00    +0.041 C 
ATOM      7  C   UNL     1      -4.631  -4.420  -1.227  0.00  0.00    +0.041 C 
BRANCH   5  11
ATOM      8  N   UNL     1      -1.413  -1.998   0.005  0.00  0.00    -0.299 N 
ATOM      9  C   UNL     1      -2.571  -2.688   0.012  0.00  0.00    +0.300 C 
ATOM     10  O   UNL     1      -3.632  -2.095   0.025  0.00  0.00    -0.253 OA
ATOM     11  N   UNL     1      -2.553  -4.036   0.005  0.00  0.00    -0.286 N 
ATOM     12  H   UNL     1      -0.567  -2.472  -0.006  0.00  0.00    +0.150 HD
ATOM     13  H   UNL     1      -1.707  -4.509  -0.006  0.00  0.00    +0.151 HD
BRANCH   8  14
ATOM     14  C   UNL     1      -1.433  -0.534   0.013  0.00  0.00    +0.105 C 
BRANCH  14  16
ATOM     15  C   UNL     1      -0.019   1.526   0.010  0.00  0.00    +0.005 C 
ATOM     16  C   UNL     1       0.002  -0.004   0.002  0.00  0.00    +0.015 C 
ENDBRANCH  14  16
ENDBRANCH   8  14
ENDBRANCH   5  11
ENDBRANCH   1   5
BRANCH   3  17
ATOM     17  C   UNL     1      -2.166  -8.169  -0.691  0.00  0.00    +0.102 C 
BRANCH  17  18
ATOM     18  C   UNL     1      -0.915  -8.433  -1.531  0.00  0.00    +0.000 C 
BRANCH  18  19
ATOM     19  C   UNL     1      -0.615  -9.934  -1.542  0.00  0.00    -0.077 C 
BRANCH  19  20
ATOM     20  N   UNL     1       0.586 -10.187  -2.350  0.00  0.00    +0.380 N 
ATOM     21  C   UNL     1       1.746  -9.555  -1.710  0.00  0.00    -0.076 C 
ATOM     22  C   UNL     1       2.984  -9.747  -2.588  0.00  0.00    -0.031 C 
ATOM     23  C   UNL     1       3.250 -11.245  -2.766  0.00  0.00    +0.003 C 
ATOM     24  C   UNL     1       2.006 -11.906  -3.365  0.00  0.00    -0.031 C 
ATOM     25  C   UNL     1       0.804 -11.634  -2.458  0.00  0.00    -0.076 C 
ATOM     26  C   UNL     1       2.233 -13.415  -3.475  0.00  0.00    +0.005 C 
ATOM     27  C   UNL     1       2.746  -9.104  -3.955  0.00  0.00    +0.005 C 
ATOM     28  H   UNL     1       0.459  -9.797  -3.271  0.00  0.00    -0.082 HD
ENDBRANCH  19  20
ENDBRANCH  18  19
ENDBRANCH  17  18
ENDBRANCH   3  17
TORSDOF 8
