REMARK  Name = ZINC01414083
REMARK  8 active torsions:
REMARK  status: ('A' for Active; 'I' for Inactive)
REMARK    1  A    between atoms: C_1  and  C_2
REMARK    2  A    between atoms: C_5  and  C_8
REMARK    3  A    between atoms: C_8  and  N_10
REMARK    4  A    between atoms: C_11  and  C_24
REMARK    5  A    between atoms: C_11  and  O_25
REMARK    6  A    between atoms: C_12  and  C_17
REMARK    7  A    between atoms: C_14  and  C_16
REMARK    8  A    between atoms: C_17  and  C_18
REMARK                            x       y       z     vdW  Elec       q    Type
REMARK                         _______ _______ _______ _____ _____    ______ ____
ROOT
ATOM      1  N   UNL     1      -3.171   4.042   2.212  0.00  0.00    -0.186 N 
ATOM      2  C   UNL     1      -3.283   2.766   1.487  0.00  0.00    +0.159 C 
ATOM      3  C   UNL     1      -1.832   2.243   1.464  0.00  0.00    +0.091 C 
ATOM      4  C   UNL     1      -1.052   3.311   2.197  0.00  0.00    +0.042 C 
ATOM      5  N   UNL     1      -1.837   4.239   2.565  0.00  0.00    -0.186 NA
ATOM      6  C   UNL     1       0.432   3.279   2.453  0.00  0.00    +0.063 C 
ATOM      7  C   UNL     1      -4.195   1.795   2.240  0.00  0.00    +0.066 C 
ENDROOT
BRANCH   1   8
ATOM      8  C   UNL     1      -4.189   4.881   2.488  0.00  0.00    +0.105 C 
ATOM      9  S   UNL     1      -5.778   4.494   1.982  0.00  0.00    -0.033 S 
BRANCH   8  14
ATOM     10  C   UNL     1      -3.193   9.761   5.366  0.00  0.00    +0.044 C 
ATOM     11  C   UNL     1      -3.454   8.483   4.612  0.00  0.00    -0.050 A 
ATOM     12  C   UNL     1      -4.638   7.796   4.810  0.00  0.00    +0.004 A 
ATOM     13  C   UNL     1      -4.884   6.625   4.123  0.00  0.00    +0.010 A 
ATOM     14  C   UNL     1      -3.933   6.134   3.226  0.00  0.00    +0.005 A 
ATOM     15  C   UNL     1      -2.738   6.830   3.034  0.00  0.00    +0.010 A 
ATOM     16  C   UNL     1      -2.507   8.002   3.724  0.00  0.00    +0.004 A 
ENDBRANCH   8  14
ENDBRANCH   1   8
BRANCH   2  17
ATOM     17  O   UNL     1      -3.762   2.981   0.158  0.00  0.00    -0.369 OA
ATOM     18  H   UNL     1      -4.670   3.310   0.115  0.00  0.00    +0.212 HD
ENDBRANCH   2  17
BRANCH   3  19
ATOM     19  C   UNL     1      -1.333   2.105   0.025  0.00  0.00    +0.049 C 
BRANCH  19  20
ATOM     20  C   UNL     1       0.022   1.444   0.024  0.00  0.00    -0.047 A 
ATOM     21  C   UNL     1       1.166   2.215  -0.064  0.00  0.00    +0.003 A 
ATOM     22  C   UNL     1       2.408   1.608  -0.071  0.00  0.00    +0.000 A 
ATOM     23  C   UNL     1       2.506   0.232   0.010  0.00  0.00    +0.000 A 
ATOM     24  C   UNL     1       1.361  -0.538   0.098  0.00  0.00    +0.000 A 
ATOM     25  C   UNL     1       0.119   0.068   0.105  0.00  0.00    +0.003 A 
ENDBRANCH  19  20
ENDBRANCH   3  19
TORSDOF 5
