REMARK  Name = ZINC01872202
REMARK  4 active torsions:
REMARK  status: ('A' for Active; 'I' for Inactive)
REMARK    1  A    between atoms: C_4  and  C_7
REMARK    2  A    between atoms: C_8  and  C_18
REMARK    3  A    between atoms: C_18  and  C_20
REMARK    4  A    between atoms: C_18  and  O_26
REMARK                            x       y       z     vdW  Elec       q    Type
REMARK                         _______ _______ _______ _____ _____    ______ ____
ROOT
ATOM      1  C   UNL     1      -2.607   3.749   0.157  0.00  0.00    +0.117 A 
ATOM      2  C   UNL     1      -3.526   3.538  -0.885  0.00  0.00    +0.102 A 
ATOM      3  N   UNL     1      -4.603   4.282  -0.987  0.00  0.00    -0.245 NA
ATOM      4  C   UNL     1      -4.826   5.258  -0.098  0.00  0.00    +0.091 A 
ATOM      5  C   UNL     1      -5.967   6.072  -0.190  0.00  0.00    +0.030 A 
ATOM      6  C   UNL     1      -6.170   7.058   0.728  0.00  0.00    +0.002 A 
ATOM      7  C   UNL     1      -5.259   7.274   1.760  0.00  0.00    +0.002 A 
ATOM      8  C   UNL     1      -4.142   6.506   1.880  0.00  0.00    +0.031 A 
ATOM      9  C   UNL     1      -3.899   5.479   0.952  0.00  0.00    +0.111 A 
ATOM     10  N   UNL     1      -2.809   4.709   1.045  0.00  0.00    -0.128 N 
ATOM     11  O   UNL     1      -1.876   4.920   2.089  0.00  0.00    -0.163 OA
ENDROOT
BRANCH   1  15
ATOM     12  C   UNL     1       0.855   1.299   0.445  0.00  0.00    +0.000 A 
ATOM     13  C   UNL     1       0.989   2.672   0.350  0.00  0.00    +0.001 A 
ATOM     14  C   UNL     1      -0.131   3.473   0.261  0.00  0.00    +0.010 A 
ATOM     15  C   UNL     1      -1.399   2.895   0.257  0.00  0.00    +0.004 A 
ATOM     16  C   UNL     1      -1.528   1.510   0.354  0.00  0.00    +0.010 A 
ATOM     17  C   UNL     1      -0.401   0.720   0.447  0.00  0.00    +0.001 A 
ENDBRANCH   1  15
BRANCH   2  18
ATOM     18  C   UNL     1      -3.276   2.445  -1.891  0.00  0.00    +0.195 C 
BRANCH  18  19
ATOM     19  C   UNL     1      -2.897   3.057  -3.215  0.00  0.00    -0.013 A 
ATOM     20  C   UNL     1      -3.879   3.550  -4.055  0.00  0.00    +0.006 A 
ATOM     21  C   UNL     1      -3.531   4.115  -5.267  0.00  0.00    +0.000 A 
ATOM     22  C   UNL     1      -2.203   4.179  -5.645  0.00  0.00    +0.000 A 
ATOM     23  C   UNL     1      -1.222   3.682  -4.808  0.00  0.00    +0.000 A 
ATOM     24  C   UNL     1      -1.569   3.120  -3.593  0.00  0.00    +0.006 A 
ENDBRANCH  18  19
BRANCH  18  25
ATOM     25  O   UNL     1      -4.461   1.663  -2.050  0.00  0.00    -0.381 OA
ATOM     26  H   UNL     1      -5.226   2.167  -2.360  0.00  0.00    +0.211 HD
ENDBRANCH  18  25
ENDBRANCH   2  18
TORSDOF 4
