REMARK  Name = ZINC56709040
REMARK  6 active torsions:
REMARK  status: ('A' for Active; 'I' for Inactive)
REMARK    1  A    between atoms: C_1  and  C_2
REMARK    2  A    between atoms: C_4  and  O_27
REMARK    3  A    between atoms: C_7  and  N_8
REMARK    4  A    between atoms: C_24  and  C_26
REMARK    5  A    between atoms: O_27  and  C_28
REMARK    6  A    between atoms: C_28  and  C_29
REMARK                            x       y       z     vdW  Elec       q    Type
REMARK                         _______ _______ _______ _____ _____    ______ ____
ROOT
ATOM      1  N   UNL     1      -0.732   0.113   2.492  0.00  0.00    -0.269 N 
ATOM      2  C   UNL     1      -0.569  -0.606   3.620  0.00  0.00    +0.307 C 
ATOM      3  O   UNL     1      -0.535  -1.821   3.568  0.00  0.00    -0.252 OA
ATOM      4  N   UNL     1      -0.443   0.021   4.806  0.00  0.00    -0.277 N 
ATOM      5  C   UNL     1      -0.615   1.478   4.911  0.00  0.00    +0.115 C 
ATOM      6  C   UNL     1      -1.839   1.773   5.786  0.00  0.00    +0.056 C 
ATOM      7  C   UNL     1      -1.791   0.893   7.009  0.00  0.00    -0.016 A 
ATOM      8  C   UNL     1      -2.509   1.053   8.258  0.00  0.00    +0.003 A 
ATOM      9  C   UNL     1      -3.421   2.011   8.711  0.00  0.00    +0.010 A 
ATOM     10  C   UNL     1      -3.914   1.845   9.982  0.00  0.00    +0.001 A 
ATOM     11  C   UNL     1      -3.535   0.783  10.786  0.00  0.00    +0.002 A 
ATOM     12  C   UNL     1      -2.635  -0.179  10.363  0.00  0.00    +0.026 A 
ATOM     13  C   UNL     1      -2.118  -0.037   9.077  0.00  0.00    +0.047 A 
ATOM     14  N   UNL     1      -1.231  -0.787   8.359  0.00  0.00    -0.356 N 
ATOM     15  H   UNL     1      -0.801  -1.597   8.675  0.00  0.00    +0.166 HD
ATOM     16  C   UNL     1      -1.040  -0.223   7.126  0.00  0.00    +0.041 A 
ATOM     17  C   UNL     1      -0.136  -0.736   6.032  0.00  0.00    +0.121 C 
ATOM     18  C   UNL     1      -0.395  -2.226   5.801  0.00  0.00    +0.035 C 
ATOM     19  H   UNL     1      -0.705   1.081   2.526  0.00  0.00    +0.156 HD
ENDROOT
BRANCH   1  26
ATOM     20  C   UNL     1      -2.291   1.432   0.513  0.00  0.00    +0.046 C 
ATOM     21  C   UNL     1      -1.695   0.069   0.276  0.00  0.00    -0.026 A 
ATOM     22  C   UNL     1      -1.894  -0.572  -0.931  0.00  0.00    +0.050 A 
ATOM     23  C   UNL     1      -1.345  -1.827  -1.149  0.00  0.00    +0.122 A 
ATOM     24  C   UNL     1      -0.596  -2.439  -0.155  0.00  0.00    +0.047 A 
ATOM     25  C   UNL     1      -0.396  -1.799   1.052  0.00  0.00    +0.027 A 
ATOM     26  C   UNL     1      -0.939  -0.540   1.269  0.00  0.00    +0.038 A 
BRANCH  23  27
ATOM     27  O   UNL     1      -1.542  -2.458  -2.337  0.00  0.00    -0.483 OA
BRANCH  27  28
ATOM     28  C   UNL     1      -0.948  -3.748  -2.493  0.00  0.00    +0.324 C 
BRANCH  28  29
ATOM     29  C   UNL     1      -1.271  -4.288  -3.862  0.00  0.00    +0.248 C 
ATOM     30  O   UNL     1      -1.944  -3.632  -4.629  0.00  0.00    -0.272 OA
ATOM     31  N   UNL     1      -0.812  -5.499  -4.235  0.00  0.00    -0.327 N 
ATOM     32  H   UNL     1      -0.274  -6.024  -3.622  0.00  0.00    +0.145 HD
ATOM     33  H   UNL     1      -1.020  -5.847  -5.116  0.00  0.00    +0.145 HD
ENDBRANCH  28  29
ENDBRANCH  27  28
ENDBRANCH  23  27
ENDBRANCH   1  26
TORSDOF 4
