REMARK  Name = ZINC63809935
REMARK  5 active torsions:
REMARK  status: ('A' for Active; 'I' for Inactive)
REMARK    1  A    between atoms: C_1  and  C_2
REMARK    2  A    between atoms: C_2  and  C_3
REMARK    3  A    between atoms: C_2  and  N_11
REMARK    4  A    between atoms: N_11  and  C_12
REMARK    5  A    between atoms: C_13  and  C_15
REMARK                            x       y       z     vdW  Elec       q    Type
REMARK                         _______ _______ _______ _____ _____    ______ ____
ROOT
ATOM      1  N   UNL     1       0.818  -0.408   1.267  0.00  0.00    -0.294 N 
ATOM      2  C   UNL     1       2.193   0.024   1.527  0.00  0.00    +0.133 C 
ATOM      3  C   UNL     1       0.138  -1.096   2.205  0.00  0.00    +0.247 C 
ATOM      4  O   UNL     1      -1.029  -1.382   2.023  0.00  0.00    -0.270 OA
ENDROOT
BRANCH   3   5
ATOM      5  C   UNL     1       0.814  -1.504   3.459  0.00  0.00    +0.039 A 
ATOM      6  C   UNL     1       1.669  -0.604   4.113  0.00  0.00    +0.014 A 
ATOM      7  C   UNL     1       2.302  -0.955   5.266  0.00  0.00    +0.016 A 
ATOM      8  C   UNL     1       2.101  -2.231   5.812  0.00  0.00    +0.065 A 
ATOM      9  C   UNL     1       1.239  -3.152   5.162  0.00  0.00    +0.080 A 
ATOM     10  C   UNL     1       0.592  -2.769   3.978  0.00  0.00    +0.041 A 
ATOM     11  N   UNL     1       1.057  -4.367   5.698  0.00  0.00    -0.223 NA
ATOM     12  C   UNL     1       1.671  -4.711   6.819  0.00  0.00    +0.180 A 
ATOM     13  N   UNL     1       2.496  -3.876   7.473  0.00  0.00    -0.301 N 
ATOM     14  H   UNL     1       2.924  -4.171   8.292  0.00  0.00    +0.171 HD
ATOM     15  C   UNL     1       2.738  -2.632   7.006  0.00  0.00    +0.260 A 
ATOM     16  O   UNL     1       3.564  -1.798   7.661  0.00  0.00    -0.267 OA
ATOM     17  S   UNL     1       1.403  -6.276   7.460  0.00  0.00    -0.011 S 
ENDBRANCH   3   5
BRANCH   1  19
ATOM     18  C   UNL     1       0.229   1.419  -0.249  0.00  0.00    +0.033 C 
ATOM     19  C   UNL     1       0.181  -0.092  -0.015  0.00  0.00    +0.106 C 
BRANCH  19  20
ATOM     20  C   UNL     1       0.914  -0.797  -1.127  0.00  0.00    +0.011 A 
ATOM     21  C   UNL     1       1.751  -0.083  -1.964  0.00  0.00    +0.046 A 
ATOM     22  C   UNL     1       2.425  -0.730  -2.985  0.00  0.00    +0.124 A 
ATOM     23  C   UNL     1       2.261  -2.092  -3.169  0.00  0.00    +0.041 A 
ATOM     24  C   UNL     1       1.425  -2.806  -2.332  0.00  0.00    +0.041 A 
ATOM     25  C   UNL     1       0.755  -2.160  -1.307  0.00  0.00    +0.128 A 
ATOM     26  F   UNL     1      -0.059  -2.859  -0.486  0.00  0.00    -0.205 F 
ATOM     27  F   UNL     1       3.242  -0.032  -3.804  0.00  0.00    -0.205 F 
ENDBRANCH  19  20
ENDBRANCH   1  19
TORSDOF 3
