REMARK  Name = ZINC01968089
REMARK  8 active torsions:
REMARK  status: ('A' for Active; 'I' for Inactive)
REMARK    1  A    between atoms: C_1  and  C_2
REMARK    2  A    between atoms: C_7  and  C_8
REMARK    3  A    between atoms: C_8  and  O_9
REMARK    4  A    between atoms: O_9  and  C_10
REMARK    5  A    between atoms: C_15  and  C_16
REMARK    6  A    between atoms: N_17  and  N_18
REMARK    7  A    between atoms: C_19  and  C_21
REMARK    8  A    between atoms: C_22  and  C_27
REMARK                            x       y       z     vdW  Elec       q    Type
REMARK                         _______ _______ _______ _____ _____    ______ ____
ROOT
ATOM      1  C   UNL     1       0.195   3.821  -0.179  0.00  0.00    +0.130 A 
ATOM      2  C   UNL     1       1.428   3.222   0.024  0.00  0.00    +0.046 A 
ATOM      3  C   UNL     1       1.560   1.851  -0.093  0.00  0.00    +0.004 A 
ATOM      4  C   UNL     1       0.465   1.067  -0.413  0.00  0.00    +0.001 A 
ATOM      5  C   UNL     1      -0.768   1.648  -0.625  0.00  0.00    +0.013 A 
ATOM      6  C   UNL     1      -0.916   3.031  -0.504  0.00  0.00    +0.036 A 
ENDROOT
BRANCH   6   7
ATOM      7  C   UNL     1      -2.232   3.658  -0.723  0.00  0.00    +0.142 C 
ATOM      8  N   UNL     1      -2.345   4.951  -0.715  0.00  0.00    -0.187 NA
BRANCH   8   9
ATOM      9  N   UNL     1      -3.603   5.545  -0.876  0.00  0.00    -0.202 N 
ATOM     10  C   UNL     1      -3.706   6.885  -0.987  0.00  0.00    +0.272 C 
ATOM     11  O   UNL     1      -2.701   7.572  -1.028  0.00  0.00    -0.268 OA
ATOM     12  H   UNL     1      -4.400   4.993  -0.908  0.00  0.00    +0.178 HD
BRANCH  10  13
ATOM     13  C   UNL     1      -5.024   7.513  -1.057  0.00  0.00    +0.100 A 
ATOM     14  C   UNL     1      -5.362   8.854  -1.166  0.00  0.00    +0.060 A 
ATOM     15  N   UNL     1      -6.633   9.161  -1.215  0.00  0.00    -0.230 NA
ATOM     16  C   UNL     1      -7.574   8.230  -1.152  0.00  0.00    +0.156 A 
ATOM     17  S   UNL     1      -6.648   6.767  -1.019  0.00  0.00    -0.048 S 
ATOM     18  N   UNL     1      -8.943   8.384  -1.184  0.00  0.00    -0.337 N 
ATOM     19  C   UNL     1      -4.301   9.922  -1.229  0.00  0.00    +0.067 C 
ATOM     20  H   UNL     1      -9.520   7.607  -1.128  0.00  0.00    +0.144 HD
ATOM     21  H   UNL     1      -9.329   9.271  -1.261  0.00  0.00    +0.144 HD
ENDBRANCH  10  13
ENDBRANCH   8   9
ENDBRANCH   6   7
BRANCH   1  22
ATOM     22  O   UNL     1       0.064   5.168  -0.064  0.00  0.00    -0.487 OA
BRANCH  22  23
ATOM     23  C   UNL     1       1.261   5.921   0.144  0.00  0.00    +0.264 C 
BRANCH  23  30
ATOM     24  C   UNL     1       3.354   7.897   0.385  0.00  0.00    +0.044 C 
ATOM     25  C   UNL     1       1.910   8.309   0.515  0.00  0.00    -0.044 A 
ATOM     26  C   UNL     1       1.587   9.633   0.748  0.00  0.00    +0.004 A 
ATOM     27  C   UNL     1       0.263  10.011   0.866  0.00  0.00    +0.000 A 
ATOM     28  C   UNL     1      -0.739   9.065   0.751  0.00  0.00    +0.000 A 
ATOM     29  C   UNL     1      -0.416   7.742   0.512  0.00  0.00    +0.007 A 
ATOM     30  C   UNL     1       0.909   7.364   0.399  0.00  0.00    -0.007 A 
ENDBRANCH  23  30
ENDBRANCH  22  23
ENDBRANCH   1  22
TORSDOF 6
