REMARK  Name = ZINC66909067
REMARK  9 active torsions:
REMARK  status: ('A' for Active; 'I' for Inactive)
REMARK    1  A    between atoms: C_1  and  C_2
REMARK    2  A    between atoms: C_2  and  C_3
REMARK    3  A    between atoms: C_2  and  O_4
REMARK    4  A    between atoms: O_4  and  C_5
REMARK    5  A    between atoms: C_8  and  C_11
REMARK    6  A    between atoms: C_11  and  N_12
REMARK    7  A    between atoms: N_15  and  C_16
REMARK    8  A    between atoms: C_16  and  C_17
REMARK    9  A    between atoms: C_17  and  O_27
REMARK                            x       y       z     vdW  Elec       q    Type
REMARK                         _______ _______ _______ _____ _____    ______ ____
ROOT
ATOM      1  N   UNL     1      -2.956   0.064   6.230  0.00  0.00    -0.295 N 
ATOM      2  C   UNL     1      -3.573   0.045   7.428  0.00  0.00    +0.300 C 
ATOM      3  O   UNL     1      -4.244  -0.916   7.751  0.00  0.00    -0.253 OA
ATOM      4  N   UNL     1      -3.446   1.092   8.268  0.00  0.00    -0.296 N 
ATOM      5  H   UNL     1      -2.420   0.831   5.973  0.00  0.00    +0.151 HD
ATOM      6  H   UNL     1      -2.911   1.858   8.011  0.00  0.00    +0.150 HD
ENDROOT
BRANCH   1   7
ATOM      7  C   UNL     1      -3.093  -1.073   5.317  0.00  0.00    +0.142 C 
BRANCH   7  11
ATOM      8  C   UNL     1      -0.969  -0.282   1.748  0.00  0.00    +0.215 A 
ATOM      9  C   UNL     1      -0.301  -0.921   2.785  0.00  0.00    +0.067 A 
ATOM     10  C   UNL     1      -0.982  -1.188   3.961  0.00  0.00    +0.012 A 
ATOM     11  C   UNL     1      -2.312  -0.803   4.057  0.00  0.00    -0.012 A 
ATOM     12  C   UNL     1      -2.912  -0.171   2.986  0.00  0.00    +0.119 A 
ATOM     13  N   UNL     1      -2.236   0.074   1.880  0.00  0.00    -0.221 NA
BRANCH   8  14
ATOM     14  O   UNL     1      -0.312  -0.014   0.591  0.00  0.00    -0.474 OA
BRANCH  14  16
ATOM     15  C   UNL     1      -0.902   2.165  -0.272  0.00  0.00    +0.051 C 
ATOM     16  C   UNL     1      -1.052   0.651  -0.435  0.00  0.00    +0.169 C 
ATOM     17  C   UNL     1      -0.515   0.230  -1.804  0.00  0.00    +0.051 C 
ENDBRANCH  14  16
ENDBRANCH   8  14
ENDBRANCH   7  11
ENDBRANCH   1   7
BRANCH   4  18
ATOM     18  C   UNL     1      -4.117   1.071   9.570  0.00  0.00    +0.145 C 
BRANCH  18  19
ATOM     19  C   UNL     1      -3.926   2.421  10.264  0.00  0.00    +0.107 C 
ATOM     20  C   UNL     1      -4.469   3.531   9.366  0.00  0.00    +0.041 C 
ATOM     21  C   UNL     1      -4.469   4.841  10.162  0.00  0.00    +0.008 C 
ATOM     22  C   UNL     1      -5.544   4.748  11.243  0.00  0.00    +0.035 C 
ATOM     23  C   UNL     1      -5.389   3.477  12.037  0.00  0.00    -0.041 A 
ATOM     24  C   UNL     1      -4.649   2.407  11.586  0.00  0.00    -0.011 A 
ATOM     25  C   UNL     1      -4.551   1.262  12.365  0.00  0.00    +0.007 A 
ATOM     26  C   UNL     1      -5.186   1.189  13.587  0.00  0.00    +0.000 A 
ATOM     27  C   UNL     1      -5.925   2.264  14.042  0.00  0.00    +0.000 A 
ATOM     28  C   UNL     1      -6.026   3.403  13.269  0.00  0.00    +0.004 A 
BRANCH  19  29
ATOM     29  O   UNL     1      -2.532   2.640  10.492  0.00  0.00    -0.382 OA
ATOM     30  H   UNL     1      -2.114   1.969  11.049  0.00  0.00    +0.211 HD
ENDBRANCH  19  29
ENDBRANCH  18  19
ENDBRANCH   4  18
TORSDOF 7
