REMARK  Name = ZINC63795892
REMARK  6 active torsions:
REMARK  status: ('A' for Active; 'I' for Inactive)
REMARK    1  A    between atoms: C_1  and  C_2
REMARK    2  A    between atoms: C_2  and  C_3
REMARK    3  A    between atoms: C_2  and  C_4
REMARK    4  A    between atoms: C_10  and  N_15
REMARK    5  A    between atoms: C_16  and  C_18
REMARK    6  A    between atoms: C_18  and  C_19
REMARK                            x       y       z     vdW  Elec       q    Type
REMARK                         _______ _______ _______ _____ _____    ______ ____
ROOT
ATOM      1  N   UNL     1      -1.696  -2.742  -5.098  0.00  0.00    -0.285 N 
ATOM      2  C   UNL     1      -0.516  -3.305  -5.424  0.00  0.00    +0.221 C 
ATOM      3  O   UNL     1       0.180  -3.798  -4.562  0.00  0.00    -0.275 OA
ATOM      4  H   UNL     1      -2.286  -2.412  -5.794  0.00  0.00    +0.155 HD
ENDROOT
BRANCH   1   9
ATOM      5  C   UNL     1      -1.516  -0.464  -0.014  0.00  0.00    +0.176 C 
ATOM      6  N   UNL     1      -2.261  -0.030  -1.214  0.00  0.00    -0.283 NA
ATOM      7  C   UNL     1      -2.749  -1.273  -1.819  0.00  0.00    +0.129 C 
ATOM      8  C   UNL     1      -2.349  -1.415  -3.264  0.00  0.00    +0.021 C 
ATOM      9  C   UNL     1      -2.072  -2.633  -3.753  0.00  0.00    +0.031 C 
ATOM     10  C   UNL     1      -2.142  -3.855  -2.946  0.00  0.00    +0.025 C 
ATOM     11  C   UNL     1      -2.112  -3.774  -1.584  0.00  0.00    +0.026 C 
ATOM     12  C   UNL     1      -2.074  -2.398  -1.054  0.00  0.00    +0.059 C 
ATOM     13  N   UNL     1      -1.441  -1.927  -0.044  0.00  0.00    -0.267 NA
ATOM     14  H   UNL     1      -3.027   0.576  -0.963  0.00  0.00    +0.125 HD
BRANCH   5  16
ATOM     15  C   UNL     1      -0.193   1.655  -0.045  0.00  0.00    +0.011 C 
ATOM     16  C   UNL     1      -0.105   0.128  -0.036  0.00  0.00    +0.022 C 
ATOM     17  C   UNL     1       0.660  -0.331   1.207  0.00  0.00    +0.011 C 
ENDBRANCH   5  16
ENDBRANCH   1   9
BRANCH   2  18
ATOM     18  C   UNL     1      -0.062  -3.322  -6.861  0.00  0.00    +0.129 C 
BRANCH  18  19
ATOM     19  C   UNL     1       1.279  -4.003  -6.956  0.00  0.00    -0.033 C 
ATOM     20  C   UNL     1       1.511  -5.303  -7.250  0.00  0.00    -0.001 A 
ATOM     21  C   UNL     1       0.620  -6.428  -7.556  0.00  0.00    +0.010 A 
ATOM     22  C   UNL     1       1.159  -7.641  -7.814  0.00  0.00    +0.001 A 
ATOM     23  C   UNL     1       2.545  -7.850  -7.796  0.00  0.00    +0.002 A 
ATOM     24  C   UNL     1       3.428  -6.866  -7.523  0.00  0.00    +0.026 A 
ATOM     25  C   UNL     1       2.971  -5.550  -7.237  0.00  0.00    +0.043 A 
ATOM     26  N   UNL     1       3.616  -4.446  -6.947  0.00  0.00    -0.380 N 
ATOM     27  C   UNL     1       2.637  -3.371  -6.748  0.00  0.00    +0.145 C 
ATOM     28  H   UNL     1       4.579  -4.354  -6.879  0.00  0.00    +0.160 HD
ENDBRANCH  18  19
ENDBRANCH   2  18
TORSDOF 4
