REMARK  Name = ZINC08922190
REMARK  5 active torsions:
REMARK  status: ('A' for Active; 'I' for Inactive)
REMARK    1  A    between atoms: C_1  and  C_2
REMARK    2  A    between atoms: C_2  and  C_4
REMARK    3  A    between atoms: C_2  and  N_13
REMARK    4  A    between atoms: C_14  and  C_16
REMARK    5  A    between atoms: C_16  and  N_17
REMARK                            x       y       z     vdW  Elec       q    Type
REMARK                         _______ _______ _______ _____ _____    ______ ____
ROOT
ATOM      1  N   UNL     1      -0.360   7.273  -1.626  0.00  0.00    -0.304 N 
ATOM      2  C   UNL     1      -0.258   5.951  -1.387  0.00  0.00    +0.234 C 
ATOM      3  O   UNL     1      -0.208   5.169  -2.313  0.00  0.00    -0.274 OA
ATOM      4  H   UNL     1      -0.401   7.898  -0.885  0.00  0.00    +0.149 HD
ENDROOT
BRANCH   1   6
ATOM      5  C   UNL     1       1.014   7.928  -3.540  0.00  0.00    +0.036 C 
ATOM      6  C   UNL     1      -0.410   7.766  -3.004  0.00  0.00    +0.136 C 
BRANCH   6   7
ATOM      7  C   UNL     1      -1.113   9.099  -3.036  0.00  0.00    +0.126 A 
ATOM      8  C   UNL     1      -1.977   9.489  -3.984  0.00  0.00    +0.055 A 
ATOM      9  C   UNL     1      -2.410  10.841  -3.611  0.00  0.00    +0.020 A 
ATOM     10  C   UNL     1      -3.283  11.773  -4.170  0.00  0.00    +0.011 A 
ATOM     11  C   UNL     1      -3.467  12.982  -3.558  0.00  0.00    +0.001 A 
ATOM     12  C   UNL     1      -2.790  13.285  -2.385  0.00  0.00    +0.004 A 
ATOM     13  C   UNL     1      -1.923  12.376  -1.818  0.00  0.00    +0.047 A 
ATOM     14  C   UNL     1      -1.722  11.142  -2.424  0.00  0.00    +0.135 A 
ATOM     15  O   UNL     1      -0.961  10.072  -2.120  0.00  0.00    -0.458 OA
ENDBRANCH   6   7
ENDBRANCH   1   6
BRANCH   2  16
ATOM     16  C   UNL     1      -0.207   5.443   0.031  0.00  0.00    +0.222 C 
BRANCH  16  17
ATOM     17  N   UNL     1      -0.097   3.982   0.023  0.00  0.00    -0.285 N 
ATOM     18  C   UNL     1       1.157   3.388   0.009  0.00  0.00    +0.059 A 
ATOM     19  C   UNL     1       2.319   4.144   0.002  0.00  0.00    +0.027 A 
ATOM     20  C   UNL     1       3.547   3.513  -0.012  0.00  0.00    +0.002 A 
ATOM     21  C   UNL     1       3.631   2.129  -0.019  0.00  0.00    +0.001 A 
ATOM     22  C   UNL     1       2.485   1.361  -0.013  0.00  0.00    +0.015 A 
ATOM     23  C   UNL     1       1.240   1.985   0.001  0.00  0.00    +0.063 A 
ATOM     24  C   UNL     1      -0.014   1.212   0.009  0.00  0.00    +0.262 A 
ATOM     25  O   UNL     1       0.002  -0.004   0.002  0.00  0.00    -0.267 OA
ATOM     26  N   UNL     1      -1.183   1.889   0.018  0.00  0.00    -0.274 N 
ATOM     27  H   UNL     1      -2.044   1.380   0.015  0.00  0.00    +0.173 HD
ATOM     28  C   UNL     1      -1.211   3.231   0.030  0.00  0.00    +0.330 A 
ATOM     29  O   UNL     1      -2.290   3.790   0.043  0.00  0.00    -0.246 OA
ENDBRANCH  16  17
ENDBRANCH   2  16
TORSDOF 4
