REMARK  Name = ZINC04952582
REMARK  7 active torsions:
REMARK  status: ('A' for Active; 'I' for Inactive)
REMARK    1  A    between atoms: C_1  and  C_2
REMARK    2  A    between atoms: C_2  and  N_3
REMARK    3  A    between atoms: C_7  and  C_9
REMARK    4  A    between atoms: C_9  and  N_10
REMARK    5  A    between atoms: C_11  and  C_13
REMARK    6  A    between atoms: C_23  and  C_24
REMARK    7  A    between atoms: C_27  and  C_30
REMARK                            x       y       z     vdW  Elec       q    Type
REMARK                         _______ _______ _______ _____ _____    ______ ____
ROOT
ATOM      1  C   UNL     1       3.455  -1.461   2.478  0.00  0.00    +0.039 A 
ATOM      2  C   UNL     1       2.549  -0.875   3.367  0.00  0.00    +0.014 A 
ATOM      3  C   UNL     1       2.958  -0.551   4.641  0.00  0.00    +0.017 A 
ATOM      4  C   UNL     1       4.263  -0.804   5.041  0.00  0.00    +0.034 A 
ATOM      5  C   UNL     1       5.183  -1.392   4.165  0.00  0.00    +0.048 A 
ATOM      6  C   UNL     1       4.765  -1.721   2.881  0.00  0.00    +0.037 A 
ATOM      7  N   UNL     1       6.496  -1.669   4.523  0.00  0.00    -0.280 N 
ATOM      8  C   UNL     1       6.975  -1.793   5.764  0.00  0.00    +0.255 C 
ATOM      9  O   UNL     1       8.132  -2.127   5.934  0.00  0.00    -0.269 OA
ATOM     10  C   UNL     1       6.109  -1.527   6.934  0.00  0.00    +0.075 C 
ATOM     11  C   UNL     1       6.320  -2.124   8.132  0.00  0.00    +0.028 C 
ATOM     12  S   UNL     1       4.779  -0.382   6.679  0.00  0.00    -0.082 S 
ATOM     13  H   UNL     1       7.130  -1.784   3.799  0.00  0.00    +0.155 HD
ENDROOT
BRANCH  11  14
ATOM     14  C   UNL     1       7.314  -3.201   8.252  0.00  0.00    -0.024 A 
ATOM     15  C   UNL     1       8.072  -3.331   9.421  0.00  0.00    +0.008 A 
ATOM     16  C   UNL     1       9.002  -4.343   9.525  0.00  0.00    +0.004 A 
ATOM     17  C   UNL     1       9.187  -5.229   8.478  0.00  0.00    -0.050 A 
ATOM     18  C   UNL     1       8.441  -5.107   7.319  0.00  0.00    +0.004 A 
ATOM     19  C   UNL     1       7.503  -4.104   7.200  0.00  0.00    +0.008 A 
ATOM     20  C   UNL     1      10.207  -6.332   8.601  0.00  0.00    +0.044 C 
ENDBRANCH  11  14
BRANCH   1  22
ATOM     21  N   UNL     1       1.758  -1.560   0.720  0.00  0.00    -0.313 N 
ATOM     22  C   UNL     1       3.023  -1.810   1.111  0.00  0.00    +0.244 C 
ATOM     23  O   UNL     1       3.808  -2.324   0.338  0.00  0.00    -0.270 OA
ATOM     24  H   UNL     1       1.131  -1.150   1.337  0.00  0.00    +0.149 HD
BRANCH  21  25
ATOM     25  C   UNL     1       1.329  -1.906  -0.638  0.00  0.00    +0.089 C 
BRANCH  25  30
ATOM     26  N   UNL     1      -0.520  -1.700  -2.247  0.00  0.00    +0.382 N 
ATOM     27  C   UNL     1      -1.684  -2.610  -2.205  0.00  0.00    -0.078 C 
ATOM     28  C   UNL     1      -2.324  -2.372  -0.815  0.00  0.00    -0.020 C 
ATOM     29  C   UNL     1      -1.070  -2.161   0.075  0.00  0.00    -0.016 C 
ATOM     30  C   UNL     1      -0.101  -1.411  -0.863  0.00  0.00    -0.051 C 
ATOM     31  H   UNL     1      -0.779  -0.842  -2.709  0.00  0.00    -0.081 HD
BRANCH  26  33
ATOM     32  C   UNL     1       0.187  -2.531  -4.439  0.00  0.00    -0.017 C 
ATOM     33  C   UNL     1       0.584  -2.341  -2.973  0.00  0.00    -0.082 C 
ENDBRANCH  26  33
ENDBRANCH  25  30
ENDBRANCH  21  25
ENDBRANCH   1  22
TORSDOF 5
