REMARK  Name = ZINC44165862
REMARK  9 active torsions:
REMARK  status: ('A' for Active; 'I' for Inactive)
REMARK    1  A    between atoms: C_1  and  C_2
REMARK    2  A    between atoms: C_2  and  C_3
REMARK    3  A    between atoms: C_3  and  C_4
REMARK    4  A    between atoms: C_4  and  C_5
REMARK    5  A    between atoms: C_5  and  C_6
REMARK    6  A    between atoms: C_9  and  C_12
REMARK    7  A    between atoms: C_17  and  C_20
REMARK    8  A    between atoms: N_22  and  C_23
REMARK    9  A    between atoms: C_23  and  C_24
REMARK                            x       y       z     vdW  Elec       q    Type
REMARK                         _______ _______ _______ _____ _____    ______ ____
ROOT
ATOM      1  C   UNL     1       1.534  -8.299  -2.556  0.00  0.00    -0.030 C 
ATOM      2  C   UNL     1       0.621  -8.828  -1.444  0.00  0.00    +0.058 C 
ATOM      3  S   UNL     1       0.721 -10.645  -1.439  0.00  0.00    -0.163 S 
ATOM      4  C   UNL     1       0.451 -11.064  -3.190  0.00  0.00    +0.062 C 
ATOM      5  C   UNL     1       1.389 -10.200  -4.041  0.00  0.00    +0.027 C 
ATOM      6  N   UNL     1       1.065  -8.784  -3.856  0.00  0.00    +0.392 N 
ATOM      7  H   UNL     1       0.065  -8.663  -3.913  0.00  0.00    -0.084 HD
ATOM      8  H   UNL     1       1.504  -8.246  -4.588  0.00  0.00    -0.084 HD
ENDROOT
BRANCH   1  12
ATOM      9  C   UNL     1       1.476  -4.028  -2.532  0.00  0.00    -0.047 A 
ATOM     10  C   UNL     1       2.524  -4.708  -1.942  0.00  0.00    +0.004 A 
ATOM     11  C   UNL     1       2.543  -6.090  -1.950  0.00  0.00    +0.002 A 
ATOM     12  C   UNL     1       1.513  -6.792  -2.547  0.00  0.00    -0.061 A 
ATOM     13  C   UNL     1       0.464  -6.112  -3.136  0.00  0.00    +0.002 A 
ATOM     14  C   UNL     1       0.443  -4.730  -3.125  0.00  0.00    +0.004 A 
BRANCH   9  15
ATOM     15  C   UNL     1       1.455  -2.521  -2.524  0.00  0.00    +0.035 C 
BRANCH  15  16
ATOM     16  C   UNL     1       0.739  -2.027  -1.265  0.00  0.00    +0.005 C 
BRANCH  16  17
ATOM     17  C   UNL     1       0.718  -0.497  -1.257  0.00  0.00    +0.000 C 
BRANCH  17  19
ATOM     18  C   UNL     1      -0.019   1.526   0.010  0.00  0.00    +0.004 C 
ATOM     19  C   UNL     1       0.002  -0.004   0.002  0.00  0.00    -0.003 C 
ENDBRANCH  17  19
ENDBRANCH  16  17
ENDBRANCH  15  16
ENDBRANCH   9  15
ENDBRANCH   1  12
BRANCH   5  20
ATOM     20  C   UNL     1       1.225 -10.565  -5.494  0.00  0.00    +0.200 C 
ATOM     21  O   UNL     1       0.867  -9.725  -6.293  0.00  0.00    -0.278 OA
ATOM     22  N   UNL     1       1.476 -11.823  -5.906  0.00  0.00    -0.313 N 
ATOM     23  H   UNL     1       1.762 -12.494  -5.267  0.00  0.00    +0.149 HD
BRANCH  22  24
ATOM     24  C   UNL     1       1.316 -12.177  -7.318  0.00  0.00    +0.139 C 
BRANCH  24  25
ATOM     25  C   UNL     1       1.656 -13.632  -7.513  0.00  0.00    -0.027 A 
ATOM     26  C   UNL     1       2.956 -14.005  -7.800  0.00  0.00    +0.008 A 
ATOM     27  C   UNL     1       3.270 -15.339  -7.979  0.00  0.00    +0.041 A 
ATOM     28  C   UNL     1       2.283 -16.303  -7.871  0.00  0.00    +0.158 A 
ATOM     29  C   UNL     1       0.980 -15.930  -7.582  0.00  0.00    +0.159 A 
ATOM     30  C   UNL     1       0.669 -14.593  -7.399  0.00  0.00    +0.046 A 
ATOM     31  F   UNL     1       0.014 -16.869  -7.477  0.00  0.00    -0.202 F 
ATOM     32  F   UNL     1       2.590 -17.607  -8.046  0.00  0.00    -0.202 F 
ENDBRANCH  24  25
ENDBRANCH  22  24
ENDBRANCH   5  20
TORSDOF 8
