REMARK  Name = ZINC14802472
REMARK  11 active torsions:
REMARK  status: ('A' for Active; 'I' for Inactive)
REMARK    1  A    between atoms: C_1  and  C_2
REMARK    2  A    between atoms: C_5  and  C_9
REMARK    3  A    between atoms: C_6  and  C_8
REMARK    4  A    between atoms: N_11  and  N_12
REMARK    5  A    between atoms: C_13  and  C_15
REMARK    6  A    between atoms: C_15  and  C_17
REMARK    7  A    between atoms: C_15  and  N_18
REMARK    8  A    between atoms: N_18  and  S_19
REMARK    9  A    between atoms: S_19  and  C_22
REMARK   10  A    between atoms: C_25  and  N_28
REMARK   11  A    between atoms: C_29  and  C_31
REMARK                            x       y       z     vdW  Elec       q    Type
REMARK                         _______ _______ _______ _____ _____    ______ ____
ROOT
ATOM      1  C   UNL     1      -4.577   5.268   2.450  0.00  0.00    +0.160 C 
ATOM      2  C   UNL     1      -5.399   6.558   2.393  0.00  0.00    +0.035 C 
ENDROOT
BRANCH   1   4
ATOM      3  N   UNL     1      -3.869   5.614   4.794  0.00  0.00    -0.233 N 
ATOM      4  C   UNL     1      -4.455   4.814   3.881  0.00  0.00    +0.247 C 
ATOM      5  O   UNL     1      -4.883   3.729   4.212  0.00  0.00    -0.273 OA
ATOM      6  H   UNL     1      -3.526   6.482   4.530  0.00  0.00    +0.173 HD
BRANCH   3   9
ATOM      7  C   UNL     1      -3.169   5.992   7.038  0.00  0.00    +0.260 C 
ATOM      8  O   UNL     1      -2.740   7.079   6.707  0.00  0.00    -0.269 OA
ATOM      9  N   UNL     1      -3.755   5.192   6.125  0.00  0.00    -0.230 N 
ATOM     10  H   UNL     1      -4.098   4.324   6.390  0.00  0.00    +0.173 HD
BRANCH   7  15
ATOM     11  C   UNL     1      -2.700   4.256  12.505  0.00  0.00    +0.044 C 
ATOM     12  C   UNL     1      -2.823   4.711  11.073  0.00  0.00    -0.050 A 
ATOM     13  C   UNL     1      -3.540   3.949  10.168  0.00  0.00    +0.004 A 
ATOM     14  C   UNL     1      -3.656   4.359   8.856  0.00  0.00    +0.013 A 
ATOM     15  C   UNL     1      -3.049   5.546   8.443  0.00  0.00    +0.041 A 
ATOM     16  C   UNL     1      -2.322   6.307   9.360  0.00  0.00    -0.038 A 
ATOM     17  C   UNL     1      -2.217   5.888  10.670  0.00  0.00    +0.007 A 
ATOM     18  C   UNL     1      -1.657   7.586   8.921  0.00  0.00    +0.044 C 
ENDBRANCH   7  15
ENDBRANCH   3   9
ENDBRANCH   1   4
BRANCH   1  19
ATOM     19  N   UNL     1      -5.246   4.229   1.663  0.00  0.00    -0.178 NA
ATOM     20  H   UNL     1      -5.946   3.691   2.065  0.00  0.00    +0.149 HD
BRANCH  19  21
ATOM     21  S   UNL     1      -4.806   3.971   0.087  0.00  0.00    +0.059 S 
ATOM     22  O   UNL     1      -4.790   5.245  -0.543  0.00  0.00    -0.153 OA
ATOM     23  O   UNL     1      -5.605   2.897  -0.387  0.00  0.00    -0.153 OA
BRANCH  21  24
ATOM     24  C   UNL     1      -3.141   3.394   0.099  0.00  0.00    +0.105 A 
ATOM     25  C   UNL     1      -2.881   2.038   0.178  0.00  0.00    +0.030 A 
ATOM     26  C   UNL     1      -1.578   1.583   0.186  0.00  0.00    +0.025 A 
ATOM     27  C   UNL     1      -0.527   2.488   0.115  0.00  0.00    +0.033 A 
ATOM     28  C   UNL     1      -0.791   3.849   0.042  0.00  0.00    +0.025 A 
ATOM     29  C   UNL     1      -2.097   4.298   0.028  0.00  0.00    +0.030 A 
BRANCH  27  30
ATOM     30  N   UNL     1       0.795   2.029   0.123  0.00  0.00    -0.286 N 
ATOM     31  C   UNL     1       1.739   2.682  -0.584  0.00  0.00    +0.214 C 
ATOM     32  O   UNL     1       1.427   3.612  -1.297  0.00  0.00    -0.276 OA
ATOM     33  C   UNL     1       3.181   2.256  -0.488  0.00  0.00    +0.109 C 
ATOM     34  H   UNL     1       1.031   1.239   0.634  0.00  0.00    +0.155 HD
ENDBRANCH  27  30
ENDBRANCH  21  24
ENDBRANCH  19  21
ENDBRANCH   1  19
TORSDOF 7
