REMARK  Name = ZINC08748118
REMARK  5 active torsions:
REMARK  status: ('A' for Active; 'I' for Inactive)
REMARK    1  A    between atoms: C_1  and  O_2
REMARK    2  A    between atoms: O_2  and  C_3
REMARK    3  A    between atoms: C_3  and  C_5
REMARK    4  A    between atoms: C_6  and  N_28
REMARK    5  A    between atoms: C_19  and  C_21
REMARK                            x       y       z     vdW  Elec       q    Type
REMARK                         _______ _______ _______ _____ _____    ______ ____
ROOT
ATOM      1  C   UNL     1      -3.846   1.032  -1.012  0.00  0.00    +0.105 C 
ATOM      2  C   UNL     1      -4.346   2.295  -1.090  0.00  0.00    +0.195 C 
ATOM      3  O   UNL     1      -4.082   3.187  -0.130  0.00  0.00    -0.441 OA
ATOM      4  C   UNL     1      -3.812   2.782   1.151  0.00  0.00    +0.146 A 
ATOM      5  C   UNL     1      -4.158   3.794   2.159  0.00  0.00    +0.032 A 
ATOM      6  C   UNL     1      -4.722   5.012   1.735  0.00  0.00    +0.012 A 
ATOM      7  C   UNL     1      -5.050   5.967   2.650  0.00  0.00    +0.001 A 
ATOM      8  C   UNL     1      -4.842   5.773   4.009  0.00  0.00    +0.001 A 
ATOM      9  C   UNL     1      -4.290   4.588   4.459  0.00  0.00    +0.016 A 
ATOM     10  C   UNL     1      -3.956   3.617   3.539  0.00  0.00    +0.026 A 
ATOM     11  S   UNL     1      -3.245   2.062   4.011  0.00  0.00    -0.047 S 
ATOM     12  C   UNL     1      -2.925   1.010   2.609  0.00  0.00    +0.225 A 
ATOM     13  O   UNL     1      -2.437  -0.102   2.726  0.00  0.00    -0.280 OA
ATOM     14  C   UNL     1      -3.277   1.556   1.343  0.00  0.00    +0.061 A 
ATOM     15  C   UNL     1      -3.001   0.642   0.165  0.00  0.00    +0.099 C 
ENDROOT
BRANCH  15  16
ATOM     16  C   UNL     1      -1.545   0.741  -0.212  0.00  0.00    -0.035 A 
ATOM     17  C   UNL     1      -0.743  -0.384  -0.172  0.00  0.00    +0.007 A 
ATOM     18  C   UNL     1       0.591  -0.295  -0.523  0.00  0.00    +0.038 A 
ATOM     19  C   UNL     1       1.125   0.922  -0.910  0.00  0.00    +0.123 A 
ATOM     20  C   UNL     1       0.322   2.050  -0.945  0.00  0.00    +0.038 A 
ATOM     21  C   UNL     1      -1.012   1.958  -0.593  0.00  0.00    +0.007 A 
ATOM     22  F   UNL     1       2.429   1.010  -1.254  0.00  0.00    -0.205 F 
ENDBRANCH  15  16
BRANCH   2  23
ATOM     23  N   UNL     1      -5.125   2.654  -2.157  0.00  0.00    -0.329 N 
ATOM     24  H   UNL     1      -5.872   3.260  -2.031  0.00  0.00    +0.145 HD
ATOM     25  H   UNL     1      -4.930   2.302  -3.040  0.00  0.00    +0.145 HD
ENDBRANCH   2  23
BRANCH   1  26
ATOM     26  C   UNL     1      -4.119   0.101  -2.025  0.00  0.00    +0.341 C 
ATOM     27  O   UNL     1      -4.726   0.446  -3.023  0.00  0.00    -0.245 OA
BRANCH  26  29
ATOM     28  C   UNL     1      -4.020  -2.074  -2.965  0.00  0.00    +0.280 C 
ATOM     29  O   UNL     1      -3.708  -1.179  -1.894  0.00  0.00    -0.465 OA
ENDBRANCH  26  29
ENDBRANCH   1  26
TORSDOF 4
