REMARK  Name = ZINC17067902
REMARK  4 active torsions:
REMARK  status: ('A' for Active; 'I' for Inactive)
REMARK    1  A    between atoms: C_1  and  C_2
REMARK    2  A    between atoms: C_5  and  N_9
REMARK    3  A    between atoms: C_10  and  C_12
REMARK    4  A    between atoms: C_12  and  C_13
REMARK                            x       y       z     vdW  Elec       q    Type
REMARK                         _______ _______ _______ _____ _____    ______ ____
ROOT
ATOM      1  C   UNL     1      -4.931   4.541  -0.143  0.00  0.00    +0.129 C 
ENDROOT
BRANCH   1   2
ATOM      2  C   UNL     1      -6.082   3.538  -0.238  0.00  0.00    +0.189 C 
ATOM      3  C   UNL     1      -7.411   4.269  -0.213  0.00  0.00    +0.333 C 
ATOM      4  O   UNL     1      -8.173   4.157   0.719  0.00  0.00    -0.248 OA
ATOM      5  O   UNL     1      -7.707   5.048  -1.273  0.00  0.00    -0.423 OA
ATOM      6  C   UNL     1      -7.408   4.551  -2.504  0.00  0.00    +0.152 A 
ATOM      7  C   UNL     1      -7.954   5.152  -3.629  0.00  0.00    +0.048 A 
ATOM      8  C   UNL     1      -7.655   4.667  -4.888  0.00  0.00    +0.004 A 
ATOM      9  C   UNL     1      -6.812   3.580  -5.034  0.00  0.00    +0.002 A 
ATOM     10  C   UNL     1      -6.267   2.972  -3.919  0.00  0.00    +0.026 A 
ATOM     11  C   UNL     1      -6.565   3.453  -2.652  0.00  0.00    +0.071 A 
ATOM     12  N   UNL     1      -6.021   2.819  -1.524  0.00  0.00    -0.328 N 
ATOM     13  H   UNL     1      -5.618   1.939  -1.589  0.00  0.00    +0.147 HD
ENDBRANCH   1   2
BRANCH   1  15
ATOM     14  N   UNL     1      -2.465   4.480   0.049  0.00  0.00    -0.285 N 
ATOM     15  C   UNL     1      -3.623   3.797  -0.045  0.00  0.00    +0.220 C 
ATOM     16  O   UNL     1      -3.614   2.584  -0.051  0.00  0.00    -0.275 OA
ATOM     17  H   UNL     1      -2.477   5.447   0.121  0.00  0.00    +0.155 HD
BRANCH  14  22
ATOM     18  C   UNL     1       2.478   1.695   0.023  0.00  0.00    +0.045 C 
ATOM     19  C   UNL     1       1.165   2.435   0.029  0.00  0.00    -0.032 A 
ATOM     20  C   UNL     1       0.059   1.871   0.637  0.00  0.00    +0.006 A 
ATOM     21  C   UNL     1      -1.146   2.546   0.645  0.00  0.00    +0.023 A 
ATOM     22  C   UNL     1      -1.246   3.794   0.042  0.00  0.00    +0.035 A 
ATOM     23  C   UNL     1      -0.132   4.361  -0.563  0.00  0.00    +0.043 A 
ATOM     24  C   UNL     1       1.070   3.678  -0.572  0.00  0.00    +0.046 A 
ATOM     25 CL   UNL     1       2.462   4.382  -1.333  0.00  0.00    -0.083 Cl
ENDBRANCH  14  22
ENDBRANCH   1  15
TORSDOF 3
