REMARK  Name = ZINC13841712
REMARK  6 active torsions:
REMARK  status: ('A' for Active; 'I' for Inactive)
REMARK    1  A    between atoms: C_5  and  C_7
REMARK    2  A    between atoms: C_7  and  O_8
REMARK    3  A    between atoms: O_8  and  C_9
REMARK    4  A    between atoms: C_13  and  C_15
REMARK    5  A    between atoms: N_16  and  N_17
REMARK    6  A    between atoms: C_18  and  C_19
REMARK                            x       y       z     vdW  Elec       q    Type
REMARK                         _______ _______ _______ _____ _____    ______ ____
ROOT
ATOM      1  C   UNL     1       8.359   3.386  -0.048  0.00  0.00    +0.140 C 
ATOM      2  N   UNL     1       9.571   2.897  -0.070  0.00  0.00    -0.180 NA
ENDROOT
BRANCH   1   7
ATOM      3  C   UNL     1       4.819   2.139  -0.009  0.00  0.00    +0.122 A 
ATOM      4  C   UNL     1       5.020   0.765  -0.023  0.00  0.00    +0.046 A 
ATOM      5  C   UNL     1       6.303   0.248  -0.046  0.00  0.00    +0.004 A 
ATOM      6  C   UNL     1       7.392   1.094  -0.054  0.00  0.00    +0.010 A 
ATOM      7  C   UNL     1       7.201   2.479  -0.040  0.00  0.00    -0.002 A 
ATOM      8  C   UNL     1       5.903   2.999  -0.022  0.00  0.00    +0.055 A 
BRANCH   3   9
ATOM      9  O   UNL     1       3.555   2.640   0.013  0.00  0.00    -0.487 OA
BRANCH   9  10
ATOM     10  C   UNL     1       2.483   1.695   0.020  0.00  0.00    +0.266 C 
BRANCH  10  15
ATOM     11  C   UNL     1      -0.060   4.485   0.078  0.00  0.00    +0.000 A 
ATOM     12  C   UNL     1      -1.248   3.776   0.089  0.00  0.00    +0.001 A 
ATOM     13  C   UNL     1      -1.228   2.395   0.071  0.00  0.00    +0.020 A 
ATOM     14  C   UNL     1      -0.021   1.720   0.055  0.00  0.00    +0.047 A 
ATOM     15  C   UNL     1       1.167   2.429   0.044  0.00  0.00    +0.008 A 
ATOM     16  C   UNL     1       1.147   3.812   0.056  0.00  0.00    +0.008 A 
ATOM     17 CL   UNL     1       0.005  -0.016   0.039  0.00  0.00    -0.083 Cl
ENDBRANCH  10  15
ENDBRANCH   9  10
ENDBRANCH   3   9
ENDBRANCH   1   7
BRANCH   2  18
ATOM     18  N   UNL     1      10.587   3.692  -0.077  0.00  0.00    -0.263 N 
ATOM     19  C   UNL     1      11.807   3.199  -0.099  0.00  0.00    +0.143 C 
ATOM     20  N   UNL     1      11.999   1.835  -0.114  0.00  0.00    -0.342 N 
ATOM     21  H   UNL     1      13.019   1.423  -0.132  0.00  0.00    +0.144 HD
ATOM     22  H   UNL     1      11.133   1.157  -0.107  0.00  0.00    +0.144 HD
ATOM     23  H   UNL     1      10.434   4.781  -0.066  0.00  0.00    +0.190 HD
BRANCH  19  24
ATOM     24  C   UNL     1      12.970   4.109  -0.108  0.00  0.00    +0.187 A 
ATOM     25  C   UNL     1      12.991   5.588  -0.207  0.00  0.00    +0.191 A 
ATOM     26  N   UNL     1      14.275   5.858  -0.165  0.00  0.00    -0.033 NA
ATOM     27  O   UNL     1      14.901   4.829  -0.073  0.00  0.00    -0.240 OA
ATOM     28  N   UNL     1      14.251   3.811  -0.035  0.00  0.00    -0.044 NA
ATOM     29  N   UNL     1      11.921   6.466  -0.314  0.00  0.00    -0.339 N 
ATOM     30  H   UNL     1      12.104   7.549  -0.379  0.00  0.00    +0.144 HD
ATOM     31  H   UNL     1      10.892   6.080  -0.335  0.00  0.00    +0.144 HD
ENDBRANCH  19  24
ENDBRANCH   2  18
TORSDOF 6
