REMARK  Name = ZINC06571236
REMARK  9 active torsions:
REMARK  status: ('A' for Active; 'I' for Inactive)
REMARK    1  A    between atoms: C_1  and  C_2
REMARK    2  A    between atoms: C_3  and  C_30
REMARK    3  A    between atoms: C_9  and  O_13
REMARK    4  A    between atoms: O_13  and  C_14
REMARK    5  A    between atoms: C_16  and  O_29
REMARK    6  A    between atoms: C_18  and  O_28
REMARK    7  A    between atoms: C_20  and  O_27
REMARK    8  A    between atoms: C_22  and  C_25
REMARK    9  A    between atoms: C_25  and  O_26
REMARK                            x       y       z     vdW  Elec       q    Type
REMARK                         _______ _______ _______ _____ _____    ______ ____
ROOT
ATOM      1  C   UNL     1      -3.602   1.483  -0.171  0.00  0.00    +0.087 C 
ATOM      2  C   UNL     1      -3.701   2.982  -0.050  0.00  0.00    +0.115 A 
ATOM      3  C   UNL     1      -2.579   3.688   0.253  0.00  0.00    +0.085 A 
ATOM      4  C   UNL     1      -2.678   5.152   0.378  0.00  0.00    +0.202 A 
ATOM      5  O   UNL     1      -1.708   5.837   0.653  0.00  0.00    -0.286 OA
ATOM      6  C   UNL     1      -4.006   5.750   0.148  0.00  0.00    +0.065 A 
ATOM      7  C   UNL     1      -4.204   7.129   0.237  0.00  0.00    +0.019 A 
ATOM      8  C   UNL     1      -5.449   7.649   0.025  0.00  0.00    +0.047 A 
ATOM      9  C   UNL     1      -6.519   6.811  -0.280  0.00  0.00    +0.128 A 
ATOM     10  C   UNL     1      -6.338   5.441  -0.372  0.00  0.00    +0.092 A 
ATOM     11  C   UNL     1      -5.079   4.896  -0.159  0.00  0.00    +0.142 A 
ATOM     12  O   UNL     1      -4.885   3.564  -0.245  0.00  0.00    -0.459 OA
ENDROOT
BRANCH   3  13
ATOM     13  C   UNL     1      -1.285   2.997   0.461  0.00  0.00    +0.078 A 
ATOM     14  C   UNL     1      -0.140   3.467  -0.182  0.00  0.00    +0.028 A 
ATOM     15  C   UNL     1       1.061   2.812   0.021  0.00  0.00    +0.004 A 
ATOM     16  C   UNL     1       1.080   1.707   0.862  0.00  0.00    +0.020 A 
ATOM     17  C   UNL     1      -0.092   1.295   1.467  0.00  0.00    +0.111 A 
ATOM     18  N   UNL     1      -1.225   1.934   1.253  0.00  0.00    -0.255 NA
ENDBRANCH   3  13
BRANCH   9  19
ATOM     19  O   UNL     1      -7.751   7.342  -0.490  0.00  0.00    -0.461 OA
BRANCH  19  20
ATOM     20  C   UNL     1      -7.872   8.761  -0.380  0.00  0.00    +0.339 C 
ATOM     21  C   UNL     1      -9.292   9.183  -0.769  0.00  0.00    +0.214 C 
ATOM     22  C   UNL     1     -10.289   8.554   0.209  0.00  0.00    +0.180 C 
ATOM     23  C   UNL     1      -9.926   8.980   1.635  0.00  0.00    +0.177 C 
ATOM     24  C   UNL     1      -8.482   8.565   1.931  0.00  0.00    +0.179 C 
ATOM     25  O   UNL     1      -7.611   9.159   0.967  0.00  0.00    -0.331 OA
BRANCH  23  26
ATOM     26  O   UNL     1     -10.052  10.398   1.757  0.00  0.00    -0.386 OA
ATOM     27  H   UNL     1     -10.942  10.731   1.579  0.00  0.00    +0.210 HD
ENDBRANCH  23  26
BRANCH  22  28
ATOM     28  O   UNL     1     -11.610   9.002  -0.102  0.00  0.00    -0.386 OA
ATOM     29  H   UNL     1     -11.903   8.773  -0.994  0.00  0.00    +0.210 HD
ENDBRANCH  22  28
BRANCH  21  30
ATOM     30  O   UNL     1      -9.399  10.607  -0.711  0.00  0.00    -0.383 OA
ATOM     31  H   UNL     1      -8.792  11.072  -1.303  0.00  0.00    +0.210 HD
ENDBRANCH  21  30
BRANCH  24  32
ATOM     32  C   UNL     1      -8.092   9.040   3.332  0.00  0.00    +0.190 C 
BRANCH  32  33
ATOM     33  O   UNL     1      -6.787   8.553   3.654  0.00  0.00    -0.392 OA
ATOM     34  H   UNL     1      -6.475   8.816   4.530  0.00  0.00    +0.210 HD
ENDBRANCH  32  33
ENDBRANCH  24  32
ENDBRANCH  19  20
ENDBRANCH   9  19
TORSDOF 8
