REMARK  Name = ZINC12448176
REMARK  8 active torsions:
REMARK  status: ('A' for Active; 'I' for Inactive)
REMARK    1  A    between atoms: C_1  and  C_2
REMARK    2  A    between atoms: C_6  and  C_8
REMARK    3  A    between atoms: C_22  and  C_23
REMARK    4  A    between atoms: C_22  and  N_58
REMARK    5  A    between atoms: C_27  and  O_29
REMARK    6  A    between atoms: O_29  and  C_30
REMARK    7  A    between atoms: C_30  and  C_31
REMARK    8  A    between atoms: C_31  and  O_32
REMARK                            x       y       z     vdW  Elec       q    Type
REMARK                         _______ _______ _______ _____ _____    ______ ____
ROOT
ATOM      1  C   UNL     1      -4.043  -0.241   1.451  0.00  0.00    +0.030 C 
ATOM      2  C   UNL     1      -4.489  -0.388   2.886  0.00  0.00    +0.012 A 
ATOM      3  C   UNL     1      -4.157   0.495   3.855  0.00  0.00    -0.022 A 
ATOM      4  C   UNL     1      -4.753   0.025   5.085  0.00  0.00    +0.003 A 
ATOM      5  C   UNL     1      -4.750   0.518   6.394  0.00  0.00    +0.010 A 
ATOM      6  C   UNL     1      -5.440  -0.207   7.333  0.00  0.00    +0.001 A 
ATOM      7  C   UNL     1      -6.112  -1.376   7.013  0.00  0.00    +0.002 A 
ATOM      8  C   UNL     1      -6.132  -1.887   5.727  0.00  0.00    +0.026 A 
ATOM      9  C   UNL     1      -5.440  -1.172   4.752  0.00  0.00    +0.047 A 
ATOM     10  N   UNL     1      -5.258  -1.388   3.416  0.00  0.00    -0.359 N 
ATOM     11  H   UNL     1      -5.620  -2.137   2.918  0.00  0.00    +0.166 HD
ATOM     12  C   UNL     1      -3.314   1.721   3.609  0.00  0.00    +0.019 C 
ATOM     13  C   UNL     1      -3.268   1.969   2.095  0.00  0.00    -0.072 C 
ATOM     14  N   UNL     1      -2.903   0.705   1.418  0.00  0.00    +0.392 N 
ATOM     15  H   UNL     1      -2.106   0.282   1.909  0.00  0.00    -0.080 HD
ENDROOT
BRANCH   1  21
ATOM     16  C   UNL     1      -0.390  -3.368   0.615  0.00  0.00    +0.065 C 
ATOM     17  C   UNL     1      -1.861  -3.052   0.529  0.00  0.00    +0.038 A 
ATOM     18  C   UNL     1      -2.727  -3.979  -0.020  0.00  0.00    +0.023 A 
ATOM     19  C   UNL     1      -4.079  -3.679  -0.094  0.00  0.00    +0.003 A 
ATOM     20  C   UNL     1      -4.510  -2.453   0.388  0.00  0.00    +0.022 A 
ATOM     21  C   UNL     1      -3.586  -1.577   0.923  0.00  0.00    +0.034 A 
ATOM     22  N   UNL     1      -2.306  -1.893   0.973  0.00  0.00    -0.258 NA
ENDBRANCH   1  21
BRANCH  14  23
ATOM     23  C   UNL     1      -2.514   0.977   0.019  0.00  0.00    -0.041 C 
BRANCH  23  24
ATOM     24  C   UNL     1      -1.220   1.750   0.017  0.00  0.00    -0.060 A 
ATOM     25  C   UNL     1      -0.013   1.076   0.008  0.00  0.00    +0.002 A 
ATOM     26  C   UNL     1       1.176   1.782   0.000  0.00  0.00    +0.004 A 
ATOM     27  C   UNL     1       1.160   3.164   0.008  0.00  0.00    +0.045 A 
ATOM     28  C   UNL     1      -0.050   3.842   0.024  0.00  0.00    +0.121 A 
ATOM     29  C   UNL     1      -1.242   3.131   0.031  0.00  0.00    +0.047 A 
BRANCH  28  30
ATOM     30  O   UNL     1      -0.069   5.201   0.031  0.00  0.00    -0.490 OA
BRANCH  30  31
ATOM     31  C   UNL     1       1.196   5.867   0.023  0.00  0.00    +0.256 C 
BRANCH  31  32
ATOM     32  C   UNL     1       0.975   7.381   0.033  0.00  0.00    +0.196 C 
BRANCH  32  33
ATOM     33  O   UNL     1       0.354   7.763   1.262  0.00  0.00    -0.392 OA
ATOM     34  H   UNL     1       0.184   8.712   1.338  0.00  0.00    +0.210 HD
ENDBRANCH  32  33
ENDBRANCH  31  32
ENDBRANCH  30  31
ENDBRANCH  28  30
ENDBRANCH  23  24
ENDBRANCH  14  23
TORSDOF 7
