REMARK  Name = ZINC09915836
REMARK  14 active torsions:
REMARK  status: ('A' for Active; 'I' for Inactive)
REMARK    1  A    between atoms: C_1  and  C_2
REMARK    2  A    between atoms: C_11  and  O_13
REMARK    3  A    between atoms: O_13  and  C_14
REMARK    4  A    between atoms: C_14  and  C_32
REMARK    5  A    between atoms: C_15  and  C_27
REMARK    6  A    between atoms: C_15  and  N_28
REMARK    7  A    between atoms: C_16  and  C_25
REMARK    8  A    between atoms: C_16  and  O_26
REMARK    9  A    between atoms: C_17  and  C_23
REMARK   10  A    between atoms: C_17  and  O_24
REMARK   11  A    between atoms: C_18  and  C_20
REMARK   12  A    between atoms: C_18  and  C_21
REMARK   13  A    between atoms: C_21  and  O_22
REMARK   14  A    between atoms: C_29  and  C_31
REMARK                            x       y       z     vdW  Elec       q    Type
REMARK                         _______ _______ _______ _____ _____    ______ ____
ROOT
ATOM      1  C   UNL     1      -2.071  -0.577   2.531  0.00  0.00    +0.234 C 
ATOM      2  C   UNL     1      -0.618  -0.384   2.945  0.00  0.00    +0.128 C 
ATOM      3  C   UNL     1      -0.095   1.016   2.677  0.00  0.00    +0.121 C 
ATOM      4  C   UNL     1      -0.503   1.604   1.338  0.00  0.00    +0.124 C 
ATOM      5  C   UNL     1      -1.958   1.339   0.973  0.00  0.00    +0.125 C 
ATOM      6  O   UNL     1      -2.395   0.048   1.315  0.00  0.00    -0.326 OA
ATOM      7  C   UNL     1      -2.849   2.416   1.606  0.00  0.00    +0.047 C 
ATOM      8  C   UNL     1       0.409   1.094   0.216  0.00  0.00    +0.047 C 
ATOM      9  C   UNL     1       1.447   0.975   2.738  0.00  0.00    +0.047 C 
ATOM     10  C   UNL     1       0.257  -1.437   2.253  0.00  0.00    +0.041 C 
ATOM     11  C   UNL     1      -2.997  -0.118   3.664  0.00  0.00    +0.091 C 
ENDROOT
BRANCH   2  12
ATOM     12  N   UNL     1      -0.530  -0.633   4.402  0.00  0.00    -0.302 N 
ATOM     13  C   UNL     1      -0.935  -1.814   4.910  0.00  0.00    +0.211 C 
ATOM     14  O   UNL     1      -1.372  -2.673   4.174  0.00  0.00    -0.276 OA
ATOM     15  C   UNL     1      -0.845  -2.067   6.393  0.00  0.00    +0.109 C 
ATOM     16  H   UNL     1      -0.180   0.054   4.991  0.00  0.00    +0.150 HD
ENDBRANCH   2  12
BRANCH   4  17
ATOM     17  O   UNL     1      -0.326   3.036   1.411  0.00  0.00    -0.383 OA
ATOM     18  H   UNL     1      -0.553   3.503   0.595  0.00  0.00    +0.210 HD
ENDBRANCH   4  17
BRANCH   3  19
ATOM     19  O   UNL     1      -0.534   1.892   3.731  0.00  0.00    -0.384 OA
ATOM     20  H   UNL     1      -0.161   2.784   3.681  0.00  0.00    +0.210 HD
ENDBRANCH   3  19
BRANCH   1  21
ATOM     21  O   UNL     1      -2.287  -2.000   2.368  0.00  0.00    -0.459 OA
BRANCH  21  32
ATOM     22  C   UNL     1      -7.652  -5.076   0.358  0.00  0.00    +0.045 C 
ATOM     23  C   UNL     1      -7.297  -3.618   0.497  0.00  0.00    -0.033 A 
ATOM     24  C   UNL     1      -8.190  -2.648   0.170  0.00  0.00    +0.096 A 
ATOM     25  C   UNL     1      -7.834  -1.291   0.309  0.00  0.00    +0.337 A 
ATOM     26  O   UNL     1      -8.645  -0.431   0.012  0.00  0.00    -0.245 OA
ATOM     27  O   UNL     1      -6.625  -0.921   0.761  0.00  0.00    -0.422 OA
ATOM     28  C   UNL     1      -5.692  -1.835   1.103  0.00  0.00    +0.143 A 
ATOM     29  C   UNL     1      -5.980  -3.208   0.989  0.00  0.00    +0.021 A 
ATOM     30  C   UNL     1      -5.015  -4.158   1.343  0.00  0.00    +0.015 A 
ATOM     31  C   UNL     1      -3.795  -3.748   1.798  0.00  0.00    +0.046 A 
ATOM     32  C   UNL     1      -3.504  -2.391   1.913  0.00  0.00    +0.128 A 
ATOM     33  C   UNL     1      -4.449  -1.437   1.573  0.00  0.00    +0.092 A 
ENDBRANCH  21  32
ENDBRANCH   1  21
BRANCH   5  34
ATOM     34  C   UNL     1      -2.087   1.494  -0.561  0.00  0.00    +0.193 C 
BRANCH  34  35
ATOM     35  O   UNL     1      -3.459   1.369  -0.939  0.00  0.00    -0.392 OA
ATOM     36  H   UNL     1      -3.614   1.456  -1.889  0.00  0.00    +0.210 HD
ENDBRANCH  34  35
ENDBRANCH   5  34
TORSDOF 7
