REMARK  Name = ZINC38517913
REMARK  7 active torsions:
REMARK  status: ('A' for Active; 'I' for Inactive)
REMARK    1  A    between atoms: C_1  and  C_2
REMARK    2  A    between atoms: C_5  and  N_8
REMARK    3  A    between atoms: N_11  and  C_12
REMARK    4  A    between atoms: C_12  and  C_13
REMARK    5  A    between atoms: C_13  and  C_15
REMARK    6  A    between atoms: C_13  and  N_25
REMARK    7  A    between atoms: N_23  and  C_24
REMARK                            x       y       z     vdW  Elec       q    Type
REMARK                         _______ _______ _______ _____ _____    ______ ____
ROOT
ATOM      1  C   UNL     1       0.665  -8.409   2.084  0.00  0.00    +0.104 C 
ENDROOT
BRANCH   1   2
ATOM      2  C   UNL     1       1.034  -9.162   3.336  0.00  0.00    -0.028 A 
ATOM      3  C   UNL     1       2.302  -9.035   3.873  0.00  0.00    +0.007 A 
ATOM      4  C   UNL     1       2.644  -9.722   5.017  0.00  0.00    +0.024 A 
ATOM      5  C   UNL     1       1.712 -10.553   5.644  0.00  0.00    +0.033 A 
ATOM      6  C   UNL     1       0.444 -10.673   5.099  0.00  0.00    -0.025 A 
ATOM      7  C   UNL     1       0.104  -9.978   3.954  0.00  0.00    +0.010 A 
ATOM      8  C   UNL     1      -0.362 -11.620   5.959  0.00  0.00    +0.056 C 
ATOM      9  C   UNL     1       0.602 -12.038   7.081  0.00  0.00    +0.109 C 
ATOM     10  N   UNL     1       1.852 -11.327   6.797  0.00  0.00    -0.332 N 
ATOM     11  C   UNL     1       3.071 -11.416   7.606  0.00  0.00    +0.129 C 
ENDBRANCH   1   2
BRANCH   1  12
ATOM     12  N   UNL     1       1.439  -8.934   0.951  0.00  0.00    -0.290 NA
ATOM     13  C   UNL     1       1.605 -10.391   1.055  0.00  0.00    +0.113 C 
ATOM     14  C   UNL     1       2.363 -10.902  -0.172  0.00  0.00    +0.175 C 
ATOM     15  O   UNL     1       3.616 -10.220  -0.271  0.00  0.00    -0.377 OA
ATOM     16  C   UNL     1       3.491  -8.799  -0.375  0.00  0.00    +0.175 C 
ATOM     17  C   UNL     1       2.745  -8.267   0.851  0.00  0.00    +0.113 C 
ENDBRANCH   1  12
BRANCH   1  18
ATOM     18  C   UNL     1       0.978  -6.924   2.271  0.00  0.00    +0.129 C 
BRANCH  18  22
ATOM     19  N   UNL     1       0.497  -4.192  -0.143  0.00  0.00    -0.269 N 
ATOM     20  C   UNL     1       0.856  -4.870   0.965  0.00  0.00    +0.304 C 
ATOM     21  O   UNL     1       1.423  -4.294   1.874  0.00  0.00    -0.253 OA
ATOM     22  N   UNL     1       0.588  -6.187   1.066  0.00  0.00    -0.297 N 
ATOM     23  H   UNL     1      -0.008  -4.637  -0.841  0.00  0.00    +0.156 HD
ATOM     24  H   UNL     1       0.136  -6.647   0.342  0.00  0.00    +0.150 HD
BRANCH  19  29
ATOM     25  C   UNL     1       1.941   1.264  -0.724  0.00  0.00    +0.044 C 
ATOM     26  C   UNL     1       1.557  -0.185  -0.570  0.00  0.00    -0.050 A 
ATOM     27  C   UNL     1       2.418  -1.063   0.064  0.00  0.00    +0.005 A 
ATOM     28  C   UNL     1       2.069  -2.392   0.207  0.00  0.00    +0.023 A 
ATOM     29  C   UNL     1       0.853  -2.846  -0.286  0.00  0.00    +0.035 A 
ATOM     30  C   UNL     1      -0.009  -1.962  -0.921  0.00  0.00    +0.023 A 
ATOM     31  C   UNL     1       0.343  -0.633  -1.056  0.00  0.00    +0.005 A 
ENDBRANCH  19  29
ENDBRANCH  18  22
ENDBRANCH   1  18
TORSDOF 5
