REMARK  Name = ZINC20785940
REMARK  8 active torsions:
REMARK  status: ('A' for Active; 'I' for Inactive)
REMARK    1  A    between atoms: C_3  and  C_22
REMARK    2  A    between atoms: C_5  and  C_6
REMARK    3  A    between atoms: C_12  and  C_14
REMARK    4  A    between atoms: C_14  and  C_15
REMARK    5  A    between atoms: C_15  and  C_16
REMARK    6  A    between atoms: N_24  and  C_25
REMARK    7  A    between atoms: C_25  and  C_26
REMARK    8  A    between atoms: C_26  and  O_27
REMARK                            x       y       z     vdW  Elec       q    Type
REMARK                         _______ _______ _______ _____ _____    ______ ____
ROOT
ATOM      1  C   UNL     1       7.098   4.276  -0.045  0.00  0.00    +0.113 C 
ATOM      2  C   UNL     1       7.633   3.965   1.369  0.00  0.00    +0.029 C 
ATOM      3  C   UNL     1       8.848   3.040   1.083  0.00  0.00    +0.021 C 
ATOM      4  C   UNL     1       8.350   2.239  -0.146  0.00  0.00    +0.108 C 
ATOM      5  N   UNL     1       7.573   3.209  -0.939  0.00  0.00    -0.294 N 
ATOM      6  C   UNL     1       7.337   3.131  -2.263  0.00  0.00    +0.216 C 
ATOM      7  O   UNL     1       6.681   3.991  -2.814  0.00  0.00    -0.276 OA
ENDROOT
BRANCH   1  12
ATOM      8  C   UNL     1       4.765   5.378  -0.016  0.00  0.00    +0.014 A 
ATOM      9  C   UNL     1       3.406   5.180  -0.008  0.00  0.00    +0.021 A 
ATOM     10  C   UNL     1       2.959   3.869  -0.005  0.00  0.00    +0.074 A 
ATOM     11  S   UNL     1       4.494   2.958  -0.026  0.00  0.00    -0.087 S 
ATOM     12  C   UNL     1       5.592   4.300  -0.029  0.00  0.00    +0.011 A 
BRANCH  10  13
ATOM     13  C   UNL     1       1.584   3.361   0.005  0.00  0.00    +0.251 C 
ATOM     14  O   UNL     1       0.648   4.139   0.018  0.00  0.00    -0.270 OA
ATOM     15  N   UNL     1       1.356   2.033   0.000  0.00  0.00    -0.309 N 
ATOM     16  H   UNL     1       2.201   1.330  -0.012  0.00  0.00    +0.149 HD
BRANCH  15  17
ATOM     17  C   UNL     1      -0.019   1.526   0.010  0.00  0.00    +0.132 C 
BRANCH  17  18
ATOM     18  C   UNL     1       0.002  -0.004   0.002  0.00  0.00    +0.174 C 
BRANCH  18  19
ATOM     19  O   UNL     1       0.590  -0.479   1.215  0.00  0.00    -0.393 OA
ATOM     20  H   UNL     1       0.691  -1.560   1.390  0.00  0.00    +0.209 HD
ENDBRANCH  18  19
ENDBRANCH  17  18
ENDBRANCH  15  17
ENDBRANCH  10  13
ENDBRANCH   1  12
BRANCH   6  21
ATOM     21  C   UNL     1       7.886   1.976  -3.060  0.00  0.00    +0.102 C 
BRANCH  21  22
ATOM     22  C   UNL     1       7.477   2.128  -4.526  0.00  0.00    +0.065 C 
BRANCH  22  23
ATOM     23  C   UNL     1       8.027   0.973  -5.323  0.00  0.00    +0.051 A 
ATOM     24  C   UNL     1       7.208   0.193  -6.068  0.00  0.00    +0.071 A 
ATOM     25  S   UNL     1       8.384  -0.961  -6.759  0.00  0.00    -0.061 S 
ATOM     26  C   UNL     1       9.807  -0.314  -6.002  0.00  0.00    +0.156 A 
ATOM     27  N   UNL     1       9.317   0.695  -5.307  0.00  0.00    -0.230 NA
ATOM     28  N   UNL     1      11.120  -0.747  -6.101  0.00  0.00    -0.338 N 
ATOM     29  H   UNL     1      11.915  -0.222  -5.551  0.00  0.00    +0.144 HD
ATOM     30  H   UNL     1      11.367  -1.615  -6.730  0.00  0.00    +0.144 HD
ENDBRANCH  22  23
ENDBRANCH  21  22
ENDBRANCH   6  21
TORSDOF 8
