REMARK  Name = ZINC19808224
REMARK  5 active torsions:
REMARK  status: ('A' for Active; 'I' for Inactive)
REMARK    1  A    between atoms: C_6  and  C_7
REMARK    2  A    between atoms: N_8  and  N_9
REMARK    3  A    between atoms: C_10  and  C_12
REMARK    4  A    between atoms: C_13  and  C_23
REMARK    5  A    between atoms: C_23  and  N_24
REMARK                            x       y       z     vdW  Elec       q    Type
REMARK                         _______ _______ _______ _____ _____    ______ ____
ROOT
ATOM      1  C   UNL     1      -0.513   5.403  -0.051  0.00  0.00    +0.154 A 
ATOM      2  C   UNL     1       0.761   5.909  -0.057  0.00  0.00    +0.079 A 
ATOM      3  N   UNL     1       1.581   4.865   0.070  0.00  0.00    -0.135 NA
ATOM      4  N   UNL     1       0.889   3.785   0.157  0.00  0.00    -0.058 NA
ATOM      5  N   UNL     1      -0.370   4.045   0.094  0.00  0.00    -0.183 N 
ATOM      6  C   UNL     1      -1.407   3.110   0.157  0.00  0.00    +0.241 A 
ATOM      7  C   UNL     1      -1.248   1.653   0.191  0.00  0.00    +0.206 A 
ATOM      8  N   UNL     1      -2.434   1.112   0.253  0.00  0.00    -0.032 NA
ATOM      9  O   UNL     1      -3.389   2.159   0.257  0.00  0.00    -0.239 OA
ATOM     10  N   UNL     1      -2.680   3.385   0.191  0.00  0.00    -0.027 NA
ATOM     11  N   UNL     1      -0.040   0.965   0.167  0.00  0.00    -0.337 N 
ATOM     12  H   UNL     1      -0.033  -0.135   0.197  0.00  0.00    +0.144 HD
ATOM     13  H   UNL     1       0.908   1.520   0.118  0.00  0.00    +0.144 HD
ENDROOT
BRANCH   1  15
ATOM     14  N   UNL     1      -2.417   6.569   0.938  0.00  0.00    -0.202 N 
ATOM     15  C   UNL     1      -1.770   6.157  -0.170  0.00  0.00    +0.284 C 
ATOM     16  O   UNL     1      -2.226   6.409  -1.270  0.00  0.00    -0.267 OA
ATOM     17  H   UNL     1      -1.963   6.417   1.928  0.00  0.00    +0.178 HD
BRANCH  14  19
ATOM     18  C   UNL     1      -4.290   7.588   1.896  0.00  0.00    +0.138 C 
ATOM     19  N   UNL     1      -3.667   7.192   0.829  0.00  0.00    -0.187 NA
BRANCH  18  25
ATOM     20  C   UNL     1      -6.200   8.453   0.529  0.00  0.00    +0.029 A 
ATOM     21  C   UNL     1      -7.433   9.066   0.469  0.00  0.00    +0.111 A 
ATOM     22  N   UNL     1      -8.049   9.461   1.567  0.00  0.00    -0.263 NA
ATOM     23  C   UNL     1      -7.524   9.288   2.766  0.00  0.00    +0.111 A 
ATOM     24  C   UNL     1      -6.296   8.680   2.920  0.00  0.00    +0.029 A 
ATOM     25  C   UNL     1      -5.606   8.244   1.781  0.00  0.00    -0.003 A 
ENDBRANCH  18  25
ENDBRANCH  14  19
ENDBRANCH   1  15
BRANCH   2  26
ATOM     26  C   UNL     1       1.157   7.357  -0.190  0.00  0.00    -0.018 C 
BRANCH  26  27
ATOM     27  N   UNL     1       1.326   7.690  -1.611  0.00  0.00    +0.383 N 
ATOM     28  C   UNL     1       2.459   6.958  -2.192  0.00  0.00    -0.078 C 
ATOM     29  C   UNL     1       2.515   7.216  -3.699  0.00  0.00    -0.019 C 
ATOM     30  C   UNL     1       2.672   8.718  -3.949  0.00  0.00    -0.004 C 
ATOM     31  C   UNL     1       1.506   9.462  -3.293  0.00  0.00    -0.019 C 
ATOM     32  C   UNL     1       1.479   9.139  -1.797  0.00  0.00    -0.078 C 
ATOM     33  H   UNL     1       0.416   7.377  -2.144  0.00  0.00    -0.081 HD
ENDBRANCH  26  27
ENDBRANCH   2  26
TORSDOF 5
