REMARK  Name = ZINC59286710
REMARK  9 active torsions:
REMARK  status: ('A' for Active; 'I' for Inactive)
REMARK    1  A    between atoms: C_1  and  C_2
REMARK    2  A    between atoms: C_5  and  C_35
REMARK    3  A    between atoms: N_8  and  C_10
REMARK    4  A    between atoms: C_10  and  C_11
REMARK    5  A    between atoms: C_16  and  C_17
REMARK    6  A    between atoms: C_17  and  N_18
REMARK    7  A    between atoms: C_19  and  C_21
REMARK    8  A    between atoms: C_24  and  S_26
REMARK    9  A    between atoms: S_26  and  N_29
REMARK                            x       y       z     vdW  Elec       q    Type
REMARK                         _______ _______ _______ _____ _____    ______ ____
ROOT
ATOM      1  N   UNL     1       2.228  -0.129   4.709  0.00  0.00    -0.305 N 
ATOM      2  C   UNL     1       1.379   0.656   5.402  0.00  0.00    +0.280 C 
ATOM      3  O   UNL     1       0.808   1.575   4.845  0.00  0.00    -0.267 OA
ATOM      4  H   UNL     1       2.684  -0.861   5.154  0.00  0.00    +0.149 HD
ENDROOT
BRANCH   2   5
ATOM      5  C   UNL     1       1.144   0.404   6.827  0.00  0.00    +0.192 A 
ATOM      6  C   UNL     1       0.310   1.115   7.641  0.00  0.00    +0.057 A 
ATOM      7  C   UNL     1       0.393   0.530   8.915  0.00  0.00    +0.072 A 
ATOM      8  C   UNL     1       1.263  -0.500   8.823  0.00  0.00    +0.259 A 
ATOM      9  O   UNL     1       1.710  -0.576   7.562  0.00  0.00    -0.432 OA
BRANCH   8  10
ATOM     10  S   UNL     1       1.729  -1.571  10.143  0.00  0.00    +0.094 S 
ATOM     11  O   UNL     1       3.002  -2.104   9.803  0.00  0.00    -0.150 OA
ATOM     12  O   UNL     1       1.501  -0.853  11.348  0.00  0.00    -0.150 OA
BRANCH  10  13
ATOM     13  N   UNL     1       0.667  -2.841  10.141  0.00  0.00    -0.174 NA
ATOM     14  C   UNL     1      -0.577  -2.778  10.919  0.00  0.00    +0.109 C 
ATOM     15  C   UNL     1      -1.756  -3.084   9.990  0.00  0.00    +0.017 C 
ATOM     16  C   UNL     1      -1.517  -4.426   9.294  0.00  0.00    +0.003 C 
ATOM     17  C   UNL     1      -0.244  -4.345   8.449  0.00  0.00    +0.017 C 
ATOM     18  C   UNL     1       0.949  -4.051   9.356  0.00  0.00    +0.109 C 
ENDBRANCH  10  13
ENDBRANCH   8  10
ENDBRANCH   2   5
BRANCH   1  19
ATOM     19  C   UNL     1       2.463   0.124   3.285  0.00  0.00    +0.140 C 
BRANCH  19  25
ATOM     20  C   UNL     1       3.041  -2.188   2.520  0.00  0.00    -0.059 A 
ATOM     21  C   UNL     1       3.941  -3.113   2.025  0.00  0.00    +0.002 A 
ATOM     22  C   UNL     1       5.246  -2.739   1.766  0.00  0.00    +0.000 A 
ATOM     23  C   UNL     1       5.651  -1.438   2.002  0.00  0.00    +0.000 A 
ATOM     24  C   UNL     1       4.752  -0.513   2.497  0.00  0.00    +0.005 A 
ATOM     25  C   UNL     1       3.445  -0.886   2.751  0.00  0.00    -0.029 A 
BRANCH  20  26
ATOM     26  C   UNL     1       1.618  -2.596   2.802  0.00  0.00    -0.043 C 
BRANCH  26  32
ATOM     27  C   UNL     1       1.374  -5.328  -1.253  0.00  0.00    +0.005 C 
ATOM     28  C   UNL     1       1.299  -5.353   0.275  0.00  0.00    -0.031 C 
ATOM     29  C   UNL     1      -0.060  -5.909   0.711  0.00  0.00    +0.003 C 
ATOM     30  C   UNL     1      -0.155  -5.856   2.239  0.00  0.00    -0.031 C 
ATOM     31  C   UNL     1       0.060  -4.415   2.708  0.00  0.00    -0.075 C 
ATOM     32  N   UNL     1       1.386  -3.951   2.283  0.00  0.00    +0.383 N 
ATOM     33  C   UNL     1       1.461  -3.931   0.817  0.00  0.00    -0.075 C 
ATOM     34  C   UNL     1       0.919  -6.758   2.849  0.00  0.00    +0.005 C 
ATOM     35  H   UNL     1       2.091  -4.574   2.646  0.00  0.00    -0.081 HD
ENDBRANCH  26  32
ENDBRANCH  20  26
ENDBRANCH  19  25
ENDBRANCH   1  19
TORSDOF 7
