REMARK  Name = ZINC49034122
REMARK  7 active torsions:
REMARK  status: ('A' for Active; 'I' for Inactive)
REMARK    1  A    between atoms: C_1  and  C_2
REMARK    2  A    between atoms: C_2  and  C_4
REMARK    3  A    between atoms: C_2  and  N_8
REMARK    4  A    between atoms: N_6  and  C_7
REMARK    5  A    between atoms: C_9  and  C_11
REMARK    6  A    between atoms: C_16  and  S_17
REMARK    7  A    between atoms: S_17  and  C_18
REMARK                            x       y       z     vdW  Elec       q    Type
REMARK                         _______ _______ _______ _____ _____    ______ ____
ROOT
ATOM      1  N   UNL     1       0.711  -0.489   1.189  0.00  0.00    -0.300 N 
ATOM      2  C   UNL     1       2.054  -0.600   1.174  0.00  0.00    +0.247 C 
ATOM      3  O   UNL     1       2.678  -0.297   0.175  0.00  0.00    -0.270 OA
ATOM      4  H   UNL     1       0.213  -0.731   1.986  0.00  0.00    +0.150 HD
ENDROOT
BRANCH   2   5
ATOM      5  C   UNL     1       2.767  -1.088   2.368  0.00  0.00    +0.069 A 
ATOM      6  C   UNL     1       2.061  -1.446   3.522  0.00  0.00    +0.017 A 
ATOM      7  C   UNL     1       2.777  -1.898   4.616  0.00  0.00    +0.020 A 
ATOM      8  C   UNL     1       4.156  -1.984   4.541  0.00  0.00    +0.112 A 
ATOM      9  N   UNL     1       4.803  -1.642   3.445  0.00  0.00    -0.248 NA
ATOM     10  C   UNL     1       4.168  -1.208   2.366  0.00  0.00    +0.117 A 
BRANCH  10  11
ATOM     11  S   UNL     1       5.083  -0.772   0.925  0.00  0.00    +0.005 S 
BRANCH  11  12
ATOM     12  C   UNL     1       6.808  -1.087   1.389  0.00  0.00    +0.449 C 
ATOM     13  F   UNL     1       6.962  -2.437   1.723  0.00  0.00    -0.160 F 
ATOM     14  F   UNL     1       7.645  -0.774   0.313  0.00  0.00    -0.160 F 
ATOM     15  F   UNL     1       7.147  -0.292   2.490  0.00  0.00    -0.160 F 
ENDBRANCH  11  12
ENDBRANCH  10  11
ENDBRANCH   2   5
BRANCH   1  17
ATOM     16  C   UNL     1      -0.019   1.526   0.010  0.00  0.00    +0.038 C 
ATOM     17  C   UNL     1       0.002  -0.004   0.002  0.00  0.00    +0.156 C 
BRANCH  17  18
ATOM     18  C   UNL     1      -1.412  -0.526   0.013  0.00  0.00    +0.233 C 
ATOM     19  O   UNL     1      -1.790  -1.233   0.922  0.00  0.00    -0.274 OA
ATOM     20  N   UNL     1      -2.256  -0.206  -0.988  0.00  0.00    -0.317 N 
ATOM     21  C   UNL     1      -3.630  -0.713  -0.978  0.00  0.00    +0.128 C 
ATOM     22  H   UNL     1      -1.953   0.360  -1.716  0.00  0.00    +0.148 HD
ENDBRANCH  17  18
ENDBRANCH   1  17
TORSDOF 5
