REMARK  Name = ZINC35653053
REMARK  14 active torsions:
REMARK  status: ('A' for Active; 'I' for Inactive)
REMARK    1  A    between atoms: C_1  and  C_2
REMARK    2  A    between atoms: C_2  and  C_3
REMARK    3  A    between atoms: C_2  and  N_4
REMARK    4  A    between atoms: N_4  and  C_5
REMARK    5  A    between atoms: C_5  and  C_6
REMARK    6  A    between atoms: C_6  and  C_8
REMARK    7  A    between atoms: C_6  and  O_20
REMARK    8  A    between atoms: C_8  and  O_9
REMARK    9  A    between atoms: O_9  and  C_10
REMARK   10  A    between atoms: O_20  and  C_21
REMARK   11  A    between atoms: C_23  and  O_37
REMARK   12  A    between atoms: C_25  and  O_36
REMARK   13  A    between atoms: C_27  and  O_35
REMARK   14  A    between atoms: C_29  and  C_32
REMARK                            x       y       z     vdW  Elec       q    Type
REMARK                         _______ _______ _______ _____ _____    ______ ____
ROOT
ATOM      1  C   UNL     1       3.136  -0.602  -2.569  0.00  0.00    +0.142 C 
ENDROOT
BRANCH   1   2
ATOM      2  C   UNL     1       2.533  -0.037  -1.281  0.00  0.00    -0.047 C 
BRANCH   2   3
ATOM      3  N   UNL     1       1.067  -0.047  -1.382  0.00  0.00    +0.382 N 
ATOM      4  H   UNL     1       0.741  -0.999  -1.452  0.00  0.00    -0.085 HD
ATOM      5  H   UNL     1       0.783   0.467  -2.203  0.00  0.00    -0.085 HD
BRANCH   3   7
ATOM      6  C   UNL     1       0.853   2.068  -0.167  0.00  0.00    -0.014 C 
ATOM      7  C   UNL     1       0.490   0.582  -0.187  0.00  0.00    -0.078 C 
ATOM      8  C   UNL     1      -1.032   0.430  -0.215  0.00  0.00    -0.014 C 
ENDBRANCH   3   7
ENDBRANCH   2   3
ENDBRANCH   1   2
BRANCH   1   9
ATOM      9  C   UNL     1       4.659  -0.469  -2.519  0.00  0.00    +0.258 C 
BRANCH   9  10
ATOM     10  O   UNL     1       5.154  -1.096  -1.335  0.00  0.00    -0.489 OA
BRANCH  10  11
ATOM     11  C   UNL     1       6.498  -1.066  -1.137  0.00  0.00    +0.128 A 
ATOM     12  C   UNL     1       7.314  -0.452  -2.045  0.00  0.00    +0.046 A 
ATOM     13  C   UNL     1       8.692  -0.413  -1.857  0.00  0.00    +0.004 A 
ATOM     14  C   UNL     1       9.268  -0.985  -0.763  0.00  0.00    +0.009 A 
ATOM     15  C   UNL     1       8.464  -1.626   0.194  0.00  0.00    -0.014 A 
ATOM     16  C   UNL     1       7.059  -1.664   0.009  0.00  0.00    +0.024 A 
ATOM     17  C   UNL     1       6.255  -2.301   0.968  0.00  0.00    +0.012 A 
ATOM     18  C   UNL     1       6.833  -2.868   2.063  0.00  0.00    +0.001 A 
ATOM     19  C   UNL     1       8.214  -2.826   2.248  0.00  0.00    +0.001 A 
ATOM     20  C   UNL     1       9.025  -2.227   1.334  0.00  0.00    +0.008 A 
ENDBRANCH  10  11
ENDBRANCH   9  10
ENDBRANCH   1   9
BRANCH   1  21
ATOM     21  O   UNL     1       2.783  -1.981  -2.695  0.00  0.00    -0.344 OA
BRANCH  21  22
ATOM     22  C   UNL     1       2.796  -2.464  -4.040  0.00  0.00    +0.283 C 
ATOM     23  C   UNL     1       2.631  -3.986  -4.037  0.00  0.00    +0.201 C 
ATOM     24  C   UNL     1       1.271  -4.343  -3.429  0.00  0.00    +0.179 C 
ATOM     25  C   UNL     1       0.168  -3.640  -4.225  0.00  0.00    +0.185 C 
ATOM     26  C   UNL     1       0.428  -2.131  -4.220  0.00  0.00    +0.265 C 
ATOM     27  O   UNL     1       1.722  -1.870  -4.770  0.00  0.00    -0.331 OA
BRANCH  26  28
ATOM     28  C   UNL     1      -0.620  -1.437  -5.051  0.00  0.00    +0.387 C 
ATOM     29  O   UNL     1      -1.786  -1.447  -4.693  0.00  0.00    -0.243 OA
ATOM     30  O   UNL     1      -0.303  -0.866  -6.080  0.00  0.00    -0.243 OA
ENDBRANCH  26  28
BRANCH  25  31
ATOM     31  O   UNL     1       0.169  -4.121  -5.571  0.00  0.00    -0.386 OA
ATOM     32  H   UNL     1      -0.507  -3.718  -6.133  0.00  0.00    +0.210 HD
ENDBRANCH  25  31
BRANCH  24  33
ATOM     33  O   UNL     1       1.229  -3.913  -2.067  0.00  0.00    -0.386 OA
ATOM     34  H   UNL     1       0.395  -4.108  -1.619  0.00  0.00    +0.210 HD
ENDBRANCH  24  33
BRANCH  23  35
ATOM     35  O   UNL     1       3.674  -4.579  -3.260  0.00  0.00    -0.384 OA
ATOM     36  H   UNL     1       4.564  -4.389  -3.587  0.00  0.00    +0.210 HD
ENDBRANCH  23  35
ENDBRANCH  21  22
ENDBRANCH   1  21
TORSDOF 12
