REMARK  Name = ZINC12703568
REMARK  10 active torsions:
REMARK  status: ('A' for Active; 'I' for Inactive)
REMARK    1  A    between atoms: C_1  and  C_2
REMARK    2  A    between atoms: C_6  and  N_9
REMARK    3  A    between atoms: C_7  and  C_8
REMARK    4  A    between atoms: N_9  and  C_10
REMARK    5  A    between atoms: C_10  and  C_12
REMARK    6  A    between atoms: C_10  and  C_17
REMARK    7  A    between atoms: N_19  and  C_20
REMARK    8  A    between atoms: C_25  and  C_27
REMARK    9  A    between atoms: C_28  and  N_35
REMARK   10  A    between atoms: C_29  and  C_32
REMARK                            x       y       z     vdW  Elec       q    Type
REMARK                         _______ _______ _______ _____ _____    ______ ____
ROOT
ATOM      1  N   UNL     1      -3.114   1.325   0.034  0.00  0.00    -0.248 N 
ATOM      2  C   UNL     1      -3.919   0.897   1.027  0.00  0.00    +0.262 C 
ATOM      3  O   UNL     1      -4.858   0.165   0.776  0.00  0.00    -0.269 OA
ENDROOT
BRANCH   1   9
ATOM      4  C   UNL     1      -1.346   5.866   0.686  0.00  0.00    +0.044 C 
ATOM      5  C   UNL     1      -1.150   4.372   0.644  0.00  0.00    -0.046 A 
ATOM      6  C   UNL     1       0.099   3.832   0.896  0.00  0.00    +0.004 A 
ATOM      7  C   UNL     1       0.283   2.462   0.858  0.00  0.00    +0.002 A 
ATOM      8  C   UNL     1      -0.780   1.629   0.570  0.00  0.00    +0.024 A 
ATOM      9  C   UNL     1      -2.035   2.167   0.321  0.00  0.00    +0.041 A 
ATOM     10  C   UNL     1      -2.216   3.544   0.354  0.00  0.00    -0.026 A 
ATOM     11  C   UNL     1      -3.576   4.133   0.081  0.00  0.00    +0.046 C 
ENDBRANCH   1   9
BRANCH   2  12
ATOM     12  C   UNL     1      -3.662   1.314   2.407  0.00  0.00    +0.116 A 
ATOM     13  C   UNL     1      -4.361   0.992   3.572  0.00  0.00    +0.076 A 
ATOM     14  C   UNL     1      -3.807   1.585   4.707  0.00  0.00    +0.155 A 
ATOM     15  N   UNL     1      -2.743   2.347   4.581  0.00  0.00    -0.203 NA
ATOM     16  S   UNL     1      -2.372   2.359   3.049  0.00  0.00    +0.019 S 
BRANCH  14  17
ATOM     17  C   UNL     1      -4.410   1.361   6.034  0.00  0.00    +0.262 C 
ATOM     18  O   UNL     1      -5.395   0.655   6.143  0.00  0.00    -0.269 OA
ATOM     19  N   UNL     1      -3.870   1.938   7.126  0.00  0.00    -0.324 N 
ATOM     20  H   UNL     1      -3.084   2.500   7.039  0.00  0.00    +0.145 HD
ATOM     21  H   UNL     1      -4.266   1.790   7.999  0.00  0.00    +0.145 HD
ENDBRANCH  14  17
BRANCH  13  22
ATOM     22  N   UNL     1      -5.481   0.172   3.599  0.00  0.00    -0.355 N 
ATOM     23  H   UNL     1      -5.819  -0.213   2.776  0.00  0.00    +0.142 HD
ATOM     24  H   UNL     1      -5.924  -0.016   4.441  0.00  0.00    +0.142 HD
ENDBRANCH  13  22
ENDBRANCH   2  12
BRANCH   1  25
ATOM     25  C   UNL     1      -3.371   0.909  -1.347  0.00  0.00    +0.233 C 
BRANCH  25  26
ATOM     26  C   UNL     1      -3.435   2.125  -2.235  0.00  0.00    +0.135 A 
ATOM     27  C   UNL     1      -4.426   2.420  -3.096  0.00  0.00    +0.047 A 
ATOM     28  C   UNL     1      -4.080   3.642  -3.716  0.00  0.00    +0.041 A 
ATOM     29  C   UNL     1      -2.898   4.021  -3.198  0.00  0.00    +0.195 A 
ATOM     30  O   UNL     1      -2.515   3.102  -2.297  0.00  0.00    -0.465 OA
ENDBRANCH  25  26
BRANCH  25  31
ATOM     31  C   UNL     1      -2.259   0.005  -1.814  0.00  0.00    +0.242 C 
ATOM     32  O   UNL     1      -1.391  -0.337  -1.040  0.00  0.00    -0.273 OA
ATOM     33  N   UNL     1      -2.231  -0.424  -3.091  0.00  0.00    -0.311 N 
ATOM     34  H   UNL     1      -2.926  -0.151  -3.710  0.00  0.00    +0.149 HD
BRANCH  33  35
ATOM     35  C   UNL     1      -1.151  -1.304  -3.545  0.00  0.00    +0.073 C 
ATOM     36  C   UNL     1       0.048  -0.462  -4.030  0.00  0.00    +0.022 C 
ATOM     37  C   UNL     1       0.599  -1.249  -5.244  0.00  0.00    +0.002 C 
ATOM     38  C   UNL     1      -0.690  -1.771  -5.927  0.00  0.00    +0.002 C 
ATOM     39  C   UNL     1      -1.619  -2.136  -4.751  0.00  0.00    +0.022 C 
ENDBRANCH  33  35
ENDBRANCH  25  31
ENDBRANCH   1  25
TORSDOF 8
