REMARK  Name = ZINC25726447
REMARK  12 active torsions:
REMARK  status: ('A' for Active; 'I' for Inactive)
REMARK    1  A    between atoms: C_1  and  C_2
REMARK    2  A    between atoms: C_4  and  O_31
REMARK    3  A    between atoms: C_6  and  O_30
REMARK    4  A    between atoms: C_9  and  C_10
REMARK    5  A    between atoms: C_9  and  C_11
REMARK    6  A    between atoms: C_14  and  O_29
REMARK    7  A    between atoms: C_18  and  C_28
REMARK    8  A    between atoms: C_21  and  O_27
REMARK    9  A    between atoms: C_23  and  C_25
REMARK   10  A    between atoms: C_25  and  O_26
REMARK   11  A    between atoms: O_31  and  C_32
REMARK   12  A    between atoms: C_32  and  C_34
REMARK                            x       y       z     vdW  Elec       q    Type
REMARK                         _______ _______ _______ _____ _____    ______ ____
ROOT
ATOM      1  C   UNL     1       4.157   2.579   2.437  0.00  0.00    +0.014 C 
ATOM      2  C   UNL     1       3.269   2.754   1.201  0.00  0.00    +0.062 C 
ATOM      3  C   UNL     1       3.101   4.259   0.963  0.00  0.00    +0.214 C 
ATOM      4  C   UNL     1       1.949   4.631   0.060  0.00  0.00    +0.113 C 
ATOM      5  C   UNL     1       0.955   3.566  -0.406  0.00  0.00    +0.043 C 
ATOM      6  C   UNL     1       1.889   4.246  -1.408  0.00  0.00    +0.004 C 
ATOM      7  C   UNL     1       3.054   3.468  -2.012  0.00  0.00    +0.014 C 
ATOM      8  C   UNL     1       1.253   5.272  -2.363  0.00  0.00    +0.014 C 
ATOM      9  C   UNL     1       1.215   2.127   0.002  0.00  0.00    +0.051 C 
ATOM     10  C   UNL     1       1.904   2.110   1.376  0.00  0.00    +0.088 C 
ATOM     11  C   UNL     1       1.848   0.712   1.902  0.00  0.00    +0.084 C 
ATOM     12  C   UNL     1       2.504   0.402   3.210  0.00  0.00    -0.011 C 
ATOM     13  C   UNL     1       3.023  -0.829   3.165  0.00  0.00    -0.009 C 
ATOM     14  C   UNL     1       2.837  -1.454   1.850  0.00  0.00    +0.191 C 
ATOM     15  O   UNL     1       3.067  -2.611   1.553  0.00  0.00    -0.289 OA
ATOM     16  C   UNL     1       2.307  -0.371   0.936  0.00  0.00    +0.140 C 
ATOM     17  C   UNL     1       1.230  -0.840   0.005  0.00  0.00    +0.076 C 
ATOM     18  C   UNL     1       0.002  -0.004   0.002  0.00  0.00    -0.045 C 
ATOM     19  C   UNL     1      -0.015   1.287   0.009  0.00  0.00    -0.019 C 
ATOM     20  C   UNL     1       3.738  -1.484   4.320  0.00  0.00    +0.047 C 
ENDROOT
BRANCH  16  21
ATOM     21  O   UNL     1       3.398   0.113   0.152  0.00  0.00    -0.380 OA
ATOM     22  H   UNL     1       3.862  -0.536  -0.605  0.00  0.00    +0.211 HD
ENDBRANCH  16  21
BRANCH  10  23
ATOM     23  O   UNL     1       1.121   2.942   2.247  0.00  0.00    -0.387 OA
ATOM     24  H   UNL     1       0.092   2.653   2.506  0.00  0.00    +0.210 HD
ENDBRANCH  10  23
BRANCH   4  25
ATOM     25  O   UNL     1       1.356   5.901   0.372  0.00  0.00    -0.384 OA
ATOM     26  H   UNL     1       0.508   6.274  -0.222  0.00  0.00    +0.210 HD
ENDBRANCH   4  25
BRANCH  18  27
ATOM     27  C   UNL     1      -1.323  -0.718  -0.013  0.00  0.00    +0.186 C 
BRANCH  27  28
ATOM     28  O   UNL     1      -2.381   0.242  -0.016  0.00  0.00    -0.391 OA
ATOM     29  H   UNL     1      -3.429  -0.093  -0.026  0.00  0.00    +0.210 HD
ENDBRANCH  27  28
ENDBRANCH  18  27
BRANCH   3  30
ATOM     30  O   UNL     1       4.341   4.795   0.426  0.00  0.00    -0.458 OA
BRANCH  30  31
ATOM     31  C   UNL     1       5.299   5.114   1.310  0.00  0.00    +0.304 C 
ATOM     32  O   UNL     1       5.110   4.951   2.492  0.00  0.00    -0.251 OA
ATOM     33  C   UNL     1       6.612   5.674   0.828  0.00  0.00    +0.136 C 
ENDBRANCH  30  31
ENDBRANCH   3  30
TORSDOF 7
