REMARK  Name = ZINC41070077
REMARK  7 active torsions:
REMARK  status: ('A' for Active; 'I' for Inactive)
REMARK    1  A    between atoms: C_1  and  C_2
REMARK    2  A    between atoms: C_2  and  C_4
REMARK    3  A    between atoms: C_2  and  N_7
REMARK    4  A    between atoms: N_7  and  S_8
REMARK    5  A    between atoms: S_8  and  C_11
REMARK    6  A    between atoms: C_16  and  N_17
REMARK    7  A    between atoms: N_17  and  N_18
REMARK                            x       y       z     vdW  Elec       q    Type
REMARK                         _______ _______ _______ _____ _____    ______ ____
ROOT
ATOM      1  C   UNL     1      -2.267   0.415   2.406  0.00  0.00    +0.147 A 
ATOM      2  C   UNL     1      -1.505   0.614   3.543  0.00  0.00    +0.048 A 
ATOM      3  C   UNL     1      -1.791   1.710   4.348  0.00  0.00    +0.038 A 
ATOM      4  C   UNL     1      -2.819   2.561   3.992  0.00  0.00    +0.128 A 
ATOM      5  N   UNL     1      -3.529   2.345   2.901  0.00  0.00    -0.236 NA
ATOM      6  C   UNL     1      -3.283   1.315   2.105  0.00  0.00    +0.159 A 
ATOM      7 BR   UNL     1      -0.783   2.032   5.915  0.00  0.00    -0.049 Br
ENDROOT
BRANCH   1   8
ATOM      8  S   UNL     1      -1.949  -0.958   1.348  0.00  0.00    +0.062 S 
ATOM      9  O   UNL     1      -3.200  -1.593   1.119  0.00  0.00    -0.153 OA
ATOM     10  O   UNL     1      -0.835  -1.647   1.900  0.00  0.00    -0.153 OA
BRANCH   8  11
ATOM     11  N   UNL     1      -1.454  -0.349  -0.110  0.00  0.00    -0.187 NA
ATOM     12  H   UNL     1      -1.988  -0.500  -0.905  0.00  0.00    +0.148 HD
BRANCH  11  14
ATOM     13  C   UNL     1      -0.506   1.810  -0.760  0.00  0.00    +0.026 C 
ATOM     14  C   UNL     1      -0.209   0.417  -0.199  0.00  0.00    +0.077 C 
BRANCH  14  15
ATOM     15  C   UNL     1       0.771  -0.307  -1.124  0.00  0.00    +0.007 C 
ATOM     16  C   UNL     1       2.020  -0.921  -0.489  0.00  0.00    +0.005 C 
ATOM     17  C   UNL     1       2.140   0.339  -1.348  0.00  0.00    +0.005 C 
ENDBRANCH  14  15
ENDBRANCH  11  14
ENDBRANCH   8  11
ENDBRANCH   1   8
BRANCH   6  18
ATOM     18  N   UNL     1      -4.052   1.130   0.961  0.00  0.00    -0.266 N 
ATOM     19  H   UNL     1      -3.862   0.390   0.364  0.00  0.00    +0.167 HD
BRANCH  18  20
ATOM     20  N   UNL     1      -5.076   1.990   0.680  0.00  0.00    -0.255 NA
ATOM     21  H   UNL     1      -4.746   2.942   0.638  0.00  0.00    +0.140 HD
ATOM     22  H   UNL     1      -5.540   1.730  -0.177  0.00  0.00    +0.140 HD
ENDBRANCH  18  20
ENDBRANCH   6  18
TORSDOF 6
