REMARK  Name = ZINC19847868
REMARK  4 active torsions:
REMARK  status: ('A' for Active; 'I' for Inactive)
REMARK    1  A    between atoms: C_8  and  S_10
REMARK    2  A    between atoms: S_10  and  C_11
REMARK    3  A    between atoms: C_13  and  C_17
REMARK    4  A    between atoms: N_18  and  O_19
REMARK                            x       y       z     vdW  Elec       q    Type
REMARK                         _______ _______ _______ _____ _____    ______ ____
ROOT
ATOM      1  C   UNL     1       5.466  -3.083  -0.066  0.00  0.00    +0.106 A 
ATOM      2  C   UNL     1       6.476  -4.038  -0.086  0.00  0.00    +0.046 A 
ATOM      3  C   UNL     1       7.806  -3.614  -0.097  0.00  0.00    +0.022 A 
ATOM      4  C   UNL     1       8.063  -2.237  -0.086  0.00  0.00    +0.031 A 
ATOM      5  C   UNL     1       7.003  -1.356  -0.067  0.00  0.00    +0.112 A 
ATOM      6  N   UNL     1       5.757  -1.791  -0.062  0.00  0.00    -0.248 NA
ENDROOT
BRANCH   3   7
ATOM      7  C   UNL     1       8.916  -4.595  -0.118  0.00  0.00    +0.163 C 
ATOM      8  N   UNL     1       8.658  -5.869  -0.127  0.00  0.00    -0.072 NA
ATOM      9  N   UNL     1      10.229  -4.154  -0.128  0.00  0.00    -0.340 N 
ATOM     10  H   UNL     1      10.421  -3.203  -0.121  0.00  0.00    +0.144 HD
ATOM     11  H   UNL     1      10.956  -4.796  -0.142  0.00  0.00    +0.144 HD
BRANCH   8  12
ATOM     12  O   UNL     1       9.719  -6.806  -0.147  0.00  0.00    -0.408 OA
ATOM     13  H   UNL     1       9.430  -7.728  -0.152  0.00  0.00    +0.328 HD
ENDBRANCH   8  12
ENDBRANCH   3   7
BRANCH   1  14
ATOM     14  S   UNL     1       3.781  -3.598  -0.053  0.00  0.00    -0.011 S 
BRANCH  14  22
ATOM     15  C   UNL     1      -0.017   1.373   0.010  0.00  0.00    +0.002 A 
ATOM     16  C   UNL     1       1.170   2.091   0.002  0.00  0.00    +0.004 A 
ATOM     17  C   UNL     1       2.384   1.435  -0.013  0.00  0.00    +0.048 A 
ATOM     18  C   UNL     1       2.421   0.051  -0.021  0.00  0.00    +0.156 A 
ATOM     19  C   UNL     1       1.223  -0.680  -0.013  0.00  0.00    +0.110 A 
ATOM     20  C   UNL     1       0.002  -0.004   0.002  0.00  0.00    +0.031 A 
ATOM     21  N   UNL     1       1.569  -1.996  -0.024  0.00  0.00    -0.203 NA
ATOM     22  C   UNL     1       2.875  -2.087  -0.036  0.00  0.00    +0.264 A 
ATOM     23  O   UNL     1       3.423  -0.859  -0.035  0.00  0.00    -0.430 OA
ENDBRANCH  14  22
ENDBRANCH   1  14
TORSDOF 4
