REMARK  Name = ZINC53552331
REMARK  6 active torsions:
REMARK  status: ('A' for Active; 'I' for Inactive)
REMARK    1  A    between atoms: C_1  and  N_2
REMARK    2  A    between atoms: N_10  and  C_25
REMARK    3  A    between atoms: N_14  and  C_15
REMARK    4  A    between atoms: C_15  and  C_16
REMARK    5  A    between atoms: C_16  and  S_17
REMARK    6  A    between atoms: S_17  and  C_18
REMARK                            x       y       z     vdW  Elec       q    Type
REMARK                         _______ _______ _______ _____ _____    ______ ____
ROOT
ATOM      1  C   UNL     1      -0.018   1.461   0.010  0.00  0.00    +0.152 C 
ATOM      2  N   UNL     1       0.002  -0.004   0.002  0.00  0.00    -0.309 N 
ATOM      3  C   UNL     1       0.008  -0.826  -1.117  0.00  0.00    +0.152 A 
ATOM      4  C   UNL     1      -0.002  -0.600  -2.505  0.00  0.00    +0.280 A 
ATOM      5  O   UNL     1      -0.019   0.537  -2.943  0.00  0.00    -0.265 OA
ATOM      6  N   UNL     1       0.008  -1.655  -3.345  0.00  0.00    -0.273 N 
ATOM      7  H   UNL     1       0.001  -1.502  -4.303  0.00  0.00    +0.173 HD
ATOM      8  C   UNL     1       0.028  -2.914  -2.876  0.00  0.00    +0.331 A 
ATOM      9  O   UNL     1       0.037  -3.841  -3.664  0.00  0.00    -0.246 OA
ATOM     10  N   UNL     1       0.038  -3.175  -1.555  0.00  0.00    -0.280 N 
ATOM     11  C   UNL     1       0.028  -2.133  -0.642  0.00  0.00    +0.170 A 
ATOM     12  N   UNL     1       0.033  -2.077   0.691  0.00  0.00    -0.196 NA
ATOM     13  C   UNL     1       0.024  -0.821   1.088  0.00  0.00    +0.198 A 
ATOM     14  N   UNL     1       0.031  -0.401   2.399  0.00  0.00    -0.314 N 
ATOM     15  C   UNL     1       0.059  -4.562  -1.083  0.00  0.00    +0.155 C 
ATOM     16  H   UNL     1       0.020   0.547   2.604  0.00  0.00    +0.149 HD
ENDROOT
BRANCH  14  17
ATOM     17  C   UNL     1       0.055  -1.386   3.483  0.00  0.00    +0.115 C 
BRANCH  17  18
ATOM     18  C   UNL     1       0.059  -0.661   4.830  0.00  0.00    +0.093 C 
BRANCH  18  19
ATOM     19  S   UNL     1       0.089  -1.881   6.173  0.00  0.00    -0.124 S 
BRANCH  19  20
ATOM     20  C   UNL     1       0.090  -0.901   7.638  0.00  0.00    +0.008 A 
ATOM     21  C   UNL     1       0.064   0.485   7.549  0.00  0.00    +0.016 A 
ATOM     22  C   UNL     1       0.066   1.250   8.699  0.00  0.00    +0.021 A 
ATOM     23  C   UNL     1       0.092   0.636   9.939  0.00  0.00    +0.041 A 
ATOM     24  C   UNL     1       0.117  -0.744  10.031  0.00  0.00    +0.021 A 
ATOM     25  C   UNL     1       0.111  -1.514   8.885  0.00  0.00    +0.016 A 
ATOM     26 CL   UNL     1       0.094   1.601  11.383  0.00  0.00    -0.084 Cl
ENDBRANCH  19  20
ENDBRANCH  18  19
ENDBRANCH  17  18
ENDBRANCH  14  17
TORSDOF 4
