REMARK  Name = ZINC39361846
REMARK  9 active torsions:
REMARK  status: ('A' for Active; 'I' for Inactive)
REMARK    1  A    between atoms: C_1  and  C_2
REMARK    2  A    between atoms: C_5  and  C_34
REMARK    3  A    between atoms: C_6  and  N_8
REMARK    4  A    between atoms: C_9  and  C_25
REMARK    5  A    between atoms: C_13  and  S_14
REMARK    6  A    between atoms: S_14  and  C_15
REMARK    7  A    between atoms: C_15  and  C_16
REMARK    8  A    between atoms: N_18  and  C_19
REMARK    9  A    between atoms: C_25  and  C_26
REMARK                            x       y       z     vdW  Elec       q    Type
REMARK                         _______ _______ _______ _____ _____    ______ ____
ROOT
ATOM      1  N   UNL     1       0.051  -2.808   2.385  0.00  0.00    -0.258 N 
ATOM      2  C   UNL     1       1.241  -3.243   3.136  0.00  0.00    +0.187 C 
ATOM      3  N   UNL     1       0.684  -3.945   4.305  0.00  0.00    -0.246 N 
ATOM      4  N   UNL     1      -0.708  -3.881   4.172  0.00  0.00    -0.162 NA
ATOM      5  C   UNL     1      -1.052  -3.242   3.105  0.00  0.00    +0.180 C 
ATOM      6  H   UNL     1       1.182  -4.367   5.023  0.00  0.00    +0.170 HD
ENDROOT
BRANCH   1  12
ATOM      7  C   UNL     1      -0.007   1.506   0.030  0.00  0.00    +0.044 C 
ATOM      8  C   UNL     1       0.008  -0.001   0.013  0.00  0.00    -0.049 A 
ATOM      9  C   UNL     1       0.006  -0.678  -1.193  0.00  0.00    +0.004 A 
ATOM     10  C   UNL     1       0.020  -2.061  -1.214  0.00  0.00    +0.005 A 
ATOM     11  C   UNL     1       0.035  -2.770  -0.029  0.00  0.00    -0.029 A 
ATOM     12  C   UNL     1       0.037  -2.094   1.184  0.00  0.00    +0.041 A 
ATOM     13  C   UNL     1       0.029  -0.704   1.201  0.00  0.00    +0.027 A 
ATOM     14  C   UNL     1       0.048  -4.277  -0.052  0.00  0.00    +0.045 C 
ENDBRANCH   1  12
BRANCH   5  15
ATOM     15  S   UNL     1      -2.722  -2.960   2.619  0.00  0.00    -0.079 S 
BRANCH  15  16
ATOM     16  C   UNL     1      -3.700  -3.745   3.930  0.00  0.00    +0.173 C 
BRANCH  16  17
ATOM     17  C   UNL     1      -5.167  -3.574   3.633  0.00  0.00    +0.227 C 
ATOM     18  O   UNL     1      -5.519  -2.981   2.635  0.00  0.00    -0.275 OA
ATOM     19  N   UNL     1      -6.089  -4.081   4.476  0.00  0.00    -0.285 N 
ATOM     20  H   UNL     1      -5.809  -4.612   5.238  0.00  0.00    +0.155 HD
BRANCH  19  21
ATOM     21  C   UNL     1      -7.449  -3.840   4.253  0.00  0.00    +0.033 A 
ATOM     22  C   UNL     1      -8.310  -3.666   5.328  0.00  0.00    +0.023 A 
ATOM     23  C   UNL     1      -9.652  -3.429   5.104  0.00  0.00    +0.002 A 
ATOM     24  C   UNL     1     -10.138  -3.363   3.811  0.00  0.00    +0.000 A 
ATOM     25  C   UNL     1      -9.283  -3.535   2.738  0.00  0.00    +0.002 A 
ATOM     26  C   UNL     1      -7.939  -3.767   2.955  0.00  0.00    +0.023 A 
ENDBRANCH  19  21
ENDBRANCH  16  17
ENDBRANCH  15  16
ENDBRANCH   5  15
BRANCH   2  27
ATOM     27  C   UNL     1       2.069  -2.034   3.576  0.00  0.00    +0.097 C 
BRANCH  27  28
ATOM     28  C   UNL     1       3.340  -2.508   4.234  0.00  0.00    +0.029 A 
ATOM     29  N   UNL     1       3.345  -2.835   5.563  0.00  0.00    -0.311 N 
ATOM     30  C   UNL     1       4.474  -3.260   6.159  0.00  0.00    +0.327 A 
ATOM     31  O   UNL     1       4.456  -3.546   7.341  0.00  0.00    -0.247 OA
ATOM     32  N   UNL     1       5.622  -3.373   5.466  0.00  0.00    -0.275 N 
ATOM     33  C   UNL     1       5.658  -3.060   4.155  0.00  0.00    +0.254 A 
ATOM     34  O   UNL     1       6.697  -3.163   3.527  0.00  0.00    -0.268 OA
ATOM     35  C   UNL     1       4.476  -2.617   3.514  0.00  0.00    +0.091 A 
ATOM     36  H   UNL     1       6.427  -3.681   5.912  0.00  0.00    +0.173 HD
ATOM     37  H   UNL     1       2.527  -2.760   6.079  0.00  0.00    +0.170 HD
ENDBRANCH  27  28
ENDBRANCH   2  27
TORSDOF 7
