REMARK  Name = ZINC09593777
REMARK  4 active torsions:
REMARK  status: ('A' for Active; 'I' for Inactive)
REMARK    1  A    between atoms: C_1  and  C_2
REMARK    2  A    between atoms: C_10  and  C_12
REMARK    3  A    between atoms: C_12  and  S_13
REMARK    4  A    between atoms: S_13  and  C_14
REMARK                            x       y       z     vdW  Elec       q    Type
REMARK                         _______ _______ _______ _____ _____    ______ ____
ROOT
ATOM      1  S   UNL     1      -1.419  -1.045   0.009  0.00  0.00    -0.079 S 
ENDROOT
BRANCH   1   2
ATOM      2  C   UNL     1       0.002  -0.004   0.002  0.00  0.00    +0.196 A 
ATOM      3  N   UNL     1       1.236  -0.413  -0.012  0.00  0.00    -0.146 NA
ATOM      4  N   UNL     1       2.078   0.707  -0.014  0.00  0.00    -0.243 N 
ATOM      5  H   UNL     1       3.047   0.698  -0.023  0.00  0.00    +0.192 HD
ATOM      6  C   UNL     1       1.276   1.818  -0.000  0.00  0.00    +0.232 A 
ATOM      7  N   UNL     1      -0.017   1.375   0.010  0.00  0.00    -0.255 N 
ATOM      8  C   UNL     1      -0.836   2.493   0.028  0.00  0.00    +0.077 A 
ATOM      9  C   UNL     1      -2.210   2.677   0.038  0.00  0.00    +0.028 A 
ATOM     10  C   UNL     1      -2.733   3.953   0.051  0.00  0.00    +0.002 A 
ATOM     11  C   UNL     1      -1.892   5.057   0.048  0.00  0.00    +0.002 A 
ATOM     12  C   UNL     1      -0.525   4.895   0.034  0.00  0.00    +0.030 A 
ATOM     13  C   UNL     1       0.021   3.607   0.021  0.00  0.00    +0.092 A 
ATOM     14  N   UNL     1       1.292   3.135   0.006  0.00  0.00    -0.211 NA
ENDBRANCH   1   2
BRANCH   1  15
ATOM     15  C   UNL     1      -0.733  -2.724  -0.006  0.00  0.00    +0.133 C 
BRANCH  15  25
ATOM     16  C   UNL     1      -5.453  -7.262  -0.946  0.00  0.00    +0.064 C 
ATOM     17  C   UNL     1      -4.971  -6.431   0.215  0.00  0.00    +0.033 A 
ATOM     18  C   UNL     1      -5.567  -6.553   1.401  0.00  0.00    +0.070 A 
ATOM     19  S   UNL     1      -4.646  -5.389   2.395  0.00  0.00    -0.057 S 
ATOM     20  C   UNL     1      -3.531  -4.832   1.125  0.00  0.00    +0.180 A 
ATOM     21  N   UNL     1      -3.924  -5.559   0.034  0.00  0.00    -0.259 N 
ATOM     22  C   UNL     1      -3.233  -5.341  -1.125  0.00  0.00    +0.259 A 
ATOM     23  O   UNL     1      -3.529  -5.955  -2.138  0.00  0.00    -0.267 OA
ATOM     24  C   UNL     1      -2.188  -4.417  -1.149  0.00  0.00    +0.095 A 
ATOM     25  C   UNL     1      -1.859  -3.727  -0.001  0.00  0.00    +0.059 A 
ATOM     26  N   UNL     1      -2.548  -3.966   1.111  0.00  0.00    -0.227 NA
ENDBRANCH  15  25
ENDBRANCH   1  15
TORSDOF 3
