REMARK  Name = ZINC04590530
REMARK  9 active torsions:
REMARK  status: ('A' for Active; 'I' for Inactive)
REMARK    1  A    between atoms: C_1  and  C_2
REMARK    2  A    between atoms: C_2  and  C_3
REMARK    3  A    between atoms: C_3  and  C_4
REMARK    4  A    between atoms: C_4  and  C_5
REMARK    5  A    between atoms: C_8  and  C_11
REMARK    6  A    between atoms: C_14  and  N_15
REMARK    7  A    between atoms: N_15  and  C_16
REMARK    8  A    between atoms: C_19  and  C_23
REMARK    9  A    between atoms: C_21  and  C_22
REMARK                            x       y       z     vdW  Elec       q    Type
REMARK                         _______ _______ _______ _____ _____    ______ ____
ROOT
ATOM      1  C   UNL     1       3.432  -3.883  -5.999  0.00  0.00    +0.232 C 
ATOM      2  N   UNL     1       4.711  -4.120  -6.070  0.00  0.00    -0.204 NA
ATOM      3  C   UNL     1       5.016  -4.546  -7.333  0.00  0.00    +0.165 C 
ATOM      4  C   UNL     1       6.258  -4.900  -7.819  0.00  0.00    +0.107 C 
ATOM      5  C   UNL     1       3.743  -4.549  -8.064  0.00  0.00    +0.366 C 
ATOM      6  O   UNL     1       3.559  -4.864  -9.226  0.00  0.00    -0.243 OA
ATOM      7  O   UNL     1       2.818  -4.134  -7.172  0.00  0.00    -0.402 OA
ENDROOT
BRANCH   1  11
ATOM      8  C   UNL     1       1.444  -2.513  -2.505  0.00  0.00    -0.047 A 
ATOM      9  C   UNL     1       0.723  -2.741  -3.663  0.00  0.00    +0.004 A 
ATOM     10  C   UNL     1       1.362  -3.186  -4.802  0.00  0.00    +0.013 A 
ATOM     11  C   UNL     1       2.741  -3.406  -4.784  0.00  0.00    +0.037 A 
ATOM     12  C   UNL     1       3.463  -3.175  -3.611  0.00  0.00    +0.013 A 
ATOM     13  C   UNL     1       2.812  -2.724  -2.482  0.00  0.00    +0.004 A 
BRANCH   8  14
ATOM     14  C   UNL     1       0.739  -2.027  -1.265  0.00  0.00    +0.035 C 
BRANCH  14  15
ATOM     15  C   UNL     1       0.718  -0.497  -1.257  0.00  0.00    +0.004 C 
BRANCH  15  17
ATOM     16  C   UNL     1      -0.019   1.526   0.010  0.00  0.00    +0.004 C 
ATOM     17  C   UNL     1       0.002  -0.004   0.002  0.00  0.00    -0.003 C 
ENDBRANCH  15  17
ENDBRANCH  14  15
ENDBRANCH   8  14
ENDBRANCH   1  11
BRANCH   4  18
ATOM     18  N   UNL     1       7.348  -4.842  -7.006  0.00  0.00    -0.318 N 
ATOM     19  H   UNL     1       7.251  -4.552  -6.085  0.00  0.00    +0.152 HD
BRANCH  18  20
ATOM     20  C   UNL     1       8.605  -5.200  -7.497  0.00  0.00    +0.034 A 
ATOM     21  C   UNL     1       8.746  -5.611  -8.817  0.00  0.00    +0.024 A 
ATOM     22  C   UNL     1       9.991  -5.963  -9.300  0.00  0.00    +0.005 A 
ATOM     23  C   UNL     1      11.097  -5.909  -8.470  0.00  0.00    -0.050 A 
ATOM     24  C   UNL     1      10.960  -5.501  -7.156  0.00  0.00    +0.008 A 
ATOM     25  C   UNL     1       9.719  -5.142  -6.669  0.00  0.00    -0.029 A 
ATOM     26  C   UNL     1       9.572  -4.692  -5.238  0.00  0.00    +0.045 C 
ATOM     27  C   UNL     1      12.454  -6.295  -9.001  0.00  0.00    +0.044 C 
ENDBRANCH  18  20
ENDBRANCH   4  18
TORSDOF 6
