REMARK  Name = ZINC49243424
REMARK  9 active torsions:
REMARK  status: ('A' for Active; 'I' for Inactive)
REMARK    1  A    between atoms: C_1  and  C_2
REMARK    2  A    between atoms: N_5  and  C_8
REMARK    3  A    between atoms: C_8  and  C_9
REMARK    4  A    between atoms: C_12  and  C_15
REMARK    5  A    between atoms: C_15  and  N_16
REMARK    6  A    between atoms: N_19  and  C_20
REMARK    7  A    between atoms: C_20  and  C_21
REMARK    8  A    between atoms: C_21  and  C_23
REMARK    9  A    between atoms: C_21  and  O_31
REMARK                            x       y       z     vdW  Elec       q    Type
REMARK                         _______ _______ _______ _____ _____    ______ ____
ROOT
ATOM      1  N   UNL     1       2.010  -4.413   7.195  0.00  0.00    -0.295 N 
ATOM      2  C   UNL     1       2.585  -4.555   8.405  0.00  0.00    +0.300 C 
ATOM      3  O   UNL     1       2.746  -5.665   8.875  0.00  0.00    -0.253 OA
ATOM      4  N   UNL     1       2.982  -3.467   9.094  0.00  0.00    -0.297 N 
ATOM      5  H   UNL     1       1.881  -3.528   6.820  0.00  0.00    +0.151 HD
ATOM      6  H   UNL     1       2.854  -2.582   8.719  0.00  0.00    +0.150 HD
ENDROOT
BRANCH   1   7
ATOM      7  C   UNL     1       1.578  -5.596   6.446  0.00  0.00    +0.141 C 
BRANCH   7  11
ATOM      8  C   UNL     1      -0.143  -4.380   2.730  0.00  0.00    -0.064 A 
ATOM      9  C   UNL     1       1.212  -4.640   2.812  0.00  0.00    +0.002 A 
ATOM     10  C   UNL     1       1.769  -5.033   4.014  0.00  0.00    +0.005 A 
ATOM     11  C   UNL     1       0.971  -5.166   5.135  0.00  0.00    -0.030 A 
ATOM     12  C   UNL     1      -0.384  -4.906   5.053  0.00  0.00    +0.005 A 
ATOM     13  C   UNL     1      -0.940  -4.508   3.852  0.00  0.00    +0.002 A 
BRANCH   8  14
ATOM     14  C   UNL     1      -0.750  -3.952   1.419  0.00  0.00    -0.043 C 
BRANCH  14  19
ATOM     15  C   UNL     1      -0.019   1.526   0.010  0.00  0.00    +0.007 C 
ATOM     16  C   UNL     1       0.002  -0.004   0.002  0.00  0.00    -0.018 C 
ATOM     17  C   UNL     1      -1.434  -0.536   0.023  0.00  0.00    -0.016 C 
ATOM     18  C   UNL     1      -1.405  -2.064   0.095  0.00  0.00    -0.078 C 
ATOM     19  N   UNL     1      -0.707  -2.487   1.315  0.00  0.00    +0.382 N 
ATOM     20  C   UNL     1       0.691  -2.042   1.269  0.00  0.00    -0.078 C 
ATOM     21  C   UNL     1       0.743  -0.513   1.242  0.00  0.00    -0.016 C 
ATOM     22  H   UNL     1      -1.162  -2.082   2.119  0.00  0.00    -0.081 HD
ENDBRANCH  14  19
ENDBRANCH   8  14
ENDBRANCH   7  11
ENDBRANCH   1   7
BRANCH   4  23
ATOM     23  C   UNL     1       3.608  -3.621  10.410  0.00  0.00    +0.141 C 
BRANCH  23  24
ATOM     24  C   UNL     1       3.961  -2.243  10.972  0.00  0.00    +0.162 C 
BRANCH  24  25
ATOM     25  C   UNL     1       4.604  -2.401  12.325  0.00  0.00    -0.015 A 
ATOM     26  C   UNL     1       5.963  -2.636  12.420  0.00  0.00    +0.009 A 
ATOM     27  C   UNL     1       6.556  -2.781  13.660  0.00  0.00    +0.041 A 
ATOM     28  C   UNL     1       5.789  -2.693  14.809  0.00  0.00    +0.158 A 
ATOM     29  C   UNL     1       4.426  -2.457  14.713  0.00  0.00    +0.159 A 
ATOM     30  C   UNL     1       3.836  -2.307  13.470  0.00  0.00    +0.047 A 
ATOM     31  F   UNL     1       3.674  -2.370  15.833  0.00  0.00    -0.202 F 
ATOM     32  F   UNL     1       6.367  -2.836  16.021  0.00  0.00    -0.202 F 
ENDBRANCH  24  25
BRANCH  24  33
ATOM     33  O   UNL     1       4.870  -1.586  10.086  0.00  0.00    -0.386 OA
ATOM     34  H   UNL     1       5.701  -2.061   9.953  0.00  0.00    +0.210 HD
ENDBRANCH  24  33
ENDBRANCH  23  24
ENDBRANCH   4  23
TORSDOF 8
