REMARK  Name = ZINC12799683
REMARK  9 active torsions:
REMARK  status: ('A' for Active; 'I' for Inactive)
REMARK    1  A    between atoms: C_1  and  C_2
REMARK    2  A    between atoms: C_3  and  C_22
REMARK    3  A    between atoms: C_4  and  C_14
REMARK    4  A    between atoms: N_9  and  C_10
REMARK    5  A    between atoms: C_10  and  C_11
REMARK    6  A    between atoms: C_11  and  C_12
REMARK    7  A    between atoms: C_11  and  C_13
REMARK    8  A    between atoms: C_22  and  O_24
REMARK    9  A    between atoms: O_24  and  C_25
REMARK                            x       y       z     vdW  Elec       q    Type
REMARK                         _______ _______ _______ _____ _____    ______ ____
ROOT
ATOM      1  C   UNL     1      -4.893   2.212   3.030  0.00  0.00    +0.061 C 
ATOM      2  C   UNL     1      -4.311   2.173   1.640  0.00  0.00    +0.024 C 
ATOM      3  C   UNL     1      -3.084   1.643   1.448  0.00  0.00    +0.078 C 
ATOM      4  C   UNL     1      -2.537   1.623   0.036  0.00  0.00    +0.148 C 
ATOM      5  N   UNL     1      -3.394   2.188  -1.020  0.00  0.00    -0.288 N 
ATOM      6  C   UNL     1      -4.598   2.683  -0.671  0.00  0.00    +0.307 C 
ATOM      7  O   UNL     1      -5.314   3.152  -1.535  0.00  0.00    -0.252 OA
ATOM      8  N   UNL     1      -5.033   2.675   0.595  0.00  0.00    -0.259 N 
ATOM      9  H   UNL     1      -3.099   2.204  -1.944  0.00  0.00    +0.151 HD
ENDROOT
BRANCH   4  10
ATOM     10  C   UNL     1      -1.234   2.380   0.031  0.00  0.00    +0.031 A 
ATOM     11  C   UNL     1      -1.238   3.765   0.028  0.00  0.00    +0.130 A 
ATOM     12  C   UNL     1      -0.040   4.459   0.018  0.00  0.00    +0.039 A 
ATOM     13  C   UNL     1       1.158   3.770   0.017  0.00  0.00    +0.004 A 
ATOM     14  C   UNL     1       1.162   2.388   0.026  0.00  0.00    +0.020 A 
ATOM     15  C   UNL     1      -0.034   1.692   0.036  0.00  0.00    +0.049 A 
ATOM     16 CL   UNL     1      -0.029  -0.043   0.049  0.00  0.00    -0.083 Cl
ATOM     17  F   UNL     1      -2.409   4.438   0.028  0.00  0.00    -0.205 F 
ENDBRANCH   4  10
BRANCH   3  18
ATOM     18  C   UNL     1      -2.336   1.123   2.530  0.00  0.00    +0.339 C 
ATOM     19  O   UNL     1      -2.832   1.062   3.640  0.00  0.00    -0.245 OA
BRANCH  18  20
ATOM     20  O   UNL     1      -1.072   0.695   2.332  0.00  0.00    -0.465 OA
ATOM     21  C   UNL     1      -0.375   0.182   3.469  0.00  0.00    +0.280 C 
ENDBRANCH  18  20
ENDBRANCH   3  18
BRANCH   8  22
ATOM     22  C   UNL     1      -6.357   3.236   0.876  0.00  0.00    +0.118 C 
BRANCH  22  23
ATOM     23  C   UNL     1      -7.425   2.167   0.636  0.00  0.00    +0.001 C 
ATOM     24  C   UNL     1      -7.245   1.031   1.644  0.00  0.00    +0.009 C 
ATOM     25  C   UNL     1      -8.813   2.786   0.807  0.00  0.00    +0.009 C 
ENDBRANCH  22  23
ENDBRANCH   8  22
TORSDOF 5
