REMARK  Name = ZINC19959732
REMARK  3 active torsions:
REMARK  status: ('A' for Active; 'I' for Inactive)
REMARK    1  A    between atoms: C_1  and  C_2
REMARK    2  A    between atoms: C_7  and  C_19
REMARK    3  A    between atoms: C_13  and  C_18
REMARK                            x       y       z     vdW  Elec       q    Type
REMARK                         _______ _______ _______ _____ _____    ______ ____
ROOT
ATOM      1  C   UNL     1       0.311   1.652   0.820  0.00  0.00    +0.090 C 
ATOM      2  C   UNL     1       0.219   0.169   0.565  0.00  0.00    +0.150 A 
ATOM      3  N   UNL     1       0.143  -0.407  -0.638  0.00  0.00    -0.198 NA
ATOM      4  C   UNL     1       0.079  -1.702  -0.499  0.00  0.00    +0.219 A 
ATOM      5  N   UNL     1       0.108  -1.983   0.827  0.00  0.00    -0.221 N 
ATOM      6  N   UNL     1       0.207  -0.760   1.489  0.00  0.00    -0.153 NA
ATOM      7  C   UNL     1       0.044  -3.337   1.362  0.00  0.00    +0.176 C 
ATOM      8  C   UNL     1       0.288  -4.342   0.257  0.00  0.00    +0.041 C 
ATOM      9  C   UNL     1       0.245  -3.998  -1.048  0.00  0.00    +0.020 C 
ATOM     10  N   UNL     1      -0.004  -2.707  -1.449  0.00  0.00    -0.287 N 
ATOM     11  C   UNL     1       0.468  -5.028  -2.129  0.00  0.00    +0.055 C 
ATOM     12  C   UNL     1       1.437  -6.100  -1.626  0.00  0.00    -0.001 C 
ATOM     13  C   UNL     1       0.838  -6.740  -0.369  0.00  0.00    +0.083 C 
ATOM     14  C   UNL     1       0.566  -5.665   0.645  0.00  0.00    +0.163 C 
ATOM     15  O   UNL     1       0.587  -5.945   1.827  0.00  0.00    -0.292 OA
ATOM     16  C   UNL     1       1.633  -7.166  -2.706  0.00  0.00    +0.008 C 
ATOM     17  H   UNL     1      -0.232  -2.506  -2.370  0.00  0.00    +0.155 HD
ENDROOT
BRANCH   7  18
ATOM     18  C   UNL     1      -1.318  -3.575   1.960  0.00  0.00    -0.011 A 
ATOM     19  C   UNL     1      -2.422  -3.585   1.164  0.00  0.00    +0.006 A 
ATOM     20  C   UNL     1      -3.690  -3.804   1.699  0.00  0.00    +0.001 A 
ATOM     21  C   UNL     1      -3.861  -4.012   3.034  0.00  0.00    +0.008 A 
ATOM     22  C   UNL     1      -2.745  -4.009   3.886  0.00  0.00    -0.018 A 
ATOM     23  C   UNL     1      -1.455  -3.793   3.341  0.00  0.00    -0.012 A 
ATOM     24  C   UNL     1      -0.337  -3.796   4.194  0.00  0.00    +0.009 A 
ATOM     25  C   UNL     1      -0.508  -4.010   5.527  0.00  0.00    +0.001 A 
ATOM     26  C   UNL     1      -1.776  -4.229   6.062  0.00  0.00    +0.001 A 
ATOM     27  C   UNL     1      -2.882  -4.221   5.269  0.00  0.00    +0.008 A 
ENDBRANCH   7  18
TORSDOF 1
