REMARK  Name = ZINC62771522
REMARK  7 active torsions:
REMARK  status: ('A' for Active; 'I' for Inactive)
REMARK    1  A    between atoms: C_1  and  C_2
REMARK    2  A    between atoms: C_2  and  C_4
REMARK    3  A    between atoms: C_2  and  N_10
REMARK    4  A    between atoms: C_4  and  C_5
REMARK    5  A    between atoms: N_10  and  C_11
REMARK    6  A    between atoms: C_15  and  C_17
REMARK    7  A    between atoms: N_21  and  C_22
REMARK                            x       y       z     vdW  Elec       q    Type
REMARK                         _______ _______ _______ _____ _____    ______ ____
ROOT
ATOM      1  C   UNL     1      -2.372   0.180   1.482  0.00  0.00    +0.028 A 
ATOM      2  C   UNL     1      -1.856   0.557   2.717  0.00  0.00    +0.023 A 
ATOM      3  C   UNL     1      -2.523   0.226   3.880  0.00  0.00    +0.002 A 
ATOM      4  C   UNL     1      -3.708  -0.482   3.824  0.00  0.00    +0.012 A 
ATOM      5  C   UNL     1      -4.234  -0.865   2.590  0.00  0.00    +0.021 A 
ATOM      6  C   UNL     1      -3.563  -0.526   1.415  0.00  0.00    +0.034 A 
ENDROOT
BRANCH   5   7
ATOM      7  C   UNL     1      -5.503  -1.623   2.527  0.00  0.00    +0.164 A 
ATOM      8  N   UNL     1      -6.305  -1.721   1.491  0.00  0.00    -0.129 NA
ATOM      9  N   UNL     1      -7.314  -2.459   1.792  0.00  0.00    -0.138 NA
ATOM     10  C   UNL     1      -7.215  -2.871   3.027  0.00  0.00    +0.225 A 
ATOM     11  N   UNL     1      -6.060  -2.362   3.536  0.00  0.00    -0.317 N 
ATOM     12  C   UNL     1      -5.526  -2.560   4.886  0.00  0.00    +0.152 C 
ENDBRANCH   5   7
BRANCH   1  13
ATOM     13  N   UNL     1      -1.694   0.518   0.309  0.00  0.00    -0.341 N 
ATOM     14  H   UNL     1      -2.056   0.259  -0.553  0.00  0.00    +0.146 HD
BRANCH  13  16
ATOM     15  C   UNL     1      -0.734   2.763   0.464  0.00  0.00    +0.028 C 
ATOM     16  C   UNL     1      -0.435   1.265   0.379  0.00  0.00    +0.075 C 
BRANCH  16  17
ATOM     17  C   UNL     1       0.397   0.981  -0.873  0.00  0.00    +0.096 C 
BRANCH  17  18
ATOM     18  C   UNL     1       0.796  -0.473  -0.892  0.00  0.00    +0.107 A 
ATOM     19  C   UNL     1       0.096  -1.473  -1.457  0.00  0.00    +0.045 A 
ATOM     20  C   UNL     1       0.832  -2.661  -1.240  0.00  0.00    +0.041 A 
ATOM     21  C   UNL     1       1.937  -2.315  -0.556  0.00  0.00    +0.195 A 
ATOM     22  O   UNL     1       1.913  -0.988  -0.353  0.00  0.00    -0.468 OA
ENDBRANCH  17  18
ENDBRANCH  16  17
ENDBRANCH  13  16
ENDBRANCH   1  13
TORSDOF 5
