REMARK  Name = ZINC11603461
REMARK  7 active torsions:
REMARK  status: ('A' for Active; 'I' for Inactive)
REMARK    1  A    between atoms: C_1  and  C_2
REMARK    2  A    between atoms: C_7  and  C_9
REMARK    3  A    between atoms: C_7  and  C_27
REMARK    4  A    between atoms: C_7  and  N_56
REMARK    5  A    between atoms: C_9  and  N_10
REMARK    6  A    between atoms: C_11  and  C_13
REMARK    7  A    between atoms: C_13  and  C_14
REMARK                            x       y       z     vdW  Elec       q    Type
REMARK                         _______ _______ _______ _____ _____    ______ ____
ROOT
ATOM      1  N   UNL     1      -2.041   1.943   1.073  0.00  0.00    -0.316 N 
ATOM      2  C   UNL     1      -2.763   2.725   1.899  0.00  0.00    +0.215 C 
ATOM      3  O   UNL     1      -2.206   3.545   2.599  0.00  0.00    -0.276 OA
ATOM      4  H   UNL     1      -2.486   1.287   0.513  0.00  0.00    +0.149 HD
ENDROOT
BRANCH   1   5
ATOM      5  C   UNL     1      -0.584   2.083   1.018  0.00  0.00    +0.094 C 
BRANCH   5   6
ATOM      6  C   UNL     1      -0.013   1.086   0.008  0.00  0.00    -0.013 C 
BRANCH   6  13
ATOM      7  C   UNL     1      -1.721   2.172  -5.337  0.00  0.00    +0.007 C 
ATOM      8  C   UNL     1      -0.877   2.049  -4.067  0.00  0.00    -0.018 C 
ATOM      9  C   UNL     1      -0.811   0.581  -3.637  0.00  0.00    -0.015 C 
ATOM     10  C   UNL     1      -0.017   0.471  -2.334  0.00  0.00    -0.078 C 
ATOM     11  C   UNL     1      -0.701   2.697  -1.663  0.00  0.00    -0.078 C 
ATOM     12  C   UNL     1      -1.515   2.873  -2.946  0.00  0.00    -0.015 C 
ATOM     13  N   UNL     1      -0.697   1.267  -1.289  0.00  0.00    +0.386 N 
ATOM     14  H   UNL     1      -1.667   0.943  -1.202  0.00  0.00    -0.081 HD
ENDBRANCH   6  13
BRANCH   6  15
ATOM     15  C   UNL     1       1.470   1.313  -0.139  0.00  0.00    -0.022 A 
ATOM     16  C   UNL     1       2.498   0.548   0.302  0.00  0.00    +0.009 A 
ATOM     17  C   UNL     1       3.794   0.955   0.046  0.00  0.00    +0.008 A 
ATOM     18  C   UNL     1       3.998   2.113  -0.628  0.00  0.00    +0.045 A 
ATOM     19  S   UNL     1       2.328   2.663  -0.932  0.00  0.00    -0.103 S 
ENDBRANCH   6  15
ENDBRANCH   5   6
ENDBRANCH   1   5
BRANCH   2  20
ATOM     20  C   UNL     1      -4.262   2.581   1.956  0.00  0.00    +0.119 C 
BRANCH  20  21
ATOM     21  C   UNL     1      -4.833   3.578   2.966  0.00  0.00    +0.146 C 
ATOM     22  C   UNL     1      -6.338   3.524   2.937  0.00  0.00    +0.231 C 
ATOM     23  O   UNL     1      -6.934   4.359   2.289  0.00  0.00    -0.274 OA
ATOM     24  N   UNL     1      -7.045   2.605   3.586  0.00  0.00    -0.284 N 
ATOM     25  C   UNL     1      -6.554   1.642   4.462  0.00  0.00    +0.048 A 
ATOM     26  C   UNL     1      -7.357   0.560   4.806  0.00  0.00    +0.044 A 
ATOM     27  C   UNL     1      -6.888  -0.411   5.669  0.00  0.00    +0.043 A 
ATOM     28  C   UNL     1      -5.617  -0.314   6.208  0.00  0.00    +0.021 A 
ATOM     29  C   UNL     1      -4.814   0.765   5.889  0.00  0.00    +0.018 A 
ATOM     30  C   UNL     1      -5.282   1.743   5.027  0.00  0.00    +0.030 A 
ATOM     31  S   UNL     1      -4.274   3.141   4.641  0.00  0.00    -0.110 S 
ATOM     32 CL   UNL     1      -7.899  -1.762   6.080  0.00  0.00    -0.083 Cl
ATOM     33  H   UNL     1      -8.003   2.606   3.434  0.00  0.00    +0.155 HD
ENDBRANCH  20  21
ENDBRANCH   2  20
TORSDOF 6
