REMARK  Name = ZINC31890925
REMARK  8 active torsions:
REMARK  status: ('A' for Active; 'I' for Inactive)
REMARK    1  A    between atoms: C_1  and  C_2
REMARK    2  A    between atoms: C_2  and  C_3
REMARK    3  A    between atoms: C_3  and  C_5
REMARK    4  A    between atoms: C_3  and  N_6
REMARK    5  A    between atoms: C_7  and  N_24
REMARK    6  A    between atoms: C_8  and  C_15
REMARK    7  A    between atoms: C_15  and  N_16
REMARK    8  A    between atoms: C_20  and  C_23
REMARK                            x       y       z     vdW  Elec       q    Type
REMARK                         _______ _______ _______ _____ _____    ______ ____
ROOT
ATOM      1  N   UNL     1       0.214  -0.028  -0.170  0.00  0.00    -0.279 N 
ATOM      2  C   UNL     1      -0.686  -0.691  -0.968  0.00  0.00    +0.107 A 
ATOM      3  C   UNL     1      -0.869  -2.036  -0.800  0.00  0.00    +0.038 A 
ATOM      4  C   UNL     1      -0.138  -2.704   0.194  0.00  0.00    +0.257 A 
ATOM      5  O   UNL     1      -0.288  -3.901   0.366  0.00  0.00    -0.267 OA
ATOM      6  N   UNL     1       0.731  -2.014   0.959  0.00  0.00    -0.275 N 
ATOM      7  H   UNL     1       1.308  -2.531   1.740  0.00  0.00    +0.173 HD
ATOM      8  C   UNL     1       0.902  -0.692   0.776  0.00  0.00    +0.331 A 
ATOM      9  O   UNL     1       1.691  -0.087   1.478  0.00  0.00    -0.246 OA
ENDROOT
BRANCH   2  10
ATOM     10  N   UNL     1      -1.391  -0.012  -1.929  0.00  0.00    -0.344 N 
ATOM     11  H   UNL     1      -2.111  -0.548  -2.565  0.00  0.00    +0.144 HD
ATOM     12  H   UNL     1      -1.237   1.069  -2.062  0.00  0.00    +0.144 HD
ENDBRANCH   2  10
BRANCH   1  13
ATOM     13  C   UNL     1       0.420   1.412  -0.346  0.00  0.00    +0.090 C 
ATOM     14  C   UNL     1       1.891   1.680  -0.672  0.00  0.00    +0.031 C 
BRANCH  13  16
ATOM     15  C   UNL     1      -1.456   1.978   1.204  0.00  0.00    +0.006 C 
ATOM     16  C   UNL     1       0.043   2.143   0.944  0.00  0.00    +0.021 C 
ENDBRANCH  13  16
ENDBRANCH   1  13
BRANCH   3  17
ATOM     17  C   UNL     1      -1.846  -2.788  -1.666  0.00  0.00    -0.034 C 
BRANCH  17  18
ATOM     18  N   UNL     1      -1.133  -3.391  -2.800  0.00  0.00    +0.383 N 
ATOM     19  C   UNL     1       0.100  -4.052  -2.353  0.00  0.00    -0.078 C 
ATOM     20  C   UNL     1       0.888  -4.541  -3.571  0.00  0.00    -0.018 C 
ATOM     21  C   UNL     1       0.024  -5.518  -4.373  0.00  0.00    -0.001 C 
ATOM     22  C   UNL     1      -1.275  -4.820  -4.784  0.00  0.00    -0.031 C 
ATOM     23  C   UNL     1      -2.000  -4.323  -3.531  0.00  0.00    -0.075 C 
ATOM     24  C   UNL     1      -2.170  -5.808  -5.535  0.00  0.00    +0.005 C 
ATOM     25  H   UNL     1      -0.849  -2.584  -3.491  0.00  0.00    -0.081 HD
ENDBRANCH  17  18
ENDBRANCH   3  17
TORSDOF 5
