REMARK  Name = ZINC67127739
REMARK  5 active torsions:
REMARK  status: ('A' for Active; 'I' for Inactive)
REMARK    1  A    between atoms: C_1  and  N_2
REMARK    2  A    between atoms: C_11  and  C_13
REMARK    3  A    between atoms: N_15  and  N_16
REMARK    4  A    between atoms: C_17  and  C_19
REMARK    5  A    between atoms: C_22  and  C_24
REMARK                            x       y       z     vdW  Elec       q    Type
REMARK                         _______ _______ _______ _____ _____    ______ ____
ROOT
ATOM      1  C   UNL     1       2.645  -2.487  -0.024  0.00  0.00    +0.281 C 
ATOM      2  O   UNL     1       2.781  -3.695  -0.031  0.00  0.00    -0.267 OA
ATOM      3  N   UNL     1       3.730  -1.687  -0.025  0.00  0.00    -0.229 N 
ATOM      4  H   UNL     1       3.622  -0.723  -0.020  0.00  0.00    +0.173 HD
ENDROOT
BRANCH   1  15
ATOM      5  C   UNL     1      -0.018   1.461   0.010  0.00  0.00    +0.176 C 
ATOM      6  N   UNL     1       0.002  -0.004   0.002  0.00  0.00    -0.231 N 
ATOM      7  C   UNL     1      -1.177  -0.658   0.004  0.00  0.00    +0.275 A 
ATOM      8  O   UNL     1      -2.230  -0.046   0.012  0.00  0.00    -0.266 OA
ATOM      9  C   UNL     1      -1.163  -2.128  -0.004  0.00  0.00    +0.050 A 
ATOM     10  C   UNL     1      -2.323  -2.895  -0.002  0.00  0.00    +0.014 A 
ATOM     11  C   UNL     1      -2.224  -4.270  -0.009  0.00  0.00    +0.001 A 
ATOM     12  C   UNL     1      -0.982  -4.892  -0.018  0.00  0.00    +0.001 A 
ATOM     13  C   UNL     1       0.179  -4.149  -0.020  0.00  0.00    +0.011 A 
ATOM     14  C   UNL     1       0.102  -2.761  -0.013  0.00  0.00    +0.020 A 
ATOM     15  C   UNL     1       1.292  -1.896  -0.015  0.00  0.00    +0.155 A 
ATOM     16  N   UNL     1       1.137  -0.594  -0.012  0.00  0.00    -0.163 NA
ENDBRANCH   1  15
BRANCH   3  17
ATOM     17  N   UNL     1       5.014  -2.248  -0.034  0.00  0.00    -0.234 N 
ATOM     18  C   UNL     1       6.098  -1.448  -0.035  0.00  0.00    +0.233 C 
ATOM     19  O   UNL     1       5.963  -0.243  -0.028  0.00  0.00    -0.274 OA
ATOM     20  H   UNL     1       5.122  -3.212  -0.040  0.00  0.00    +0.173 HD
BRANCH  18  21
ATOM     21  C   UNL     1       7.479  -2.051  -0.045  0.00  0.00    +0.084 C 
ATOM     22  C   UNL     1       8.318  -1.877  -1.313  0.00  0.00    +0.022 C 
ATOM     23  C   UNL     1       8.670  -1.091  -0.048  0.00  0.00    +0.032 C 
BRANCH  23  24
ATOM     24  C   UNL     1       9.903  -1.509   0.711  0.00  0.00    -0.041 A 
ATOM     25  C   UNL     1      10.571  -2.668   0.359  0.00  0.00    +0.004 A 
ATOM     26  C   UNL     1      11.702  -3.053   1.054  0.00  0.00    +0.003 A 
ATOM     27  C   UNL     1      12.168  -2.280   2.101  0.00  0.00    +0.038 A 
ATOM     28  C   UNL     1      11.500  -1.119   2.454  0.00  0.00    +0.124 A 
ATOM     29  C   UNL     1      10.370  -0.731   1.753  0.00  0.00    +0.042 A 
ATOM     30  F   UNL     1      11.954  -0.363   3.477  0.00  0.00    -0.205 F 
ENDBRANCH  23  24
ENDBRANCH  18  21
ENDBRANCH   3  17
TORSDOF 4
