REMARK  Name = ZINC04150065
REMARK  9 active torsions:
REMARK  status: ('A' for Active; 'I' for Inactive)
REMARK    1  A    between atoms: C_1  and  C_2
REMARK    2  A    between atoms: C_5  and  S_8
REMARK    3  A    between atoms: S_8  and  N_11
REMARK    4  A    between atoms: N_11  and  C_12
REMARK    5  A    between atoms: N_30  and  C_31
REMARK    6  A    between atoms: C_33  and  O_39
REMARK    7  A    between atoms: C_35  and  O_37
REMARK    8  A    between atoms: O_37  and  C_38
REMARK    9  A    between atoms: O_39  and  C_40
REMARK                            x       y       z     vdW  Elec       q    Type
REMARK                         _______ _______ _______ _____ _____    ______ ____
ROOT
ATOM      1  C   UNL     1       1.718   4.275  -0.591  0.00  0.00    +0.112 A 
ATOM      2  C   UNL     1       2.644   3.573  -1.312  0.00  0.00    +0.031 A 
ATOM      3  C   UNL     1       2.422   2.210  -1.580  0.00  0.00    +0.024 A 
ATOM      4  C   UNL     1       1.294   1.606  -1.122  0.00  0.00    +0.027 A 
ATOM      5  N   UNL     1       0.337   2.314  -0.457  0.00  0.00    -0.310 N 
ATOM      6  C   UNL     1       0.560   3.613  -0.139  0.00  0.00    +0.274 A 
ATOM      7  O   UNL     1      -0.251   4.215   0.547  0.00  0.00    -0.266 OA
ATOM      8  C   UNL     1      -0.964   1.757  -0.086  0.00  0.00    +0.130 C 
ATOM      9  C   UNL     1      -0.971   0.240  -0.092  0.00  0.00    +0.027 C 
ATOM     10  C   UNL     1      -0.313  -0.278  -1.371  0.00  0.00    +0.018 C 
ATOM     11  C   UNL     1       1.166   0.117  -1.346  0.00  0.00    +0.054 C 
ATOM     12  C   UNL     1       1.840  -0.609  -0.169  0.00  0.00    +0.119 C 
ATOM     13  N   UNL     1       1.155  -0.178   1.060  0.00  0.00    -0.284 N 
ATOM     14  C   UNL     1      -0.301  -0.342   1.145  0.00  0.00    +0.114 C 
ATOM     15  C   UNL     1       1.849   0.354   2.086  0.00  0.00    +0.306 C 
ATOM     16  O   UNL     1       3.063   0.400   2.039  0.00  0.00    -0.252 OA
ATOM     17  N   UNL     1       1.197   0.834   3.163  0.00  0.00    -0.269 N 
ATOM     18  H   UNL     1       0.234   0.741   3.229  0.00  0.00    +0.156 HD
ENDROOT
BRANCH  17  19
ATOM     19  C   UNL     1       1.910   1.467   4.187  0.00  0.00    +0.042 A 
ATOM     20  C   UNL     1       3.180   1.021   4.528  0.00  0.00    +0.069 A 
ATOM     21  C   UNL     1       3.888   1.653   5.539  0.00  0.00    +0.125 A 
ATOM     22  C   UNL     1       3.324   2.723   6.217  0.00  0.00    +0.091 A 
ATOM     23  C   UNL     1       2.053   3.165   5.881  0.00  0.00    +0.125 A 
ATOM     24  C   UNL     1       1.346   2.538   4.867  0.00  0.00    +0.069 A 
BRANCH  23  25
ATOM     25  O   UNL     1       1.501   4.214   6.547  0.00  0.00    -0.495 OA
ATOM     26  C   UNL     1       2.285   4.812   7.580  0.00  0.00    +0.277 C 
ENDBRANCH  23  25
BRANCH  21  27
ATOM     27  O   UNL     1       5.133   1.220   5.868  0.00  0.00    -0.495 OA
ATOM     28  C   UNL     1       5.803   1.914   6.923  0.00  0.00    +0.277 C 
ENDBRANCH  21  27
ENDBRANCH  17  19
BRANCH   1  29
ATOM     29  N   UNL     1       1.918   5.632  -0.306  0.00  0.00    -0.211 N 
ATOM     30  H   UNL     1       1.231   6.137   0.155  0.00  0.00    +0.174 HD
BRANCH  29  31
ATOM     31  S   UNL     1       3.328   6.373  -0.759  0.00  0.00    +0.072 S 
ATOM     32  O   UNL     1       3.563   6.008  -2.112  0.00  0.00    -0.150 OA
ATOM     33  O   UNL     1       3.227   7.728  -0.342  0.00  0.00    -0.150 OA
BRANCH  31  38
ATOM     34  C   UNL     1       7.769   3.898   2.490  0.00  0.00    +0.044 C 
ATOM     35  C   UNL     1       6.660   4.516   1.679  0.00  0.00    -0.050 A 
ATOM     36  C   UNL     1       6.409   4.066   0.396  0.00  0.00    +0.005 A 
ATOM     37  C   UNL     1       5.391   4.634  -0.349  0.00  0.00    +0.029 A 
ATOM     38  C   UNL     1       4.625   5.650   0.190  0.00  0.00    +0.109 A 
ATOM     39  C   UNL     1       4.879   6.103   1.471  0.00  0.00    +0.029 A 
ATOM     40  C   UNL     1       5.894   5.533   2.217  0.00  0.00    +0.005 A 
ENDBRANCH  31  38
ENDBRANCH  29  31
ENDBRANCH   1  29
TORSDOF 6
