REMARK  Name = ZINC38806477
REMARK  6 active torsions:
REMARK  status: ('A' for Active; 'I' for Inactive)
REMARK    1  A    between atoms: C_1  and  C_2
REMARK    2  A    between atoms: C_10  and  C_12
REMARK    3  A    between atoms: N_14  and  C_15
REMARK    4  A    between atoms: C_15  and  C_16
REMARK    5  A    between atoms: C_16  and  N_17
REMARK    6  A    between atoms: N_17  and  C_18
REMARK                            x       y       z     vdW  Elec       q    Type
REMARK                         _______ _______ _______ _____ _____    ______ ____
ROOT
ATOM      1  C   UNL     1      -0.017   1.540  -0.002  0.00  0.00    +0.046 C 
ATOM      2  C   UNL     1      -0.110   0.036  -0.019  0.00  0.00    -0.024 A 
ATOM      3  C   UNL     1      -0.128  -0.633  -1.206  0.00  0.00    +0.005 A 
ATOM      4  C   UNL     1      -0.213  -2.022  -1.246  0.00  0.00    +0.001 A 
ATOM      5  C   UNL     1      -0.280  -2.751  -0.097  0.00  0.00    +0.010 A 
ATOM      6  C   UNL     1      -0.263  -2.094   1.144  0.00  0.00    +0.002 A 
ATOM      7  C   UNL     1      -0.172  -0.680   1.188  0.00  0.00    +0.076 A 
ATOM      8  N   UNL     1      -0.150  -0.041   2.364  0.00  0.00    -0.231 NA
ATOM      9  C   UNL     1      -0.208  -0.694   3.505  0.00  0.00    +0.137 A 
ATOM     10  C   UNL     1      -0.295  -2.106   3.541  0.00  0.00    +0.092 A 
ATOM     11  C   UNL     1      -0.333  -2.817   2.349  0.00  0.00    +0.032 A 
ATOM     12  N   UNL     1      -0.182   0.015   4.692  0.00  0.00    -0.327 N 
ATOM     13  H   UNL     1      -0.224  -0.457   5.539  0.00  0.00    +0.148 HD
ENDROOT
BRANCH  10  14
ATOM     14  C   UNL     1      -0.356  -2.794   4.795  0.00  0.00    +0.103 C 
ATOM     15  N   UNL     1      -0.405  -3.340   5.790  0.00  0.00    -0.191 NA
ENDBRANCH  10  14
BRANCH  12  16
ATOM     16  C   UNL     1      -0.092   1.477   4.671  0.00  0.00    +0.122 C 
BRANCH  16  17
ATOM     17  C   UNL     1      -0.081   2.008   6.106  0.00  0.00    +0.134 C 
BRANCH  17  18
ATOM     18  N   UNL     1       0.010   3.470   6.085  0.00  0.00    -0.254 N 
ATOM     19  C   UNL     1       1.216   4.070   6.093  0.00  0.00    +0.304 C 
ATOM     20  O   UNL     1       1.292   5.281   6.180  0.00  0.00    -0.253 OA
ATOM     21  N   UNL     1       2.339   3.329   6.005  0.00  0.00    -0.313 N 
ATOM     22  H   UNL     1       2.278   2.364   5.936  0.00  0.00    +0.146 HD
ATOM     23  H   UNL     1       3.207   3.762   6.011  0.00  0.00    +0.146 HD
BRANCH  18  24
ATOM     24  C   UNL     1      -1.157   4.243   6.057  0.00  0.00    +0.038 A 
ATOM     25  C   UNL     1      -1.357   5.163   5.036  0.00  0.00    +0.025 A 
ATOM     26  C   UNL     1      -2.509   5.924   5.010  0.00  0.00    +0.022 A 
ATOM     27  C   UNL     1      -3.463   5.771   6.000  0.00  0.00    +0.041 A 
ATOM     28  C   UNL     1      -3.266   4.855   7.019  0.00  0.00    +0.022 A 
ATOM     29  C   UNL     1      -2.119   4.088   7.046  0.00  0.00    +0.025 A 
ATOM     30 CL   UNL     1      -4.910   6.730   5.965  0.00  0.00    -0.084 Cl
ENDBRANCH  18  24
ENDBRANCH  17  18
ENDBRANCH  16  17
ENDBRANCH  12  16
TORSDOF 5
