REMARK  Name = ZINC12705597
REMARK  9 active torsions:
REMARK  status: ('A' for Active; 'I' for Inactive)
REMARK    1  A    between atoms: C_1  and  C_2
REMARK    2  A    between atoms: C_2  and  N_64
REMARK    3  A    between atoms: C_6  and  C_8
REMARK    4  A    between atoms: C_8  and  N_9
REMARK    5  A    between atoms: N_9  and  C_10
REMARK    6  A    between atoms: C_10  and  C_11
REMARK    7  A    between atoms: C_14  and  C_24
REMARK    8  A    between atoms: C_16  and  C_23
REMARK    9  A    between atoms: N_27  and  C_28
REMARK                            x       y       z     vdW  Elec       q    Type
REMARK                         _______ _______ _______ _____ _____    ______ ____
ROOT
ATOM      1  N   UNL     1       0.808   1.674  -0.192  0.00  0.00    -0.282 N 
ATOM      2  C   UNL     1      -0.456   1.209  -0.226  0.00  0.00    +0.307 C 
ATOM      3  O   UNL     1      -0.663   0.018  -0.361  0.00  0.00    -0.252 OA
ATOM      4  N   UNL     1      -1.492   2.064  -0.116  0.00  0.00    -0.267 N 
ATOM      5  H   UNL     1      -1.328   3.005   0.052  0.00  0.00    +0.156 HD
ENDROOT
BRANCH   4   6
ATOM      6  C   UNL     1      -2.805   1.594  -0.246  0.00  0.00    +0.070 A 
ATOM      7  C   UNL     1      -3.103   0.272   0.052  0.00  0.00    +0.026 A 
ATOM      8  C   UNL     1      -4.400  -0.188  -0.071  0.00  0.00    +0.002 A 
ATOM      9  C   UNL     1      -5.400   0.664  -0.501  0.00  0.00    +0.003 A 
ATOM     10  C   UNL     1      -5.108   1.982  -0.804  0.00  0.00    +0.040 A 
ATOM     11  C   UNL     1      -3.812   2.450  -0.678  0.00  0.00    +0.145 A 
ATOM     12  F   UNL     1      -3.526   3.737  -0.973  0.00  0.00    -0.204 F 
ENDBRANCH   4   6
BRANCH   1  13
ATOM     13  C   UNL     1       1.057   3.109  -0.029  0.00  0.00    +0.094 C 
BRANCH  13  17
ATOM     14  C   UNL     1      -0.369   3.965   3.226  0.00  0.00    -0.078 C 
ATOM     15  C   UNL     1       0.670   5.102   3.127  0.00  0.00    -0.020 C 
ATOM     16  C   UNL     1       1.187   4.977   1.669  0.00  0.00    -0.016 C 
ATOM     17  C   UNL     1       1.166   3.442   1.460  0.00  0.00    -0.051 C 
ATOM     18  N   UNL     1      -0.048   2.992   2.169  0.00  0.00    +0.382 N 
ATOM     19  H   UNL     1      -0.830   2.941   1.506  0.00  0.00    -0.081 HD
BRANCH  18  21
ATOM     20  C   UNL     1      -1.062   1.237   3.565  0.00  0.00    -0.017 C 
ATOM     21  C   UNL     1       0.174   1.647   2.762  0.00  0.00    -0.082 C 
ENDBRANCH  18  21
ENDBRANCH  13  17
ENDBRANCH   1  13
BRANCH   1  22
ATOM     22  C   UNL     1       1.934   0.745  -0.317  0.00  0.00    +0.149 C 
BRANCH  22  23
ATOM     23  C   UNL     1       2.298   0.590  -1.771  0.00  0.00    +0.035 A 
ATOM     24  C   UNL     1       3.285   1.351  -2.305  0.00  0.00    +0.020 A 
ATOM     25  C   UNL     1       3.615   1.176  -3.721  0.00  0.00    +0.002 A 
ATOM     26  C   UNL     1       4.623   1.931  -4.328  0.00  0.00    -0.041 A 
ATOM     27  C   UNL     1       4.907   1.744  -5.651  0.00  0.00    +0.007 A 
ATOM     28  C   UNL     1       4.203   0.810  -6.399  0.00  0.00    -0.048 A 
ATOM     29  C   UNL     1       3.205   0.054  -5.822  0.00  0.00    +0.029 A 
ATOM     30  C   UNL     1       2.899   0.228  -4.476  0.00  0.00    +0.050 A 
ATOM     31  N   UNL     1       1.906  -0.515  -3.873  0.00  0.00    -0.322 N 
ATOM     32  H   UNL     1       1.414  -1.167  -4.395  0.00  0.00    +0.169 HD
ATOM     33  C   UNL     1       1.614  -0.351  -2.571  0.00  0.00    +0.254 A 
ATOM     34  O   UNL     1       0.734  -1.028  -2.069  0.00  0.00    -0.268 OA
ATOM     35  C   UNL     1       4.533   0.621  -7.857  0.00  0.00    +0.044 C 
ATOM     36  C   UNL     1       5.394   2.948  -3.525  0.00  0.00    +0.044 C 
ENDBRANCH  22  23
ENDBRANCH   1  22
TORSDOF 6
