REMARK  Name = ZINC08791694
REMARK  9 active torsions:
REMARK  status: ('A' for Active; 'I' for Inactive)
REMARK    1  A    between atoms: C_1  and  C_2
REMARK    2  A    between atoms: C_2  and  C_4
REMARK    3  A    between atoms: C_2  and  N_12
REMARK    4  A    between atoms: N_6  and  C_7
REMARK    5  A    between atoms: C_7  and  C_8
REMARK    6  A    between atoms: C_8  and  C_9
REMARK    7  A    between atoms: C_9  and  C_10
REMARK    8  A    between atoms: C_9  and  C_11
REMARK    9  A    between atoms: C_13  and  C_15
REMARK                            x       y       z     vdW  Elec       q    Type
REMARK                         _______ _______ _______ _____ _____    ______ ____
ROOT
ATOM      1  C   UNL     1       0.780  -1.133   3.576  0.00  0.00    +0.167 C 
ATOM      2  C   UNL     1       1.335  -2.540   3.312  0.00  0.00    +0.069 C 
ATOM      3  C   UNL     1       0.244  -3.568   3.466  0.00  0.00    -0.015 A 
ATOM      4  C   UNL     1       0.262  -4.944   3.004  0.00  0.00    +0.003 A 
ATOM      5  C   UNL     1       1.219  -5.695   2.314  0.00  0.00    +0.010 A 
ATOM      6  C   UNL     1       0.899  -7.001   2.035  0.00  0.00    +0.001 A 
ATOM      7  C   UNL     1      -0.311  -7.559   2.413  0.00  0.00    +0.002 A 
ATOM      8  C   UNL     1      -1.276  -6.838   3.097  0.00  0.00    +0.026 A 
ATOM      9  C   UNL     1      -0.978  -5.510   3.394  0.00  0.00    +0.047 A 
ATOM     10  N   UNL     1      -1.683  -4.536   4.040  0.00  0.00    -0.356 N 
ATOM     11  C   UNL     1      -0.951  -3.380   4.071  0.00  0.00    +0.046 A 
ATOM     12  H   UNL     1      -2.569  -4.646   4.418  0.00  0.00    +0.166 HD
ATOM     13  C   UNL     1      -1.373  -2.056   4.661  0.00  0.00    +0.155 C 
ATOM     14  N   UNL     1      -0.149  -1.222   4.707  0.00  0.00    -0.273 N 
ATOM     15  C   UNL     1      -0.067  -0.653   5.917  0.00  0.00    +0.248 C 
ATOM     16  O   UNL     1       0.682   0.258   6.215  0.00  0.00    -0.270 OA
ATOM     17  C   UNL     1      -1.020  -1.296   6.828  0.00  0.00    +0.042 A 
ATOM     18  C   UNL     1      -1.851  -2.181   6.067  0.00  0.00    -0.009 A 
ATOM     19  C   UNL     1      -2.848  -2.938   6.641  0.00  0.00    +0.006 A 
ATOM     20  C   UNL     1      -3.041  -2.797   8.012  0.00  0.00    +0.000 A 
ATOM     21  C   UNL     1      -2.272  -1.937   8.771  0.00  0.00    +0.001 A 
ATOM     22  C   UNL     1      -1.209  -1.148   8.203  0.00  0.00    +0.013 A 
ENDROOT
BRANCH   1  24
ATOM     23  N   UNL     1       0.711  -0.489   1.189  0.00  0.00    -0.303 N 
ATOM     24  C   UNL     1       0.051  -0.633   2.355  0.00  0.00    +0.235 C 
ATOM     25  O   UNL     1      -1.129  -0.361   2.423  0.00  0.00    -0.274 OA
ATOM     26  H   UNL     1       1.654  -0.707   1.135  0.00  0.00    +0.149 HD
BRANCH  23  28
ATOM     27  C   UNL     1      -0.019   1.526   0.010  0.00  0.00    +0.038 C 
ATOM     28  C   UNL     1       0.002  -0.004   0.002  0.00  0.00    +0.156 C 
BRANCH  28  29
ATOM     29  C   UNL     1       0.707  -0.490  -1.238  0.00  0.00    +0.233 C 
ATOM     30  O   UNL     1       1.704  -1.174  -1.140  0.00  0.00    -0.274 OA
ATOM     31  N   UNL     1       0.231  -0.164  -2.456  0.00  0.00    -0.314 N 
ATOM     32  H   UNL     1      -0.566   0.383  -2.534  0.00  0.00    +0.149 HD
BRANCH  31  33
ATOM     33  C   UNL     1       0.917  -0.637  -3.661  0.00  0.00    +0.104 C 
BRANCH  33  34
ATOM     34  C   UNL     1       0.177  -0.130  -4.901  0.00  0.00    +0.022 C 
BRANCH  34  35
ATOM     35  C   UNL     1       0.893  -0.623  -6.159  0.00  0.00    -0.016 C 
ATOM     36  C   UNL     1       0.085  -0.223  -7.396  0.00  0.00    +0.007 C 
ATOM     37  C   UNL     1       2.285   0.006  -6.234  0.00  0.00    +0.007 C 
ENDBRANCH  34  35
ENDBRANCH  33  34
ENDBRANCH  31  33
ENDBRANCH  28  29
ENDBRANCH  23  28
ENDBRANCH   1  24
TORSDOF 6
