REMARK  Name = ZINC63628342
REMARK  8 active torsions:
REMARK  status: ('A' for Active; 'I' for Inactive)
REMARK    1  A    between atoms: C_1  and  C_2
REMARK    2  A    between atoms: C_2  and  C_3
REMARK    3  A    between atoms: C_6  and  C_9
REMARK    4  A    between atoms: C_11  and  C_15
REMARK    5  A    between atoms: N_20  and  C_23
REMARK    6  A    between atoms: N_29  and  C_31
REMARK    7  A    between atoms: C_34  and  C_38
REMARK    8  A    between atoms: C_35  and  C_37
REMARK                            x       y       z     vdW  Elec       q    Type
REMARK                         _______ _______ _______ _____ _____    ______ ____
ROOT
ATOM      1  C   UNL     1       3.833  -4.070   9.130  0.00  0.00    +0.246 C 
ATOM      2  O   UNL     1       4.877  -3.455   9.070  0.00  0.00    -0.273 OA
ATOM      3  N   UNL     1       2.890  -3.712  10.024  0.00  0.00    -0.297 N 
ATOM      4  C   UNL     1       1.620  -4.447  10.117  0.00  0.00    +0.123 C 
ATOM      5  C   UNL     1       0.468  -3.439  10.052  0.00  0.00    +0.105 C 
ATOM      6  N   UNL     1       0.665  -2.408  11.079  0.00  0.00    -0.280 NA
ATOM      7  C   UNL     1       1.893  -1.640  10.835  0.00  0.00    +0.105 C 
ATOM      8  C   UNL     1       3.107  -2.578  10.936  0.00  0.00    +0.123 C 
ENDROOT
BRANCH   6   9
ATOM      9  C   UNL     1      -0.502  -1.520  11.166  0.00  0.00    +0.166 C 
ATOM     10  C   UNL     1      -1.698  -2.311  11.636  0.00  0.00    +0.014 C 
ATOM     11  C   UNL     1      -1.889  -2.465  12.949  0.00  0.00    +0.068 C 
ATOM     12  C   UNL     1      -0.910  -1.844  13.864  0.00  0.00    +0.257 C 
ATOM     13  O   UNL     1      -0.832  -2.205  15.022  0.00  0.00    -0.269 OA
ATOM     14  N   UNL     1      -0.105  -0.871  13.392  0.00  0.00    -0.200 N 
ATOM     15  N   UNL     1      -0.219  -0.435  12.109  0.00  0.00    -0.212 NA
ATOM     16  H   UNL     1      -0.910   0.297  12.036  0.00  0.00    +0.147 HD
BRANCH  14  17
ATOM     17  C   UNL     1       0.858  -0.303  14.232  0.00  0.00    +0.053 A 
ATOM     18  C   UNL     1       1.700  -1.120  14.976  0.00  0.00    +0.025 A 
ATOM     19  C   UNL     1       2.650  -0.556  15.805  0.00  0.00    +0.005 A 
ATOM     20  C   UNL     1       2.763   0.819  15.895  0.00  0.00    -0.047 A 
ATOM     21  C   UNL     1       1.925   1.635  15.157  0.00  0.00    -0.046 A 
ATOM     22  C   UNL     1       0.977   1.077  14.321  0.00  0.00    +0.028 A 
ATOM     23  C   UNL     1       2.050   3.133  15.259  0.00  0.00    +0.044 C 
ATOM     24  C   UNL     1       3.800   1.431  16.801  0.00  0.00    +0.044 C 
ENDBRANCH  14  17
ENDBRANCH   6   9
BRANCH   1  27
ATOM     25  C   UNL     1       3.500  -5.029   5.958  0.00  0.00    +0.092 C 
ATOM     26  C   UNL     1       2.719  -4.817   7.034  0.00  0.00    +0.040 C 
ATOM     27  C   UNL     1       3.591  -5.235   8.205  0.00  0.00    +0.238 C 
ATOM     28  N   UNL     1       4.843  -5.657   7.556  0.00  0.00    -0.170 NA
ATOM     29  N   UNL     1       4.708  -5.520   6.338  0.00  0.00    -0.153 NA
BRANCH  25  33
ATOM     30  C   UNL     1       2.340  -4.287   1.935  0.00  0.00    -0.048 A 
ATOM     31  C   UNL     1       3.600  -4.789   2.207  0.00  0.00    +0.004 A 
ATOM     32  C   UNL     1       3.982  -5.031   3.511  0.00  0.00    +0.010 A 
ATOM     33  C   UNL     1       3.095  -4.770   4.554  0.00  0.00    +0.002 A 
ATOM     34  C   UNL     1       1.827  -4.265   4.274  0.00  0.00    +0.010 A 
ATOM     35  C   UNL     1       1.457  -4.022   2.966  0.00  0.00    +0.004 A 
BRANCH  30  37
ATOM     36  C   UNL     1       2.309  -2.593   0.125  0.00  0.00    +0.009 C 
ATOM     37  C   UNL     1       1.929  -4.024   0.509  0.00  0.00    +0.032 C 
ENDBRANCH  30  37
ENDBRANCH  25  33
ENDBRANCH   1  27
TORSDOF 5
