REMARK  Name = ZINC50376081
REMARK  7 active torsions:
REMARK  status: ('A' for Active; 'I' for Inactive)
REMARK    1  A    between atoms: C_1  and  O_2
REMARK    2  A    between atoms: O_2  and  C_3
REMARK    3  A    between atoms: C_8  and  N_10
REMARK    4  A    between atoms: N_10  and  S_11
REMARK    5  A    between atoms: S_11  and  C_14
REMARK    6  A    between atoms: C_15  and  N_22
REMARK    7  A    between atoms: N_22  and  N_23
REMARK                            x       y       z     vdW  Elec       q    Type
REMARK                         _______ _______ _______ _____ _____    ______ ____
ROOT
ATOM      1  C   UNL     1      -0.262  -4.916   1.939  0.00  0.00    +0.222 A 
ATOM      2  C   UNL     1      -1.399  -5.097   2.642  0.00  0.00    +0.179 A 
ATOM      3  N   UNL     1      -1.831  -6.352   2.430  0.00  0.00    -0.203 NA
ATOM      4  C   UNL     1      -1.004  -6.954   1.622  0.00  0.00    +0.181 A 
ATOM      5  N   UNL     1       0.011  -6.109   1.264  0.00  0.00    -0.276 N 
ATOM      6  C   UNL     1       0.964  -6.607   0.403  0.00  0.00    +0.102 A 
ATOM      7  C   UNL     1       0.885  -7.857  -0.053  0.00  0.00    +0.067 A 
ATOM      8  S   UNL     1      -0.600  -8.446   0.744  0.00  0.00    -0.058 S 
ENDROOT
BRANCH   1   9
ATOM      9  S   UNL     1       0.701  -3.441   1.878  0.00  0.00    +0.078 S 
ATOM     10  O   UNL     1       2.018  -3.831   1.515  0.00  0.00    -0.151 OA
ATOM     11  O   UNL     1       0.420  -2.723   3.071  0.00  0.00    -0.151 OA
BRANCH   9  12
ATOM     12  N   UNL     1       0.116  -2.527   0.626  0.00  0.00    -0.183 NA
ATOM     13  H   UNL     1       0.676  -2.348  -0.146  0.00  0.00    +0.148 HD
BRANCH  12  18
ATOM     14  C   UNL     1      -1.295  -0.603   0.011  0.00  0.00    +0.136 C 
ATOM     15  C   UNL     1      -1.767  -0.897  -1.435  0.00  0.00    +0.033 C 
ATOM     16  C   UNL     1      -2.806  -2.027  -1.232  0.00  0.00    +0.004 C 
ATOM     17  C   UNL     1      -2.205  -2.897  -0.108  0.00  0.00    +0.023 C 
ATOM     18  C   UNL     1      -1.245  -1.990   0.685  0.00  0.00    +0.105 C 
BRANCH  14  20
ATOM     19  C   UNL     1      -0.017   1.425   0.010  0.00  0.00    +0.194 C 
ATOM     20  O   UNL     1       0.002  -0.004   0.002  0.00  0.00    -0.378 OA
ENDBRANCH  14  20
ENDBRANCH  12  18
ENDBRANCH   9  12
ENDBRANCH   1   9
BRANCH   2  21
ATOM     21  N   UNL     1      -2.023  -4.139   3.456  0.00  0.00    -0.265 N 
ATOM     22  H   UNL     1      -1.636  -3.255   3.549  0.00  0.00    +0.168 HD
BRANCH  21  23
ATOM     23  N   UNL     1      -3.177  -4.452   4.117  0.00  0.00    -0.255 NA
ATOM     24  H   UNL     1      -3.507  -3.668   4.659  0.00  0.00    +0.140 HD
ATOM     25  H   UNL     1      -3.886  -4.772   3.475  0.00  0.00    +0.140 HD
ENDBRANCH  21  23
ENDBRANCH   2  21
TORSDOF 6
