REMARK  Name = ZINC66186818
REMARK  8 active torsions:
REMARK  status: ('A' for Active; 'I' for Inactive)
REMARK    1  A    between atoms: C_1  and  C_2
REMARK    2  A    between atoms: C_4  and  C_7
REMARK    3  A    between atoms: C_7  and  N_8
REMARK    4  A    between atoms: N_11  and  C_12
REMARK    5  A    between atoms: C_12  and  C_13
REMARK    6  A    between atoms: C_16  and  N_20
REMARK    7  A    between atoms: C_22  and  C_29
REMARK    8  A    between atoms: C_25  and  C_28
REMARK                            x       y       z     vdW  Elec       q    Type
REMARK                         _______ _______ _______ _____ _____    ______ ____
ROOT
ATOM      1  C   UNL     1       4.722  -6.204  -4.194  0.00  0.00    -0.027 A 
ATOM      2  C   UNL     1       5.391  -5.520  -5.193  0.00  0.00    +0.007 A 
ATOM      3  C   UNL     1       6.757  -5.666  -5.338  0.00  0.00    +0.026 A 
ATOM      4  C   UNL     1       7.460  -6.500  -4.480  0.00  0.00    +0.066 A 
ATOM      5  C   UNL     1       6.785  -7.187  -3.476  0.00  0.00    +0.145 A 
ATOM      6  C   UNL     1       5.419  -7.032  -3.333  0.00  0.00    +0.045 A 
ATOM      7  F   UNL     1       7.465  -8.000  -2.638  0.00  0.00    -0.204 F 
ENDROOT
BRANCH   4   8
ATOM      8  N   UNL     1       8.843  -6.650  -4.625  0.00  0.00    -0.323 N 
ATOM      9  C   UNL     1       9.404  -7.696  -5.495  0.00  0.00    +0.136 C 
ATOM     10  C   UNL     1      10.430  -7.046  -6.431  0.00  0.00    +0.133 C 
ATOM     11  O   UNL     1      11.366  -6.295  -5.655  0.00  0.00    -0.371 OA
ATOM     12  C   UNL     1      10.786  -5.212  -4.925  0.00  0.00    +0.133 C 
ATOM     13  C   UNL     1       9.779  -5.763  -3.916  0.00  0.00    +0.136 C 
ATOM     14  C   UNL     1      10.070  -4.268  -5.894  0.00  0.00    +0.039 C 
ATOM     15  C   UNL     1      11.168  -8.134  -7.213  0.00  0.00    +0.039 C 
ENDBRANCH   4   8
BRANCH   1  16
ATOM     16  C   UNL     1       3.232  -6.042  -4.040  0.00  0.00    +0.141 C 
BRANCH  16  20
ATOM     17  N   UNL     1       1.423  -3.567  -2.011  0.00  0.00    -0.291 N 
ATOM     18  C   UNL     1       1.679  -4.594  -2.845  0.00  0.00    +0.300 C 
ATOM     19  O   UNL     1       0.761  -5.221  -3.338  0.00  0.00    -0.253 OA
ATOM     20  N   UNL     1       2.953  -4.926  -3.133  0.00  0.00    -0.295 N 
ATOM     21  H   UNL     1       2.155  -3.067  -1.618  0.00  0.00    +0.151 HD
ATOM     22  H   UNL     1       3.685  -4.426  -2.740  0.00  0.00    +0.151 HD
BRANCH  17  23
ATOM     23  C   UNL     1       0.038  -3.206  -1.697  0.00  0.00    +0.204 C 
BRANCH  23  27
ATOM     24  C   UNL     1      -0.018   1.503   0.010  0.00  0.00    +0.091 C 
ATOM     25  C   UNL     1       0.002  -0.004   0.002  0.00  0.00    +0.169 A 
ATOM     26  N   UNL     1       0.008  -0.776  -1.091  0.00  0.00    -0.195 NA
ATOM     27  C   UNL     1       0.026  -2.034  -0.750  0.00  0.00    +0.245 A 
ATOM     28  O   UNL     1       0.033  -2.107   0.587  0.00  0.00    -0.336 OA
ATOM     29  N   UNL     1       0.023  -0.767   1.057  0.00  0.00    -0.062 NA
ENDBRANCH  23  27
ENDBRANCH  17  23
ENDBRANCH  16  20
ENDBRANCH   1  16
TORSDOF 5
