REMARK  Name = ZINC56785848
REMARK  10 active torsions:
REMARK  status: ('A' for Active; 'I' for Inactive)
REMARK    1  A    between atoms: C_1  and  C_2
REMARK    2  A    between atoms: N_7  and  C_9
REMARK    3  A    between atoms: C_9  and  C_10
REMARK    4  A    between atoms: C_10  and  C_12
REMARK    5  A    between atoms: C_10  and  N_13
REMARK    6  A    between atoms: N_16  and  N_17
REMARK    7  A    between atoms: C_18  and  C_20
REMARK    8  A    between atoms: C_20  and  C_22
REMARK    9  A    between atoms: C_20  and  O_23
REMARK   10  A    between atoms: O_23  and  C_24
REMARK                            x       y       z     vdW  Elec       q    Type
REMARK                         _______ _______ _______ _____ _____    ______ ____
ROOT
ATOM      1  N   UNL     1       0.188  -4.442   1.847  0.00  0.00    -0.297 N 
ATOM      2  C   UNL     1      -0.048  -5.622   1.238  0.00  0.00    +0.316 C 
ATOM      3  O   UNL     1       0.877  -6.265   0.781  0.00  0.00    -0.251 OA
ATOM      4  N   UNL     1      -1.308  -6.088   1.137  0.00  0.00    -0.218 N 
ATOM      5  H   UNL     1      -0.549  -3.929   2.212  0.00  0.00    +0.150 HD
ATOM      6  H   UNL     1      -1.478  -6.936   0.700  0.00  0.00    +0.174 HD
ENDROOT
BRANCH   4   7
ATOM      7  N   UNL     1      -2.373  -5.346   1.665  0.00  0.00    -0.230 N 
ATOM      8  C   UNL     1      -3.634  -5.812   1.564  0.00  0.00    +0.270 C 
ATOM      9  O   UNL     1      -3.846  -6.873   1.016  0.00  0.00    -0.270 OA
ATOM     10  H   UNL     1      -2.204  -4.497   2.103  0.00  0.00    +0.173 HD
BRANCH   8  11
ATOM     11  C   UNL     1      -4.780  -5.015   2.131  0.00  0.00    +0.257 C 
ATOM     12  C   UNL     1      -4.914  -3.698   1.364  0.00  0.00    +0.062 C 
BRANCH  11  13
ATOM     13  O   UNL     1      -5.990  -5.764   2.005  0.00  0.00    -0.477 OA
BRANCH  13  14
ATOM     14  C   UNL     1      -6.991  -5.471   2.878  0.00  0.00    +0.157 A 
ATOM     15  C   UNL     1      -6.855  -4.410   3.760  0.00  0.00    +0.048 A 
ATOM     16  C   UNL     1      -7.874  -4.114   4.645  0.00  0.00    +0.004 A 
ATOM     17  C   UNL     1      -9.028  -4.875   4.654  0.00  0.00    +0.003 A 
ATOM     18  C   UNL     1      -9.167  -5.934   3.777  0.00  0.00    +0.042 A 
ATOM     19  C   UNL     1      -8.154  -6.231   2.884  0.00  0.00    +0.165 A 
ATOM     20  F   UNL     1      -8.292  -7.263   2.022  0.00  0.00    -0.202 F 
ENDBRANCH  13  14
ENDBRANCH  11  13
ENDBRANCH   8  11
ENDBRANCH   4   7
BRANCH   1  21
ATOM     21  C   UNL     1       1.558  -3.936   1.956  0.00  0.00    +0.055 C 
ATOM     22  C   UNL     1       2.236  -4.558   3.179  0.00  0.00    +0.026 C 
BRANCH  21  23
ATOM     23  C   UNL     1       1.529  -2.414   2.109  0.00  0.00    -0.057 C 
BRANCH  23  29
ATOM     24  C   UNL     1       1.502  -1.769  -2.744  0.00  0.00    +0.005 C 
ATOM     25  C   UNL     1       0.729  -1.520  -1.447  0.00  0.00    -0.031 C 
ATOM     26  C   UNL     1       0.510  -0.016  -1.263  0.00  0.00    -0.001 C 
ATOM     27  C   UNL     1      -0.195   0.227   0.074  0.00  0.00    -0.018 C 
ATOM     28  C   UNL     1       0.641  -0.380   1.203  0.00  0.00    -0.079 C 
ATOM     29  N   UNL     1       0.792  -1.823   0.984  0.00  0.00    +0.381 N 
ATOM     30  C   UNL     1       1.530  -2.063  -0.262  0.00  0.00    -0.076 C 
ATOM     31  H   UNL     1      -0.120  -2.250   0.920  0.00  0.00    -0.082 HD
ENDBRANCH  23  29
ENDBRANCH  21  23
ENDBRANCH   1  21
TORSDOF 7
