REMARK  Name = ZINC13567649
REMARK  8 active torsions:
REMARK  status: ('A' for Active; 'I' for Inactive)
REMARK    1  A    between atoms: C_1  and  C_2
REMARK    2  A    between atoms: C_6  and  N_8
REMARK    3  A    between atoms: C_14  and  C_16
REMARK    4  A    between atoms: C_14  and  C_17
REMARK    5  A    between atoms: N_25  and  C_28
REMARK    6  A    between atoms: C_28  and  C_29
REMARK    7  A    between atoms: C_31  and  C_34
REMARK    8  A    between atoms: C_32  and  N_33
REMARK                            x       y       z     vdW  Elec       q    Type
REMARK                         _______ _______ _______ _____ _____    ______ ____
ROOT
ATOM      1  N   UNL     1      -2.949  -1.484   0.013  0.00  0.00    -0.260 N 
ATOM      2  C   UNL     1      -2.376  -0.705   0.983  0.00  0.00    +0.026 C 
ATOM      3  C   UNL     1      -2.273   0.632   0.819  0.00  0.00    +0.037 C 
ATOM      4  C   UNL     1      -1.682   1.440   1.806  0.00  0.00    +0.163 C 
ATOM      5  O   UNL     1      -1.617   2.641   1.635  0.00  0.00    -0.292 OA
ATOM      6  C   UNL     1      -1.129   0.844   3.072  0.00  0.00    +0.086 C 
ATOM      7  C   UNL     1      -0.676  -0.592   2.791  0.00  0.00    -0.023 C 
ATOM      8  C   UNL     1      -1.867  -1.375   2.235  0.00  0.00    +0.058 C 
ATOM      9  C   UNL     1       0.458  -0.582   1.764  0.00  0.00    +0.011 C 
ATOM     10  C   UNL     1      -0.189  -1.241   4.088  0.00  0.00    +0.011 C 
ATOM     11  C   UNL     1      -2.787   1.298  -0.431  0.00  0.00    +0.141 C 
ATOM     12  C   UNL     1      -1.652   1.728  -1.308  0.00  0.00    -0.001 A 
ATOM     13  C   UNL     1      -0.663   1.005  -1.940  0.00  0.00    +0.007 A 
ATOM     14  C   UNL     1       0.260   1.722  -2.693  0.00  0.00    +0.000 A 
ATOM     15  C   UNL     1       0.190   3.097  -2.796  0.00  0.00    +0.002 A 
ATOM     16  C   UNL     1      -0.798   3.831  -2.159  0.00  0.00    +0.024 A 
ATOM     17  C   UNL     1      -1.731   3.122  -1.399  0.00  0.00    +0.042 A 
ATOM     18  N   UNL     1      -2.807   3.592  -0.668  0.00  0.00    -0.258 N 
ATOM     19  C   UNL     1      -3.484   2.594  -0.064  0.00  0.00    +0.241 C 
ATOM     20  O   UNL     1      -4.465   2.711   0.639  0.00  0.00    -0.273 OA
ATOM     21  C   UNL     1      -3.731   0.407  -1.182  0.00  0.00    +0.089 C 
ATOM     22  C   UNL     1      -3.774  -0.929  -0.939  0.00  0.00    +0.108 C 
ENDROOT
BRANCH   1  28
ATOM     23  C   UNL     1      -4.165  -6.038   1.414  0.00  0.00    +0.044 C 
ATOM     24  C   UNL     1      -3.268  -5.090   0.661  0.00  0.00    -0.049 A 
ATOM     25  C   UNL     1      -2.191  -5.581  -0.055  0.00  0.00    +0.003 A 
ATOM     26  C   UNL     1      -1.365  -4.715  -0.748  0.00  0.00    +0.002 A 
ATOM     27  C   UNL     1      -1.617  -3.357  -0.731  0.00  0.00    +0.024 A 
ATOM     28  C   UNL     1      -2.694  -2.861  -0.009  0.00  0.00    +0.040 A 
ATOM     29  C   UNL     1      -3.522  -3.733   0.685  0.00  0.00    +0.027 A 
ENDBRANCH   1  28
BRANCH  22  30
ATOM     30  N   UNL     1      -4.642  -1.727  -1.645  0.00  0.00    -0.345 N 
ATOM     31  H   UNL     1      -4.737  -2.664  -1.412  0.00  0.00    +0.144 HD
ATOM     32  H   UNL     1      -5.160  -1.354  -2.375  0.00  0.00    +0.144 HD
ENDBRANCH  22  30
BRANCH  21  33
ATOM     33  C   UNL     1      -4.600   0.973  -2.170  0.00  0.00    +0.100 C 
ATOM     34  N   UNL     1      -5.289   1.422  -2.953  0.00  0.00    -0.191 NA
ENDBRANCH  21  33
BRANCH  18  35
ATOM     35  C   UNL     1      -3.169   5.008  -0.560  0.00  0.00    +0.202 C 
BRANCH  35  36
ATOM     36  C   UNL     1      -4.103   5.359  -1.642  0.00  0.00    -0.086 C 
ATOM     37  C   UNL     1      -4.849   5.639  -2.505  0.00  0.00    +0.005 C 
ENDBRANCH  35  36
ENDBRANCH  18  35
TORSDOF 5
