REMARK  Name = ZINC36287920
REMARK  6 active torsions:
REMARK  status: ('A' for Active; 'I' for Inactive)
REMARK    1  A    between atoms: C_1  and  C_2
REMARK    2  A    between atoms: N_7  and  S_9
REMARK    3  A    between atoms: S_9  and  N_12
REMARK    4  A    between atoms: N_12  and  C_13
REMARK    5  A    between atoms: C_16  and  N_19
REMARK    6  A    between atoms: N_19  and  C_20
REMARK                            x       y       z     vdW  Elec       q    Type
REMARK                         _______ _______ _______ _____ _____    ______ ____
ROOT
ATOM      1  N   UNL     1       1.664  -3.258   3.349  0.00  0.00    -0.206 N 
ATOM      2  H   UNL     1       1.398  -3.428   4.266  0.00  0.00    +0.175 HD
ENDROOT
BRANCH   1   3
ATOM      3  C   UNL     1       2.781  -3.909   2.812  0.00  0.00    +0.049 A 
ATOM      4  C   UNL     1       2.610  -4.955   1.915  0.00  0.00    +0.026 A 
ATOM      5  C   UNL     1       3.712  -5.597   1.385  0.00  0.00    +0.025 A 
ATOM      6  C   UNL     1       4.991  -5.196   1.749  0.00  0.00    +0.027 A 
ATOM      7  C   UNL     1       5.162  -4.149   2.646  0.00  0.00    +0.025 A 
ATOM      8  C   UNL     1       4.059  -3.504   3.172  0.00  0.00    +0.026 A 
BRANCH   6   9
ATOM      9  N   UNL     1       6.108  -5.847   1.213  0.00  0.00    -0.347 N 
ATOM     10  C   UNL     1       7.457  -5.424   1.597  0.00  0.00    +0.125 C 
ATOM     11  H   UNL     1       5.989  -6.578   0.587  0.00  0.00    +0.146 HD
ENDBRANCH   6   9
ENDBRANCH   1   3
BRANCH   1  12
ATOM     12  S   UNL     1       0.795  -2.199   2.418  0.00  0.00    +0.112 S 
ATOM     13  O   UNL     1      -0.222  -1.663   3.254  0.00  0.00    -0.138 OA
ATOM     14  O   UNL     1       0.505  -2.872   1.201  0.00  0.00    -0.138 OA
BRANCH  12  20
ATOM     15  C   UNL     1       2.015   2.676   3.129  0.00  0.00    +0.009 C 
ATOM     16  C   UNL     1       1.702   1.489   2.217  0.00  0.00    +0.002 C 
ATOM     17  C   UNL     1       2.582   1.558   0.967  0.00  0.00    +0.006 C 
ATOM     18  C   UNL     1       2.246   0.388   0.039  0.00  0.00    +0.017 C 
ATOM     19  C   UNL     1       2.535  -0.931   0.761  0.00  0.00    +0.111 C 
ATOM     20  N   UNL     1       1.804  -0.943   2.036  0.00  0.00    -0.164 NA
ATOM     21  C   UNL     1       1.984   0.182   2.965  0.00  0.00    +0.114 C 
ENDBRANCH  12  20
ENDBRANCH   1  12
TORSDOF 4
