REMARK  Name = ZINC08297601
REMARK  8 active torsions:
REMARK  status: ('A' for Active; 'I' for Inactive)
REMARK    1  A    between atoms: C_4  and  S_7
REMARK    2  A    between atoms: S_7  and  C_8
REMARK    3  A    between atoms: C_8  and  C_9
REMARK    4  A    between atoms: N_11  and  C_14
REMARK    5  A    between atoms: C_14  and  C_15
REMARK    6  A    between atoms: C_23  and  C_25
REMARK    7  A    between atoms: N_27  and  C_28
REMARK    8  A    between atoms: C_28  and  C_29
REMARK                            x       y       z     vdW  Elec       q    Type
REMARK                         _______ _______ _______ _____ _____    ______ ____
ROOT
ATOM      1  C   UNL     1       4.810  -8.367  -1.098  0.00  0.00    -0.046 C 
ATOM      2  C   UNL     1       4.882  -9.691  -1.864  0.00  0.00    -0.010 C 
ATOM      3  C   UNL     1       6.156  -9.700  -2.719  0.00  0.00    -0.004 C 
ATOM      4  C   UNL     1       7.379  -9.542  -1.806  0.00  0.00    -0.015 C 
ATOM      5  C   UNL     1       7.227  -8.211  -1.030  0.00  0.00    -0.078 C 
ATOM      6  C   UNL     1       6.002  -7.216  -2.866  0.00  0.00    -0.065 C 
ATOM      7  C   UNL     1       6.107  -8.507  -3.682  0.00  0.00    +0.061 C 
ATOM      8  N   UNL     1       5.980  -7.520  -1.419  0.00  0.00    +0.383 N 
ATOM      9  H   UNL     1       5.908  -6.640  -0.895  0.00  0.00    -0.081 HD
ENDROOT
BRANCH   7  10
ATOM     10  C   UNL     1       4.906  -8.635  -4.583  0.00  0.00    +0.215 C 
ATOM     11  O   UNL     1       4.167  -9.590  -4.476  0.00  0.00    -0.276 OA
ATOM     12  N   UNL     1       4.653  -7.687  -5.507  0.00  0.00    -0.308 N 
ATOM     13  H   UNL     1       5.244  -6.923  -5.592  0.00  0.00    +0.149 HD
BRANCH  12  14
ATOM     14  C   UNL     1       3.485  -7.811  -6.383  0.00  0.00    +0.178 C 
BRANCH  14  15
ATOM     15  C   UNL     1       3.431  -6.630  -7.317  0.00  0.00    +0.122 A 
ATOM     16  C   UNL     1       4.009  -6.559  -8.530  0.00  0.00    +0.046 A 
ATOM     17  C   UNL     1       3.703  -5.283  -9.056  0.00  0.00    +0.041 A 
ATOM     18  C   UNL     1       2.963  -4.647  -8.130  0.00  0.00    +0.195 A 
ATOM     19  O   UNL     1       2.801  -5.468  -7.079  0.00  0.00    -0.466 OA
ENDBRANCH  14  15
ENDBRANCH  12  14
ENDBRANCH   7  10
BRANCH   1  20
ATOM     20  C   UNL     1       3.534  -7.620  -1.489  0.00  0.00    +0.130 C 
BRANCH  20  23
ATOM     21  C   UNL     1       3.180  -4.350  -0.051  0.00  0.00    +0.093 A 
ATOM     22  C   UNL     1       3.260  -5.149  -1.140  0.00  0.00    +0.134 A 
ATOM     23  N   UNL     1       3.406  -6.410  -0.672  0.00  0.00    -0.253 N 
ATOM     24  N   UNL     1       3.412  -6.365   0.614  0.00  0.00    -0.065 NA
ATOM     25  N   UNL     1       3.285  -5.150   1.016  0.00  0.00    -0.134 NA
BRANCH  21  26
ATOM     26  C   UNL     1       3.012  -2.852  -0.042  0.00  0.00    +0.133 C 
BRANCH  26  27
ATOM     27  S   UNL     1       1.245  -2.442  -0.022  0.00  0.00    -0.119 S 
BRANCH  27  31
ATOM     28  C   UNL     1       1.171   2.086   0.002  0.00  0.00    +0.000 A 
ATOM     29  C   UNL     1      -0.017   1.377   0.010  0.00  0.00    +0.001 A 
ATOM     30  C   UNL     1       0.002  -0.004   0.002  0.00  0.00    +0.015 A 
ATOM     31  C   UNL     1       1.216  -0.681  -0.013  0.00  0.00    +0.008 A 
ATOM     32  C   UNL     1       2.407   0.035  -0.021  0.00  0.00    +0.015 A 
ATOM     33  C   UNL     1       2.380   1.416  -0.013  0.00  0.00    +0.001 A 
ENDBRANCH  27  31
ENDBRANCH  26  27
ENDBRANCH  21  26
ENDBRANCH  20  23
ENDBRANCH   1  20
TORSDOF 8
