REMARK  Name = ZINC51587129
REMARK  2 active torsions:
REMARK  status: ('A' for Active; 'I' for Inactive)
REMARK    1  A    between atoms: C_2  and  N_9
REMARK    2  A    between atoms: C_16  and  C_19
REMARK                            x       y       z     vdW  Elec       q    Type
REMARK                         _______ _______ _______ _____ _____    ______ ____
ROOT
ATOM      1  N   UNL     1       1.163   3.493  -0.051  0.00  0.00    -0.269 N 
ATOM      2  C   UNL     1       2.315   4.175   0.104  0.00  0.00    +0.307 C 
ATOM      3  O   UNL     1       3.374   3.579   0.146  0.00  0.00    -0.252 OA
ATOM      4  N   UNL     1       2.293   5.519   0.212  0.00  0.00    -0.280 N 
ATOM      5  C   UNL     1       1.022   6.247   0.346  0.00  0.00    +0.137 C 
ATOM      6  C   UNL     1       1.132   7.197   1.544  0.00  0.00    +0.180 C 
ATOM      7  O   UNL     1       2.310   7.995   1.405  0.00  0.00    -0.364 OA
ATOM      8  C   UNL     1       3.528   7.247   1.406  0.00  0.00    +0.221 C 
ATOM      9  C   UNL     1       3.541   6.299   0.207  0.00  0.00    +0.150 C 
ATOM     10  H   UNL     1       0.335   3.970  -0.216  0.00  0.00    +0.156 HD
ENDROOT
BRANCH   1  12
ATOM     11  C   UNL     1      -0.008   1.417   0.338  0.00  0.00    +0.061 A 
ATOM     12  C   UNL     1       1.162   2.096   0.024  0.00  0.00    +0.040 A 
ATOM     13  C   UNL     1       2.331   1.386  -0.214  0.00  0.00    +0.061 A 
ATOM     14  C   UNL     1       2.328   0.004  -0.139  0.00  0.00    +0.128 A 
ATOM     15  C   UNL     1       1.160  -0.670   0.173  0.00  0.00    +0.076 A 
ATOM     16  C   UNL     1      -0.007   0.036   0.412  0.00  0.00    +0.128 A 
ATOM     17  F   UNL     1      -1.145  -0.624   0.718  0.00  0.00    -0.205 F 
ATOM     18  F   UNL     1       3.465  -0.687  -0.372  0.00  0.00    -0.205 F 
ENDBRANCH   1  12
BRANCH   8  19
ATOM     19  C   UNL     1       4.699   8.191   1.318  0.00  0.00    +0.241 C 
ATOM     20  O   UNL     1       4.510   9.380   1.167  0.00  0.00    -0.273 OA
ATOM     21  N   UNL     1       5.957   7.715   1.405  0.00  0.00    -0.327 N 
ATOM     22  H   UNL     1       6.109   6.765   1.526  0.00  0.00    +0.145 HD
ATOM     23  H   UNL     1       6.711   8.323   1.348  0.00  0.00    +0.145 HD
ENDBRANCH   8  19
TORSDOF 2
