REMARK  Name = ZINC06707628
REMARK  12 active torsions:
REMARK  status: ('A' for Active; 'I' for Inactive)
REMARK    1  A    between atoms: C_1  and  C_2
REMARK    2  A    between atoms: C_5  and  C_28
REMARK    3  A    between atoms: C_6  and  O_8
REMARK    4  A    between atoms: O_8  and  C_9
REMARK    5  A    between atoms: C_9  and  C_10
REMARK    6  A    between atoms: C_13  and  S_16
REMARK    7  A    between atoms: S_16  and  C_17
REMARK    8  A    between atoms: C_17  and  C_18
REMARK    9  A    between atoms: N_23  and  C_24
REMARK   10  A    between atoms: C_24  and  C_25
REMARK   11  A    between atoms: C_24  and  C_26
REMARK   12  A    between atoms: C_24  and  C_27
REMARK                            x       y       z     vdW  Elec       q    Type
REMARK                         _______ _______ _______ _____ _____    ______ ____
ROOT
ATOM      1  C   UNL     1      -1.112   1.777   0.016  0.00  0.00    +0.189 A 
ATOM      2  N   UNL     1      -0.011   0.966   0.007  0.00  0.00    -0.202 NA
ATOM      3  H   UNL     1       1.131   3.994   0.011  0.00  0.00    +0.191 HD
ATOM      4  C   UNL     1       1.066   1.805   0.002  0.00  0.00    +0.185 A 
ATOM      5  N   UNL     1       0.598   3.031   0.011  0.00  0.00    -0.253 N 
ATOM      6  N   UNL     1      -0.687   3.008   0.022  0.00  0.00    -0.153 NA
ENDROOT
BRANCH   1   7
ATOM      7  C   UNL     1      -2.551   1.329   0.018  0.00  0.00    +0.306 C 
BRANCH   7   8
ATOM      8  O   UNL     1      -2.605  -0.099   0.011  0.00  0.00    -0.484 OA
BRANCH   8  14
ATOM      9  C   UNL     1      -7.459   0.412   0.030  0.00  0.00    +0.044 C 
ATOM     10  C   UNL     1      -6.226  -0.454   0.021  0.00  0.00    -0.047 A 
ATOM     11  C   UNL     1      -6.350  -1.831   0.014  0.00  0.00    +0.004 A 
ATOM     12  C   UNL     1      -5.221  -2.629   0.006  0.00  0.00    +0.007 A 
ATOM     13  C   UNL     1      -3.965  -2.051   0.005  0.00  0.00    -0.009 A 
ATOM     14  C   UNL     1      -3.839  -0.670   0.012  0.00  0.00    +0.124 A 
ATOM     15  C   UNL     1      -4.974   0.128   0.026  0.00  0.00    +0.049 A 
ATOM     16  C   UNL     1      -2.735  -2.921  -0.002  0.00  0.00    +0.047 C 
ENDBRANCH   8  14
ENDBRANCH   7   8
ENDBRANCH   1   7
BRANCH   4  17
ATOM     17  S   UNL     1       2.763   1.331  -0.015  0.00  0.00    -0.077 S 
BRANCH  17  18
ATOM     18  C   UNL     1       3.545   2.964  -0.015  0.00  0.00    +0.173 C 
BRANCH  18  19
ATOM     19  C   UNL     1       5.043   2.803  -0.029  0.00  0.00    +0.231 C 
ATOM     20  O   UNL     1       5.534   1.694  -0.038  0.00  0.00    -0.274 OA
ATOM     21  N   UNL     1       5.838   3.892  -0.031  0.00  0.00    -0.239 N 
ATOM     22  C   UNL     1       7.178   3.748  -0.044  0.00  0.00    +0.306 C 
ATOM     23  O   UNL     1       7.670   2.636  -0.053  0.00  0.00    -0.252 OA
ATOM     24  N   UNL     1       7.972   4.837  -0.046  0.00  0.00    -0.294 N 
ATOM     25  H   UNL     1       5.393   4.897  -0.023  0.00  0.00    +0.159 HD
ATOM     26  H   UNL     1       7.527   5.842  -0.037  0.00  0.00    +0.151 HD
BRANCH  24  27
ATOM     27  C   UNL     1       9.429   4.680  -0.059  0.00  0.00    +0.028 C 
ATOM     28  C   UNL     1       9.848   3.914  -1.316  0.00  0.00    +0.031 C 
ATOM     29  C   UNL     1      10.090   6.060  -0.059  0.00  0.00    +0.031 C 
ATOM     30  C   UNL     1       9.870   3.903   1.183  0.00  0.00    +0.031 C 
ENDBRANCH  24  27
ENDBRANCH  18  19
ENDBRANCH  17  18
ENDBRANCH   4  17
TORSDOF 7
