REMARK  Name = ZINC05424475
REMARK  4 active torsions:
REMARK  status: ('A' for Active; 'I' for Inactive)
REMARK    1  A    between atoms: C_1  and  C_2
REMARK    2  A    between atoms: C_2  and  C_30
REMARK    3  A    between atoms: C_6  and  C_20
REMARK    4  A    between atoms: N_11  and  N_16
REMARK                            x       y       z     vdW  Elec       q    Type
REMARK                         _______ _______ _______ _____ _____    ______ ____
ROOT
ATOM      1  C   UNL     1      -0.756   3.127   2.100  0.00  0.00    +0.012 C 
ATOM      2  C   UNL     1      -1.162   3.320   0.638  0.00  0.00    -0.021 C 
ATOM      3  C   UNL     1      -0.061   4.080  -0.105  0.00  0.00    +0.081 C 
ATOM      4  C   UNL     1       1.222   3.283  -0.063  0.00  0.00    +0.115 C 
ATOM      5  C   UNL     1       1.192   1.938  -0.038  0.00  0.00    +0.045 C 
ATOM      6  C   UNL     1       2.475   1.143  -0.020  0.00  0.00    +0.094 C 
ATOM      7  C   UNL     1       3.623   2.001  -0.467  0.00  0.00    +0.068 A 
ATOM      8  C   UNL     1       4.832   1.406  -0.896  0.00  0.00    +0.133 A 
ATOM      9  N   UNL     1       4.973   0.097  -0.911  0.00  0.00    -0.383 N 
ATOM     10  N   UNL     1       5.861   2.236  -1.299  0.00  0.00    -0.231 N 
ATOM     11  C   UNL     1       5.679   3.580  -1.271  0.00  0.00    +0.224 A 
ATOM     12  N   UNL     1       4.559   4.109  -0.873  0.00  0.00    -0.201 NA
ATOM     13  C   UNL     1       3.519   3.359  -0.465  0.00  0.00    +0.229 A 
ATOM     14  O   UNL     1       2.384   3.960  -0.053  0.00  0.00    -0.441 OA
ATOM     15  C   UNL     1      -0.026   1.232  -0.033  0.00  0.00    +0.164 C 
ATOM     16  O   UNL     1      -0.011   0.017  -0.030  0.00  0.00    -0.292 OA
ATOM     17  C   UNL     1      -1.346   1.954  -0.037  0.00  0.00    +0.086 C 
ATOM     18  C   UNL     1      -2.470   4.112   0.568  0.00  0.00    +0.012 C 
ATOM     19  H   UNL     1       5.920  -0.350  -1.248  0.00  0.00    +0.157 HD
ATOM     20  H   UNL     1       4.144  -0.550  -0.588  0.00  0.00    +0.157 HD
ENDROOT
BRANCH  10  21
ATOM     21  N   UNL     1       7.079   1.695  -1.731  0.00  0.00    -0.204 N 
ATOM     22  C   UNL     1       8.209   2.424  -1.643  0.00  0.00    +0.315 C 
ATOM     23  O   UNL     1       8.191   3.510  -1.097  0.00  0.00    -0.251 OA
ATOM     24  N   UNL     1       9.359   1.949  -2.162  0.00  0.00    -0.312 N 
ATOM     25  H   UNL     1       7.113   0.675  -2.141  0.00  0.00    +0.177 HD
ATOM     26  H   UNL     1      10.281   2.544  -2.091  0.00  0.00    +0.147 HD
ATOM     27  H   UNL     1       9.375   0.966  -2.656  0.00  0.00    +0.147 HD
ENDBRANCH  10  21
BRANCH   6  28
ATOM     28  C   UNL     1       2.738   0.651   1.380  0.00  0.00    -0.035 A 
ATOM     29  C   UNL     1       2.895   1.557   2.412  0.00  0.00    +0.007 A 
ATOM     30  C   UNL     1       3.132   1.108   3.697  0.00  0.00    +0.038 A 
ATOM     31  C   UNL     1       3.222  -0.251   3.949  0.00  0.00    +0.123 A 
ATOM     32  C   UNL     1       3.069  -1.157   2.913  0.00  0.00    +0.038 A 
ATOM     33  C   UNL     1       2.828  -0.706   1.630  0.00  0.00    +0.007 A 
ATOM     34  F   UNL     1       3.457  -0.692   5.204  0.00  0.00    -0.205 F 
ENDBRANCH   6  28
TORSDOF 2
