REMARK  Name = ZINC67588681
REMARK  10 active torsions:
REMARK  status: ('A' for Active; 'I' for Inactive)
REMARK    1  A    between atoms: C_1  and  C_2
REMARK    2  A    between atoms: C_7  and  C_11
REMARK    3  A    between atoms: C_11  and  N_12
REMARK    4  A    between atoms: N_15  and  C_16
REMARK    5  A    between atoms: C_20  and  N_22
REMARK    6  A    between atoms: C_23  and  O_25
REMARK    7  A    between atoms: O_25  and  C_26
REMARK    8  A    between atoms: C_26  and  C_27
REMARK    9  A    between atoms: C_27  and  O_28
REMARK   10  A    between atoms: O_28  and  C_29
REMARK                            x       y       z     vdW  Elec       q    Type
REMARK                         _______ _______ _______ _____ _____    ______ ____
ROOT
ATOM      1  N   UNL     1       1.489  -5.875   2.666  0.00  0.00    -0.294 N 
ATOM      2  C   UNL     1       1.749  -7.008   3.349  0.00  0.00    +0.304 C 
ATOM      3  O   UNL     1       0.836  -7.736   3.689  0.00  0.00    -0.252 OA
ATOM      4  N   UNL     1       3.020  -7.333   3.656  0.00  0.00    -0.269 N 
ATOM      5  H   UNL     1       2.217  -5.295   2.395  0.00  0.00    +0.151 HD
ATOM      6  H   UNL     1       3.753  -6.789   3.328  0.00  0.00    +0.156 HD
ENDROOT
BRANCH   4   7
ATOM      7  C   UNL     1       3.284  -8.457   4.447  0.00  0.00    +0.037 A 
ATOM      8  C   UNL     1       4.339  -8.440   5.350  0.00  0.00    +0.023 A 
ATOM      9  C   UNL     1       4.600  -9.549   6.132  0.00  0.00    +0.004 A 
ATOM     10  C   UNL     1       3.812 -10.678   6.018  0.00  0.00    +0.023 A 
ATOM     11  C   UNL     1       2.755 -10.702   5.117  0.00  0.00    +0.038 A 
ATOM     12  C   UNL     1       2.487  -9.587   4.335  0.00  0.00    +0.046 A 
BRANCH  11  13
ATOM     13  N   UNL     1       1.958 -11.846   5.003  0.00  0.00    -0.251 N 
ATOM     14  C   UNL     1       1.688 -12.591   6.093  0.00  0.00    +0.405 C 
ATOM     15  O   UNL     1       2.205 -12.319   7.158  0.00  0.00    -0.226 OA
ATOM     16  H   UNL     1       1.599 -12.103   4.139  0.00  0.00    +0.158 HD
BRANCH  14  17
ATOM     17  O   UNL     1       0.846 -13.638   6.001  0.00  0.00    -0.448 OA
BRANCH  17  18
ATOM     18  C   UNL     1       0.607 -14.384   7.196  0.00  0.00    +0.262 C 
BRANCH  18  19
ATOM     19  C   UNL     1      -0.368 -15.525   6.898  0.00  0.00    +0.200 C 
BRANCH  19  20
ATOM     20  O   UNL     1       0.241 -16.448   5.993  0.00  0.00    -0.380 OA
ATOM     21  C   UNL     1      -0.589 -17.558   5.647  0.00  0.00    +0.194 C 
ENDBRANCH  19  20
ENDBRANCH  18  19
ENDBRANCH  17  18
ENDBRANCH  14  17
ENDBRANCH  11  13
ENDBRANCH   4   7
BRANCH   1  22
ATOM     22  C   UNL     1       0.107  -5.521   2.333  0.00  0.00    +0.160 C 
BRANCH  22  29
ATOM     23  C   UNL     1       0.038   1.508   0.001  0.00  0.00    +0.044 C 
ATOM     24  C   UNL     1       0.047   0.001  -0.001  0.00  0.00    -0.046 A 
ATOM     25  C   UNL     1       0.035  -0.703  -1.216  0.00  0.00    +0.021 A 
ATOM     26  C   UNL     1       0.043  -2.053  -1.221  0.00  0.00    +0.093 A 
ATOM     27  N   UNL     1       0.062  -2.752  -0.049  0.00  0.00    -0.308 N 
ATOM     28  C   UNL     1       0.073  -4.092   0.229  0.00  0.00    +0.115 A 
ATOM     29  C   UNL     1       0.091  -4.220   1.574  0.00  0.00    +0.051 A 
ATOM     30  N   UNL     1       0.091  -3.001   2.118  0.00  0.00    -0.342 N 
ATOM     31  C   UNL     1       0.074  -2.093   1.153  0.00  0.00    +0.116 A 
ATOM     32  C   UNL     1       0.071  -0.684   1.175  0.00  0.00    +0.048 A 
ATOM     33  H   UNL     1       0.102  -2.809   3.069  0.00  0.00    +0.167 HD
ENDBRANCH  22  29
ENDBRANCH   1  22
TORSDOF 8
