REMARK  Name = ZINC39667947
REMARK  16 active torsions:
REMARK  status: ('A' for Active; 'I' for Inactive)
REMARK    1  A    between atoms: C_1  and  C_2
REMARK    2  A    between atoms: C_2  and  O_3
REMARK    3  A    between atoms: O_3  and  C_4
REMARK    4  A    between atoms: C_4  and  C_6
REMARK    5  A    between atoms: C_8  and  C_37
REMARK    6  A    between atoms: C_10  and  C_33
REMARK    7  A    between atoms: C_13  and  N_15
REMARK    8  A    between atoms: C_16  and  C_18
REMARK    9  A    between atoms: C_18  and  S_19
REMARK   10  A    between atoms: S_19  and  C_20
REMARK   11  A    between atoms: C_24  and  C_28
REMARK   12  A    between atoms: C_25  and  C_27
REMARK   13  A    between atoms: C_28  and  C_29
REMARK   14  A    between atoms: C_29  and  C_30
REMARK   15  A    between atoms: C_30  and  O_32
REMARK   16  A    between atoms: N_35  and  C_36
REMARK                            x       y       z     vdW  Elec       q    Type
REMARK                         _______ _______ _______ _____ _____    ______ ____
ROOT
ATOM      1  N   UNL     1       3.225  -1.093  -1.351  0.00  0.00    -0.302 N 
ATOM      2  C   UNL     1       4.395  -1.309  -0.716  0.00  0.00    +0.224 C 
ATOM      3  O   UNL     1       5.189  -2.108  -1.164  0.00  0.00    -0.275 OA
ATOM      4  H   UNL     1       2.590  -0.455  -0.992  0.00  0.00    +0.150 HD
ENDROOT
BRANCH   1   9
ATOM      5  C   UNL     1       1.468  -2.353  -2.550  0.00  0.00    +0.132 C 
ATOM      6  C   UNL     1       1.382  -3.878  -2.503  0.00  0.00    +0.024 C 
ATOM      7  C   UNL     1       2.592  -4.509  -3.247  0.00  0.00    +0.138 C 
ATOM      8  S   UNL     1       3.925  -3.354  -2.700  0.00  0.00    -0.125 S 
ATOM      9  C   UNL     1       2.915  -1.823  -2.582  0.00  0.00    +0.146 C 
ATOM     10  C   UNL     1       0.085  -4.333  -3.174  0.00  0.00    +0.010 C 
BRANCH   7  11
ATOM     11  C   UNL     1       2.855  -5.916  -2.774  0.00  0.00    +0.226 C 
ATOM     12  O   UNL     1       2.586  -6.233  -1.635  0.00  0.00    -0.275 OA
ATOM     13  N   UNL     1       3.389  -6.821  -3.618  0.00  0.00    -0.317 N 
ATOM     14  C   UNL     1       3.644  -8.189  -3.158  0.00  0.00    +0.128 C 
ATOM     15  H   UNL     1       3.604  -6.568  -4.529  0.00  0.00    +0.148 HD
ENDBRANCH   7  11
BRANCH   5  16
ATOM     16  C   UNL     1       0.775  -1.794  -1.334  0.00  0.00    +0.313 C 
ATOM     17  O   UNL     1       0.314  -2.540  -0.504  0.00  0.00    -0.250 OA
BRANCH  16  18
ATOM     18  O   UNL     1       0.671  -0.465  -1.174  0.00  0.00    -0.465 OA
BRANCH  18  20
ATOM     19  C   UNL     1      -0.019   1.526   0.010  0.00  0.00    +0.048 C 
ATOM     20  C   UNL     1       0.002  -0.004   0.002  0.00  0.00    +0.229 C 
ENDBRANCH  18  20
ENDBRANCH  16  18
ENDBRANCH   5  16
ENDBRANCH   1   9
BRANCH   2  21
ATOM     21  C   UNL     1       4.714  -0.558   0.551  0.00  0.00    +0.173 C 
BRANCH  21  22
ATOM     22  S   UNL     1       6.346  -1.066   1.159  0.00  0.00    -0.078 S 
BRANCH  22  23
ATOM     23  C   UNL     1       6.570  -0.112   2.624  0.00  0.00    +0.170 A 
ATOM     24  N   UNL     1       7.720  -0.247   3.342  0.00  0.00    -0.302 N 
ATOM     25  C   UNL     1       7.899   0.480   4.465  0.00  0.00    +0.256 A 
ATOM     26  O   UNL     1       8.922   0.372   5.119  0.00  0.00    -0.267 OA
ATOM     27  C   UNL     1       6.883   1.366   4.865  0.00  0.00    +0.038 A 
ATOM     28  C   UNL     1       5.752   1.460   4.106  0.00  0.00    +0.049 A 
ATOM     29  N   UNL     1       5.624   0.725   3.004  0.00  0.00    -0.228 NA
ATOM     30  C   UNL     1       4.648   2.401   4.514  0.00  0.00    +0.066 C 
ATOM     31  H   UNL     1       8.408  -0.865   3.047  0.00  0.00    +0.171 HD
BRANCH  27  32
ATOM     32  C   UNL     1       7.039   2.198   6.112  0.00  0.00    +0.053 C 
BRANCH  32  33
ATOM     33  C   UNL     1       6.598   1.381   7.328  0.00  0.00    +0.125 C 
BRANCH  33  34
ATOM     34  C   UNL     1       6.755   2.213   8.575  0.00  0.00    +0.305 C 
ATOM     35  O   UNL     1       7.176   3.343   8.498  0.00  0.00    -0.251 OA
BRANCH  34  36
ATOM     36  O   UNL     1       6.426   1.699   9.771  0.00  0.00    -0.481 OA
ATOM     37  H   UNL     1       6.561   2.307  10.511  0.00  0.00    +0.295 HD
ENDBRANCH  34  36
ENDBRANCH  33  34
ENDBRANCH  32  33
ENDBRANCH  27  32
ENDBRANCH  22  23
ENDBRANCH  21  22
ENDBRANCH   2  21
TORSDOF 12
