REMARK  Name = ZINC39684450
REMARK  14 active torsions:
REMARK  status: ('A' for Active; 'I' for Inactive)
REMARK    1  A    between atoms: C_1  and  C_2
REMARK    2  A    between atoms: C_2  and  C_4
REMARK    3  A    between atoms: C_2  and  N_8
REMARK    4  A    between atoms: C_4  and  C_5
REMARK    5  A    between atoms: C_4  and  C_6
REMARK    6  A    between atoms: C_4  and  C_7
REMARK    7  A    between atoms: C_9  and  C_11
REMARK    8  A    between atoms: C_22  and  C_24
REMARK    9  A    between atoms: C_26  and  O_34
REMARK   10  A    between atoms: C_27  and  O_32
REMARK   11  A    between atoms: C_28  and  O_30
REMARK   12  A    between atoms: O_30  and  C_31
REMARK   13  A    between atoms: O_32  and  C_33
REMARK   14  A    between atoms: O_34  and  C_35
REMARK                            x       y       z     vdW  Elec       q    Type
REMARK                         _______ _______ _______ _____ _____    ______ ____
ROOT
ATOM      1  C   UNL     1       2.916  -4.115   4.527  0.00  0.00    +0.100 C 
ATOM      2  C   UNL     1       2.857  -5.055   3.302  0.00  0.00    +0.121 C 
ATOM      3  N   UNL     1       3.712  -4.398   2.285  0.00  0.00    -0.296 N 
ATOM      4  C   UNL     1       4.858  -3.862   3.057  0.00  0.00    +0.115 C 
ATOM      5  C   UNL     1       4.232  -3.336   4.364  0.00  0.00    -0.004 C 
ATOM      6  C   UNL     1       3.951  -1.841   4.250  0.00  0.00    -0.010 C 
ATOM      7  C   UNL     1       5.278  -1.084   4.146  0.00  0.00    -0.082 C 
ATOM      8  N   UNL     1       6.094  -1.359   5.335  0.00  0.00    +0.379 N 
ATOM      9  C   UNL     1       6.438  -2.785   5.387  0.00  0.00    -0.082 C 
ATOM     10  C   UNL     1       5.160  -3.614   5.543  0.00  0.00    -0.010 C 
ATOM     11  C   UNL     1       3.496  -4.309   0.958  0.00  0.00    +0.247 C 
ATOM     12  O   UNL     1       4.328  -3.787   0.240  0.00  0.00    -0.270 OA
ATOM     13  H   UNL     1       6.941  -0.811   5.293  0.00  0.00    -0.086 HD
ATOM     14  H   UNL     1       5.575  -1.108   6.163  0.00  0.00    -0.086 HD
ENDROOT
BRANCH  11  15
ATOM     15  C   UNL     1       2.250  -4.844   0.375  0.00  0.00    +0.044 A 
ATOM     16  C   UNL     1       1.040  -4.176   0.576  0.00  0.00    +0.062 A 
ATOM     17  C   UNL     1      -0.126  -4.679   0.029  0.00  0.00    +0.166 A 
ATOM     18  C   UNL     1      -0.094  -5.851  -0.722  0.00  0.00    +0.204 A 
ATOM     19  C   UNL     1       1.111  -6.519  -0.924  0.00  0.00    +0.166 A 
ATOM     20  C   UNL     1       2.280  -6.017  -0.384  0.00  0.00    +0.062 A 
BRANCH  19  21
ATOM     21  O   UNL     1       1.138  -7.664  -1.657  0.00  0.00    -0.491 OA
ATOM     22  C   UNL     1       2.409  -8.298  -1.824  0.00  0.00    +0.277 C 
ENDBRANCH  19  21
BRANCH  18  23
ATOM     23  O   UNL     1      -1.241  -6.344  -1.259  0.00  0.00    -0.488 OA
ATOM     24  C   UNL     1      -1.588  -5.898  -2.571  0.00  0.00    +0.277 C 
ENDBRANCH  18  23
BRANCH  17  25
ATOM     25  O   UNL     1      -1.304  -4.029   0.224  0.00  0.00    -0.491 OA
ATOM     26  C   UNL     1      -1.248  -2.777   0.910  0.00  0.00    +0.277 C 
ENDBRANCH  17  25
ENDBRANCH  11  15
BRANCH   1  28
ATOM     27  N   UNL     1       1.309  -2.625   5.674  0.00  0.00    -0.312 N 
ATOM     28  C   UNL     1       1.743  -3.169   4.520  0.00  0.00    +0.218 C 
ATOM     29  O   UNL     1       1.188  -2.898   3.475  0.00  0.00    -0.275 OA
ATOM     30  H   UNL     1       1.704  -2.896   6.517  0.00  0.00    +0.149 HD
BRANCH  27  32
ATOM     31  C   UNL     1       0.839  -0.245   5.364  0.00  0.00    +0.028 C 
ATOM     32  C   UNL     1       0.240  -1.623   5.655  0.00  0.00    +0.075 C 
BRANCH  32  33
ATOM     33  C   UNL     1      -0.460  -1.598   7.015  0.00  0.00    -0.020 C 
ATOM     34  C   UNL     1      -1.617  -0.598   6.975  0.00  0.00    +0.012 C 
ATOM     35  C   UNL     1      -1.001  -2.992   7.335  0.00  0.00    +0.012 C 
ATOM     36  C   UNL     1       0.539  -1.178   8.095  0.00  0.00    +0.012 C 
ENDBRANCH  32  33
ENDBRANCH  27  32
ENDBRANCH   1  28
TORSDOF 7
