REMARK  Name = ZINC02127070
REMARK  7 active torsions:
REMARK  status: ('A' for Active; 'I' for Inactive)
REMARK    1  A    between atoms: C_1  and  C_2
REMARK    2  A    between atoms: C_7  and  C_8
REMARK    3  A    between atoms: C_17  and  C_19
REMARK    4  A    between atoms: C_19  and  C_20
REMARK    5  A    between atoms: C_20  and  C_21
REMARK    6  A    between atoms: N_26  and  C_29
REMARK    7  A    between atoms: C_29  and  C_30
REMARK                            x       y       z     vdW  Elec       q    Type
REMARK                         _______ _______ _______ _____ _____    ______ ____
ROOT
ATOM      1  C   UNL     1       2.464   5.495  -4.140  0.00  0.00    +0.044 C 
ATOM      2  C   UNL     1       2.120   4.541  -3.025  0.00  0.00    -0.046 A 
ATOM      3  C   UNL     1       1.164   4.892  -2.089  0.00  0.00    +0.004 A 
ATOM      4  C   UNL     1       0.849   4.017  -1.065  0.00  0.00    +0.005 A 
ATOM      5  C   UNL     1       1.485   2.799  -0.979  0.00  0.00    -0.027 A 
ATOM      6  C   UNL     1       2.448   2.435  -1.915  0.00  0.00    +0.039 A 
ATOM      7  C   UNL     1       2.760   3.322  -2.943  0.00  0.00    -0.026 A 
ATOM      8  C   UNL     1       3.800   2.949  -3.968  0.00  0.00    +0.046 C 
ATOM      9  N   UNL     1       2.948   1.164  -1.624  0.00  0.00    -0.286 N 
ATOM     10  C   UNL     1       2.376   0.632  -0.527  0.00  0.00    +0.211 C 
ATOM     11  O   UNL     1       2.613  -0.454  -0.041  0.00  0.00    -0.277 OA
ATOM     12  C   UNL     1       1.386   1.645  -0.022  0.00  0.00    +0.050 C 
ATOM     13  C   UNL     1      -0.034   1.067   0.022  0.00  0.00    +0.088 C 
ATOM     14  C   UNL     1      -0.675   1.697   1.290  0.00  0.00    +0.073 C 
ATOM     15  C   UNL     1       0.419   2.618   1.870  0.00  0.00    -0.057 C 
ATOM     16  C   UNL     1      -1.803   2.535   0.730  0.00  0.00    +0.224 C 
ATOM     17  O   UNL     1      -2.573   3.202   1.387  0.00  0.00    -0.275 OA
ATOM     18  N   UNL     1      -1.817   2.427  -0.604  0.00  0.00    -0.237 N 
ATOM     19  C   UNL     1      -0.852   1.631  -1.117  0.00  0.00    +0.225 C 
ATOM     20  O   UNL     1      -0.670   1.398  -2.293  0.00  0.00    -0.275 OA
ATOM     21  H   UNL     1       3.629   0.716  -2.151  0.00  0.00    +0.155 HD
ATOM     22  N   UNL     1       1.666   2.062   1.341  0.00  0.00    +0.394 N 
ATOM     23  H   UNL     1       2.405   2.775   1.350  0.00  0.00    -0.083 HD
ATOM     24  H   UNL     1       1.963   1.256   1.905  0.00  0.00    -0.083 HD
ENDROOT
BRANCH  15  25
ATOM     25  C   UNL     1       0.395   2.579   3.400  0.00  0.00    -0.006 C 
BRANCH  25  26
ATOM     26  C   UNL     1       1.455   3.535   3.951  0.00  0.00    +0.094 C 
BRANCH  26  27
ATOM     27  C   UNL     1       1.431   3.496   5.457  0.00  0.00    +0.210 C 
ATOM     28  O   UNL     1       0.643   2.775   6.033  0.00  0.00    -0.276 OA
ATOM     29  N   UNL     1       2.284   4.263   6.165  0.00  0.00    -0.329 N 
ATOM     30  H   UNL     1       2.914   4.839   5.704  0.00  0.00    +0.145 HD
ATOM     31  H   UNL     1       2.269   4.238   7.134  0.00  0.00    +0.145 HD
ENDBRANCH  26  27
ENDBRANCH  25  26
ENDBRANCH  15  25
BRANCH  18  32
ATOM     32  C   UNL     1      -2.795   3.123  -1.444  0.00  0.00    +0.153 C 
BRANCH  32  33
ATOM     33  C   UNL     1      -3.931   2.189  -1.772  0.00  0.00    -0.011 A 
ATOM     34  C   UNL     1      -3.922   1.480  -2.959  0.00  0.00    +0.006 A 
ATOM     35  C   UNL     1      -4.962   0.619  -3.258  0.00  0.00    +0.000 A 
ATOM     36  C   UNL     1      -6.016   0.475  -2.375  0.00  0.00    +0.001 A 
ATOM     37  C   UNL     1      -6.028   1.187  -1.190  0.00  0.00    +0.020 A 
ATOM     38  C   UNL     1      -4.985   2.045  -0.888  0.00  0.00    +0.046 A 
ATOM     39 CL   UNL     1      -5.000   2.939   0.599  0.00  0.00    -0.083 Cl
ENDBRANCH  32  33
ENDBRANCH  18  32
TORSDOF 5
