REMARK  Name = ZINC37711755
REMARK  7 active torsions:
REMARK  status: ('A' for Active; 'I' for Inactive)
REMARK    1  A    between atoms: C_1  and  O_2
REMARK    2  A    between atoms: O_2  and  C_3
REMARK    3  A    between atoms: C_5  and  C_21
REMARK    4  A    between atoms: C_8  and  O_9
REMARK    5  A    between atoms: O_9  and  C_10
REMARK    6  A    between atoms: C_17  and  O_19
REMARK    7  A    between atoms: C_21  and  N_22
REMARK                            x       y       z     vdW  Elec       q    Type
REMARK                         _______ _______ _______ _____ _____    ______ ____
ROOT
ATOM      1  C   UNL     1      -1.204  -0.639   0.029  0.00  0.00    +0.163 A 
ATOM      2  C   UNL     1      -2.378   0.097   0.038  0.00  0.00    +0.051 A 
ATOM      3  C   UNL     1      -3.600  -0.550   0.029  0.00  0.00    -0.060 A 
ATOM      4  C   UNL     1      -3.654  -1.931   0.010  0.00  0.00    +0.021 A 
ATOM      5  C   UNL     1      -2.486  -2.672   0.000  0.00  0.00    +0.063 A 
ATOM      6  C   UNL     1      -1.258  -2.029   0.003  0.00  0.00    +0.176 A 
ATOM      7 BR   UNL     1      -2.565  -4.561  -0.024  0.00  0.00    -0.046 Br
ENDROOT
BRANCH   1   9
ATOM      8  C   UNL     1      -0.022   1.424   0.064  0.00  0.00    +0.277 C 
ATOM      9  O   UNL     1      -0.001  -0.004   0.038  0.00  0.00    -0.491 OA
ENDBRANCH   1   9
BRANCH   6  10
ATOM     10  O   UNL     1      -0.108  -2.756  -0.012  0.00  0.00    -0.480 OA
BRANCH  10  11
ATOM     11  C   UNL     1       0.368  -3.190  -1.287  0.00  0.00    +0.224 C 
ATOM     12  C   UNL     1       1.383  -2.151  -1.815  0.00  0.00    +0.213 C 
ATOM     13  S   UNL     1       2.985  -2.953  -1.369  0.00  0.00    -0.025 S 
ATOM     14  O   UNL     1       3.951  -2.662  -2.370  0.00  0.00    -0.174 OA
ATOM     15  O   UNL     1       3.281  -2.687  -0.005  0.00  0.00    -0.174 OA
ATOM     16  C   UNL     1       2.429  -4.704  -1.546  0.00  0.00    +0.201 C 
ATOM     17  C   UNL     1       0.946  -4.590  -1.139  0.00  0.00    +0.177 C 
BRANCH  17  18
ATOM     18  O   UNL     1       0.184  -5.486  -1.950  0.00  0.00    -0.386 OA
ATOM     19  H   UNL     1       0.487  -6.404  -1.913  0.00  0.00    +0.210 HD
ENDBRANCH  17  18
ENDBRANCH  10  11
ENDBRANCH   6  10
BRANCH   3  20
ATOM     20  C   UNL     1      -4.875   0.252   0.040  0.00  0.00    -0.050 C 
BRANCH  20  21
ATOM     21  N   UNL     1      -5.289   0.532  -1.342  0.00  0.00    +0.381 N 
ATOM     22  H   UNL     1      -6.143   1.070  -1.335  0.00  0.00    -0.090 HD
ATOM     23  H   UNL     1      -4.566   1.057  -1.810  0.00  0.00    -0.090 HD
ATOM     24  H   UNL     1      -5.443  -0.337  -1.830  0.00  0.00    -0.090 HD
ENDBRANCH  20  21
ENDBRANCH   3  20
TORSDOF 6
