REMARK  Name = ZINC24502917
REMARK  11 active torsions:
REMARK  status: ('A' for Active; 'I' for Inactive)
REMARK    1  A    between atoms: C_1  and  O_2
REMARK    2  A    between atoms: O_2  and  C_3
REMARK    3  A    between atoms: C_3  and  C_4
REMARK    4  A    between atoms: C_4  and  N_5
REMARK    5  A    between atoms: C_6  and  C_8
REMARK    6  A    between atoms: C_12  and  N_13
REMARK    7  A    between atoms: C_14  and  C_16
REMARK    8  A    between atoms: C_16  and  O_17
REMARK    9  A    between atoms: O_17  and  C_18
REMARK   10  A    between atoms: C_18  and  C_20
REMARK   11  A    between atoms: C_25  and  N_26
REMARK                            x       y       z     vdW  Elec       q    Type
REMARK                         _______ _______ _______ _____ _____    ______ ____
ROOT
ATOM      1  N   UNL     1       4.684   8.157   0.248  0.00  0.00    -0.277 N 
ATOM      2  C   UNL     1       3.606   7.349   0.236  0.00  0.00    +0.255 C 
ATOM      3  O   UNL     1       2.493   7.822   0.333  0.00  0.00    -0.272 OA
ATOM      4  H   UNL     1       5.694   7.729   0.161  0.00  0.00    +0.155 HD
ENDROOT
BRANCH   1   9
ATOM      5  C   UNL     1       5.499  10.513   0.408  0.00  0.00    +0.069 A 
ATOM      6  C   UNL     1       5.059  11.892   0.540  0.00  0.00    -0.023 A 
ATOM      7  C   UNL     1       3.722  12.063   0.624  0.00  0.00    -0.004 A 
ATOM      8  S   UNL     1       3.049  10.429   0.522  0.00  0.00    -0.077 S 
ATOM      9  C   UNL     1       4.522   9.529   0.371  0.00  0.00    +0.084 A 
ATOM     10  C   UNL     1       2.985  13.359   0.770  0.00  0.00    +0.043 C 
ATOM     11  C   UNL     1       3.990  14.442   1.189  0.00  0.00    +0.005 C 
ATOM     12  C   UNL     1       5.218  14.355   0.277  0.00  0.00    +0.005 C 
ATOM     13  C   UNL     1       6.008  13.083   0.589  0.00  0.00    +0.037 C 
BRANCH   5  15
ATOM     14  N   UNL     1       7.630   9.922   1.434  0.00  0.00    -0.309 N 
ATOM     15  C   UNL     1       6.923  10.175   0.315  0.00  0.00    +0.247 C 
ATOM     16  O   UNL     1       7.466  10.123  -0.773  0.00  0.00    -0.270 OA
ATOM     17  H   UNL     1       7.139   9.969   2.417  0.00  0.00    +0.149 HD
BRANCH  14  18
ATOM     18  C   UNL     1       9.052   9.584   1.341  0.00  0.00    +0.132 C 
BRANCH  18  19
ATOM     19  C   UNL     1       9.613   9.345   2.744  0.00  0.00    +0.178 C 
BRANCH  19  21
ATOM     20  C   UNL     1       9.443   7.883   4.636  0.00  0.00    +0.194 C 
ATOM     21  O   UNL     1       8.988   8.195   3.318  0.00  0.00    -0.381 OA
ENDBRANCH  19  21
ENDBRANCH  18  19
ENDBRANCH  14  18
ENDBRANCH   5  15
ENDBRANCH   1   9
BRANCH   2  22
ATOM     22  C   UNL     1       3.783   5.859   0.103  0.00  0.00    +0.328 C 
BRANCH  22  23
ATOM     23  O   UNL     1       2.482   5.214   0.116  0.00  0.00    -0.452 OA
BRANCH  23  24
ATOM     24  C   UNL     1       2.463   3.871   0.005  0.00  0.00    +0.341 C 
ATOM     25  O   UNL     1       3.506   3.256  -0.100  0.00  0.00    -0.245 OA
BRANCH  24  26
ATOM     26  C   UNL     1       1.179   3.149   0.010  0.00  0.00    +0.081 A 
ATOM     27  C   UNL     1      -0.026   3.857   0.006  0.00  0.00    +0.036 A 
ATOM     28  C   UNL     1      -1.224   3.176   0.011  0.00  0.00    +0.042 A 
ATOM     29  C   UNL     1      -1.240   1.788   0.015  0.00  0.00    +0.022 A 
ATOM     30  C   UNL     1      -0.059   1.076   0.024  0.00  0.00    +0.025 A 
ATOM     31  C   UNL     1       1.158   1.745   0.019  0.00  0.00    +0.039 A 
ATOM     32 CL   UNL     1      -2.719   4.057   0.006  0.00  0.00    -0.084 Cl
BRANCH  31  33
ATOM     33  N   UNL     1       2.348   1.029   0.023  0.00  0.00    -0.357 N 
ATOM     34  H   UNL     1       2.329  -0.070   0.030  0.00  0.00    +0.142 HD
ATOM     35  H   UNL     1       3.311   1.562   0.019  0.00  0.00    +0.142 HD
ENDBRANCH  31  33
ENDBRANCH  24  26
ENDBRANCH  23  24
ENDBRANCH  22  23
ENDBRANCH   2  22
TORSDOF 10
