REMARK  Name = ZINC40784318
REMARK  9 active torsions:
REMARK  status: ('A' for Active; 'I' for Inactive)
REMARK    1  A    between atoms: C_1  and  C_2
REMARK    2  A    between atoms: C_2  and  C_4
REMARK    3  A    between atoms: C_2  and  N_7
REMARK    4  A    between atoms: C_4  and  O_5
REMARK    5  A    between atoms: O_5  and  C_6
REMARK    6  A    between atoms: C_9  and  N_26
REMARK    7  A    between atoms: C_10  and  N_14
REMARK    8  A    between atoms: C_20  and  O_24
REMARK    9  A    between atoms: O_24  and  C_25
REMARK                            x       y       z     vdW  Elec       q    Type
REMARK                         _______ _______ _______ _____ _____    ______ ____
ROOT
ATOM      1  N   UNL     1       0.688  -0.476  -1.203  0.00  0.00    -0.323 N 
ATOM      2  C   UNL     1      -0.015  -0.612  -2.394  0.00  0.00    +0.145 A 
ATOM      3  C   UNL     1       0.627  -1.067  -3.549  0.00  0.00    +0.106 A 
ATOM      4  C   UNL     1      -0.126  -1.186  -4.718  0.00  0.00    +0.150 A 
ATOM      5  N   UNL     1      -1.417  -0.863  -4.689  0.00  0.00    -0.219 NA
ATOM      6  C   UNL     1      -1.984  -0.437  -3.578  0.00  0.00    +0.225 A 
ATOM      7  N   UNL     1      -1.311  -0.316  -2.452  0.00  0.00    -0.219 NA
ATOM      8  H   UNL     1       1.632  -0.695  -1.170  0.00  0.00    +0.148 HD
ENDROOT
BRANCH   4   9
ATOM      9  N   UNL     1       0.464  -1.634  -5.896  0.00  0.00    -0.277 N 
ATOM     10  C   UNL     1      -0.292  -1.747  -7.048  0.00  0.00    +0.165 A 
ATOM     11  N   UNL     1      -1.564  -1.477  -7.228  0.00  0.00    -0.225 NA
ATOM     12  C   UNL     1      -2.178  -1.636  -8.422  0.00  0.00    +0.081 A 
ATOM     13  C   UNL     1      -3.530  -1.384  -8.747  0.00  0.00    +0.032 A 
ATOM     14  C   UNL     1      -3.999  -1.599 -10.017  0.00  0.00    +0.048 A 
ATOM     15  C   UNL     1      -3.167  -2.071 -11.027  0.00  0.00    +0.121 A 
ATOM     16  C   UNL     1      -1.834  -2.328 -10.742  0.00  0.00    +0.063 A 
ATOM     17  C   UNL     1      -1.361  -2.113  -9.471  0.00  0.00    +0.044 A 
ATOM     18  S   UNL     1       0.217  -2.291  -8.673  0.00  0.00    -0.052 S 
ATOM     19  H   UNL     1       1.406  -1.867  -5.908  0.00  0.00    +0.156 HD
BRANCH  15  20
ATOM     20  O   UNL     1      -3.655  -2.278 -12.280  0.00  0.00    -0.495 OA
ATOM     21  C   UNL     1      -5.038  -1.990 -12.493  0.00  0.00    +0.277 C 
ENDBRANCH  15  20
ENDBRANCH   4   9
BRANCH   3  22
ATOM     22  N   UNL     1       1.991  -1.396  -3.533  0.00  0.00    -0.353 N 
ATOM     23  H   UNL     1       2.502  -1.309  -2.713  0.00  0.00    +0.143 HD
ATOM     24  H   UNL     1       2.424  -1.711  -4.342  0.00  0.00    +0.143 HD
ENDBRANCH   3  22
BRANCH   1  26
ATOM     25  C   UNL     1      -0.019   1.526   0.010  0.00  0.00    +0.030 C 
ATOM     26  C   UNL     1       0.002  -0.004   0.002  0.00  0.00    +0.094 C 
BRANCH  26  27
ATOM     27  C   UNL     1       0.742  -0.511   1.242  0.00  0.00    +0.181 C 
BRANCH  27  28
ATOM     28  O   UNL     1       2.044   0.076   1.292  0.00  0.00    -0.381 OA
ATOM     29  C   UNL     1       2.823  -0.333   2.418  0.00  0.00    +0.194 C 
ENDBRANCH  27  28
ENDBRANCH  26  27
ENDBRANCH   1  26
TORSDOF 6
