REMARK  Name = ZINC57666062
REMARK  5 active torsions:
REMARK  status: ('A' for Active; 'I' for Inactive)
REMARK    1  A    between atoms: C_1  and  C_2
REMARK    2  A    between atoms: C_2  and  C_3
REMARK    3  A    between atoms: C_3  and  C_5
REMARK    4  A    between atoms: C_5  and  C_7
REMARK    5  A    between atoms: C_16  and  C_19
REMARK                            x       y       z     vdW  Elec       q    Type
REMARK                         _______ _______ _______ _____ _____    ______ ____
ROOT
ATOM      1  C   UNL     1       1.974  -2.614  -0.493  0.00  0.00    +0.020 A 
ATOM      2  C   UNL     1       2.926  -1.809   0.144  0.00  0.00    +0.015 A 
ATOM      3  C   UNL     1       3.983  -2.387   0.811  0.00  0.00    +0.048 A 
ATOM      4  C   UNL     1       4.107  -3.769   0.856  0.00  0.00    +0.143 A 
ATOM      5  C   UNL     1       3.160  -4.579   0.222  0.00  0.00    +0.076 A 
ATOM      6  C   UNL     1       2.096  -4.009  -0.445  0.00  0.00    +0.038 A 
ATOM      7  N   UNL     1       3.305  -5.973   0.279  0.00  0.00    -0.280 N 
ATOM      8  C   UNL     1       4.149  -6.508   1.188  0.00  0.00    +0.258 C 
ATOM      9  O   UNL     1       4.313  -7.708   1.235  0.00  0.00    -0.271 OA
ATOM     10  C   UNL     1       4.888  -5.605   2.143  0.00  0.00    +0.256 C 
ATOM     11  O   UNL     1       5.145  -4.347   1.513  0.00  0.00    -0.478 OA
ATOM     12  C   UNL     1       6.215  -6.257   2.537  0.00  0.00    +0.062 C 
ATOM     13  H   UNL     1       2.806  -6.545  -0.326  0.00  0.00    +0.155 HD
ENDROOT
BRANCH   1  14
ATOM     14  C   UNL     1       0.847  -1.998  -1.206  0.00  0.00    +0.177 C 
ATOM     15  O   UNL     1       0.021  -2.697  -1.753  0.00  0.00    -0.291 OA
BRANCH  14  16
ATOM     16  C   UNL     1       0.718  -0.497  -1.257  0.00  0.00    +0.127 C 
ATOM     17 BR   UNL     1      -0.319   0.017  -2.845  0.00  0.00    -0.080 Br
BRANCH  16  19
ATOM     18  C   UNL     1      -0.019   1.526   0.010  0.00  0.00    +0.005 C 
ATOM     19  C   UNL     1       0.002  -0.004   0.002  0.00  0.00    +0.019 C 
ENDBRANCH  16  19
ENDBRANCH  14  16
ENDBRANCH   1  14
TORSDOF 3
