REMARK  Name = ZINC09866123
REMARK  5 active torsions:
REMARK  status: ('A' for Active; 'I' for Inactive)
REMARK    1  A    between atoms: C_1  and  C_2
REMARK    2  A    between atoms: C_9  and  N_14
REMARK    3  A    between atoms: C_15  and  C_17
REMARK    4  A    between atoms: C_19  and  C_28
REMARK    5  A    between atoms: N_21  and  C_22
REMARK                            x       y       z     vdW  Elec       q    Type
REMARK                         _______ _______ _______ _____ _____    ______ ____
ROOT
ATOM      1  N   UNL     1      -2.586  -4.414  -0.162  0.00  0.00    -0.280 N 
ATOM      2  C   UNL     1      -1.389  -4.994  -0.378  0.00  0.00    +0.267 C 
ATOM      3  O   UNL     1      -0.490  -4.360  -0.897  0.00  0.00    -0.268 OA
ATOM      4  H   UNL     1      -3.282  -4.898   0.309  0.00  0.00    +0.155 HD
ENDROOT
BRANCH   1  12
ATOM      5  C   UNL     1      -4.074   0.353  -4.292  0.00  0.00    +0.062 C 
ATOM      6  C   UNL     1      -4.564   0.881  -2.943  0.00  0.00    +0.256 C 
ATOM      7  C   UNL     1      -5.782   0.103  -2.512  0.00  0.00    +0.258 C 
ATOM      8  O   UNL     1      -6.891   0.493  -2.812  0.00  0.00    -0.271 OA
ATOM      9  N   UNL     1      -5.633  -1.029  -1.790  0.00  0.00    -0.279 N 
ATOM     10  C   UNL     1      -4.342  -1.438  -1.426  0.00  0.00    +0.077 A 
ATOM     11  C   UNL     1      -4.111  -2.727  -0.975  0.00  0.00    +0.050 A 
ATOM     12  C   UNL     1      -2.825  -3.112  -0.619  0.00  0.00    +0.036 A 
ATOM     13  C   UNL     1      -1.776  -2.207  -0.715  0.00  0.00    +0.027 A 
ATOM     14  C   UNL     1      -2.007  -0.920  -1.166  0.00  0.00    +0.049 A 
ATOM     15  C   UNL     1      -3.287  -0.532  -1.522  0.00  0.00    +0.143 A 
ATOM     16  O   UNL     1      -3.529   0.731  -1.968  0.00  0.00    -0.478 OA
ATOM     17  H   UNL     1      -6.407  -1.551  -1.528  0.00  0.00    +0.155 HD
ENDBRANCH   1  12
BRANCH   2  18
ATOM     18  C   UNL     1      -1.169  -6.395   0.015  0.00  0.00    +0.130 A 
ATOM     19  C   UNL     1      -2.058  -7.216   0.682  0.00  0.00    +0.063 A 
ATOM     20  C   UNL     1      -1.391  -8.447   0.824  0.00  0.00    +0.094 A 
ATOM     21  N   UNL     1      -0.203  -8.323   0.270  0.00  0.00    -0.166 NA
ATOM     22  N   UNL     1      -0.046  -7.144  -0.214  0.00  0.00    -0.227 N 
BRANCH  22  23
ATOM     23  C   UNL     1       1.103  -6.691  -0.873  0.00  0.00    +0.066 A 
ATOM     24  C   UNL     1       1.559  -7.348  -2.008  0.00  0.00    +0.028 A 
ATOM     25  C   UNL     1       2.689  -6.896  -2.659  0.00  0.00    +0.002 A 
ATOM     26  C   UNL     1       3.374  -5.796  -2.175  0.00  0.00    +0.000 A 
ATOM     27  C   UNL     1       2.926  -5.142  -1.042  0.00  0.00    +0.002 A 
ATOM     28  C   UNL     1       1.793  -5.587  -0.389  0.00  0.00    +0.028 A 
ENDBRANCH  22  23
BRANCH  20  29
ATOM     29  C   UNL     1      -1.930  -9.665   1.478  0.00  0.00    +0.002 A 
ATOM     30  C   UNL     1      -3.209  -9.655   2.030  0.00  0.00    +0.010 A 
ATOM     31  C   UNL     1      -3.707 -10.792   2.634  0.00  0.00    +0.001 A 
ATOM     32  C   UNL     1      -2.934 -11.937   2.701  0.00  0.00    +0.000 A 
ATOM     33  C   UNL     1      -1.662 -11.952   2.159  0.00  0.00    +0.001 A 
ATOM     34  C   UNL     1      -1.156 -10.822   1.548  0.00  0.00    +0.010 A 
ENDBRANCH  20  29
ENDBRANCH   2  18
TORSDOF 4
