REMARK  Name = ZINC04384163
REMARK  7 active torsions:
REMARK  status: ('A' for Active; 'I' for Inactive)
REMARK    1  A    between atoms: C_1  and  C_2
REMARK    2  A    between atoms: C_6  and  N_8
REMARK    3  A    between atoms: C_9  and  N_31
REMARK    4  A    between atoms: C_14  and  S_15
REMARK    5  A    between atoms: S_15  and  C_16
REMARK    6  A    between atoms: C_16  and  C_18
REMARK    7  A    between atoms: C_16  and  C_19
REMARK                            x       y       z     vdW  Elec       q    Type
REMARK                         _______ _______ _______ _____ _____    ______ ____
ROOT
ATOM      1  N   UNL     1       0.063  -2.799   2.394  0.00  0.00    -0.277 N 
ATOM      2  C   UNL     1       0.146  -2.121   3.584  0.00  0.00    +0.108 A 
ATOM      3  C   UNL     1       0.147  -2.829   4.751  0.00  0.00    +0.114 A 
ATOM      4  C   UNL     1       0.064  -4.235   4.696  0.00  0.00    +0.276 A 
ATOM      5  O   UNL     1       0.063  -4.891   5.727  0.00  0.00    -0.266 OA
ATOM      6  N   UNL     1      -0.015  -4.851   3.506  0.00  0.00    -0.185 NA
ATOM      7  C   UNL     1      -0.021  -4.161   2.385  0.00  0.00    +0.179 A 
ENDROOT
BRANCH   1  13
ATOM      8  C   UNL     1       2.553  -0.756  -1.323  0.00  0.00    +0.044 C 
ATOM      9  C   UNL     1       1.252  -1.087  -0.637  0.00  0.00    -0.048 A 
ATOM     10  C   UNL     1       0.053  -0.691  -1.202  0.00  0.00    +0.003 A 
ATOM     11  C   UNL     1      -1.142  -0.993  -0.576  0.00  0.00    +0.002 A 
ATOM     12  C   UNL     1      -1.142  -1.691   0.616  0.00  0.00    +0.026 A 
ATOM     13  C   UNL     1       0.060  -2.090   1.185  0.00  0.00    +0.050 A 
ATOM     14  C   UNL     1       1.258  -1.790   0.551  0.00  0.00    +0.029 A 
ENDBRANCH   1  13
BRANCH   2  15
ATOM     15  N   UNL     1       0.227  -0.747   3.601  0.00  0.00    -0.344 N 
ATOM     16  H   UNL     1       0.144  -0.246   2.775  0.00  0.00    +0.144 HD
ATOM     17  H   UNL     1       0.366  -0.280   4.440  0.00  0.00    +0.144 HD
ENDBRANCH   2  15
BRANCH   7  18
ATOM     18  S   UNL     1      -0.134  -5.011   0.845  0.00  0.00    -0.076 S 
BRANCH  18  19
ATOM     19  C   UNL     1      -0.224  -6.761   1.316  0.00  0.00    +0.117 C 
ATOM     20  C   UNL     1       1.087  -7.177   1.986  0.00  0.00    +0.027 C 
BRANCH  19  21
ATOM     21  C   UNL     1      -0.448  -7.601   0.085  0.00  0.00    +0.124 A 
ATOM     22  N   UNL     1      -0.038  -7.110  -1.114  0.00  0.00    -0.309 N 
ATOM     23  H   UNL     1       0.385  -6.238  -1.157  0.00  0.00    +0.170 HD
ATOM     24  C   UNL     1      -0.216  -7.825  -2.248  0.00  0.00    +0.259 A 
ATOM     25  O   UNL     1       0.147  -7.398  -3.329  0.00  0.00    -0.267 OA
ATOM     26  C   UNL     1      -0.864  -9.140  -2.125  0.00  0.00    +0.065 A 
ATOM     27  C   UNL     1      -1.093  -9.955  -3.232  0.00  0.00    +0.015 A 
ATOM     28  C   UNL     1      -1.704 -11.178  -3.059  0.00  0.00    +0.001 A 
ATOM     29  C   UNL     1      -2.092 -11.601  -1.794  0.00  0.00    +0.002 A 
ATOM     30  C   UNL     1      -1.874 -10.811  -0.688  0.00  0.00    +0.028 A 
ATOM     31  C   UNL     1      -1.256  -9.568  -0.838  0.00  0.00    +0.078 A 
ATOM     32  N   UNL     1      -1.017  -8.759   0.225  0.00  0.00    -0.233 NA
ENDBRANCH  19  21
ENDBRANCH  18  19
ENDBRANCH   7  18
TORSDOF 5
