REMARK  Name = ZINC32605643
REMARK  5 active torsions:
REMARK  status: ('A' for Active; 'I' for Inactive)
REMARK    1  A    between atoms: C_3  and  N_25
REMARK    2  A    between atoms: C_6  and  C_7
REMARK    3  A    between atoms: N_9  and  N_10
REMARK    4  A    between atoms: C_11  and  C_13
REMARK    5  A    between atoms: C_22  and  N_23
REMARK                            x       y       z     vdW  Elec       q    Type
REMARK                         _______ _______ _______ _____ _____    ______ ____
ROOT
ATOM      1  N   UNL     1       2.624  -4.328   1.013  0.00  0.00    -0.230 N 
ATOM      2  C   UNL     1       3.724  -4.926   0.514  0.00  0.00    +0.263 C 
ATOM      3  O   UNL     1       4.732  -4.275   0.314  0.00  0.00    -0.269 OA
ATOM      4  H   UNL     1       1.712  -4.916   1.193  0.00  0.00    +0.173 HD
ENDROOT
BRANCH   2   5
ATOM      5  C   UNL     1       3.705  -6.366   0.210  0.00  0.00    +0.077 A 
ATOM      6  C   UNL     1       2.512  -7.099   0.319  0.00  0.00    +0.126 A 
ATOM      7  N   UNL     1       2.465  -8.378   0.050  0.00  0.00    -0.254 NA
ATOM      8  C   UNL     1       3.552  -9.064  -0.333  0.00  0.00    +0.073 A 
ATOM      9  C   UNL     1       3.472 -10.438  -0.610  0.00  0.00    +0.030 A 
ATOM     10  C   UNL     1       4.587 -11.118  -0.997  0.00  0.00    +0.022 A 
ATOM     11  C   UNL     1       5.814 -10.470  -1.125  0.00  0.00    +0.042 A 
ATOM     12  C   UNL     1       5.928  -9.136  -0.865  0.00  0.00    +0.032 A 
ATOM     13  C   UNL     1       4.799  -8.409  -0.465  0.00  0.00    +0.023 A 
ATOM     14  C   UNL     1       4.880  -7.023  -0.186  0.00  0.00    +0.048 A 
ATOM     15 CL   UNL     1       7.212 -11.371  -1.621  0.00  0.00    -0.084 Cl
BRANCH  14  16
ATOM     16  N   UNL     1       6.072  -6.342  -0.301  0.00  0.00    -0.357 N 
ATOM     17  H   UNL     1       6.982  -6.875  -0.613  0.00  0.00    +0.142 HD
ATOM     18  H   UNL     1       6.113  -5.265  -0.080  0.00  0.00    +0.142 HD
ENDBRANCH  14  16
ENDBRANCH   2   5
BRANCH   1  21
ATOM     19  C   UNL     1       1.543  -2.359   1.802  0.00  0.00    +0.260 C 
ATOM     20  O   UNL     1       0.535  -3.009   2.001  0.00  0.00    -0.269 OA
ATOM     21  N   UNL     1       2.643  -2.957   1.302  0.00  0.00    -0.230 N 
ATOM     22  H   UNL     1       3.554  -2.369   1.122  0.00  0.00    +0.173 HD
BRANCH  19  28
ATOM     23  C   UNL     1       0.424  -0.290   2.624  0.00  0.00    +0.015 A 
ATOM     24  C   UNL     1       0.449   1.060   2.907  0.00  0.00    +0.033 A 
ATOM     25  C   UNL     1       1.598   1.796   2.679  0.00  0.00    +0.126 A 
ATOM     26  C   UNL     1       2.729   1.186   2.167  0.00  0.00    +0.033 A 
ATOM     27  C   UNL     1       2.717  -0.164   1.880  0.00  0.00    +0.015 A 
ATOM     28  C   UNL     1       1.562  -0.913   2.107  0.00  0.00    +0.038 A 
BRANCH  25  29
ATOM     29  N   UNL     1       1.617   3.244   2.985  0.00  0.00    +0.056 N 
ATOM     30  O   UNL     1       0.623   3.785   3.436  0.00  0.00    -0.126 OA
ATOM     31  O   UNL     1       2.627   3.896   2.786  0.00  0.00    -0.126 OA
ENDBRANCH  25  29
ENDBRANCH  19  28
ENDBRANCH   1  21
TORSDOF 5
