REMARK  Name = ZINC64414529
REMARK  6 active torsions:
REMARK  status: ('A' for Active; 'I' for Inactive)
REMARK    1  A    between atoms: C_7  and  C_10
REMARK    2  A    between atoms: C_10  and  C_11
REMARK    3  A    between atoms: C_11  and  N_12
REMARK    4  A    between atoms: C_13  and  C_15
REMARK    5  A    between atoms: C_15  and  N_16
REMARK    6  A    between atoms: N_19  and  C_22
REMARK                            x       y       z     vdW  Elec       q    Type
REMARK                         _______ _______ _______ _____ _____    ______ ____
ROOT
ATOM      1  N   UNL     1      -0.468  -4.830  -1.433  0.00  0.00    -0.314 N 
ATOM      2  C   UNL     1      -0.815  -5.404  -2.602  0.00  0.00    +0.230 C 
ATOM      3  O   UNL     1      -0.364  -4.979  -3.645  0.00  0.00    -0.274 OA
ATOM      4  H   UNL     1      -0.829  -5.170  -0.600  0.00  0.00    +0.149 HD
ENDROOT
BRANCH   1   5
ATOM      5  C   UNL     1       0.456  -3.693  -1.422  0.00  0.00    +0.108 C 
BRANCH   5   6
ATOM      6  C   UNL     1       0.682  -3.234   0.020  0.00  0.00    +0.052 C 
BRANCH   6  13
ATOM      7  C   UNL     1       0.010   1.305   0.071  0.00  0.00    +0.001 A 
ATOM      8  C   UNL     1       1.198   2.049   0.077  0.00  0.00    +0.002 A 
ATOM      9  C   UNL     1       2.419   1.473   0.070  0.00  0.00    +0.026 A 
ATOM     10  C   UNL     1       2.546   0.057   0.054  0.00  0.00    +0.043 A 
ATOM     11  N   UNL     1       3.598  -0.725   0.043  0.00  0.00    -0.380 N 
ATOM     12  C   UNL     1       3.143  -2.120   0.029  0.00  0.00    +0.144 C 
ATOM     13  C   UNL     1       1.632  -2.064   0.032  0.00  0.00    -0.040 C 
ATOM     14  C   UNL     1       1.306  -0.752   0.047  0.00  0.00    -0.001 A 
ATOM     15  C   UNL     1       0.018  -0.047   0.057  0.00  0.00    +0.010 A 
ATOM     16  H   UNL     1       4.522  -0.431   0.044  0.00  0.00    +0.160 HD
ENDBRANCH   6  13
ENDBRANCH   5   6
ENDBRANCH   1   5
BRANCH   2  17
ATOM     17  C   UNL     1      -1.766  -6.573  -2.614  0.00  0.00    +0.205 C 
BRANCH  17  18
ATOM     18  N   UNL     1      -1.982  -7.013  -3.995  0.00  0.00    -0.275 N 
ATOM     19  C   UNL     1      -3.031  -6.510  -4.894  0.00  0.00    +0.129 C 
ATOM     20  C   UNL     1      -2.807  -7.298  -6.200  0.00  0.00    +0.134 C 
ATOM     21  N   UNL     1      -1.655  -8.160  -5.897  0.00  0.00    -0.254 N 
ATOM     22  C   UNL     1      -1.252  -7.931  -4.641  0.00  0.00    +0.310 C 
ATOM     23  O   UNL     1      -0.311  -8.509  -4.131  0.00  0.00    -0.252 OA
BRANCH  21  24
ATOM     24  C   UNL     1      -1.070  -9.072  -6.784  0.00  0.00    +0.038 A 
ATOM     25  C   UNL     1       0.086  -9.751  -6.421  0.00  0.00    +0.025 A 
ATOM     26  C   UNL     1       0.662 -10.649  -7.297  0.00  0.00    +0.022 A 
ATOM     27  C   UNL     1       0.089 -10.873  -8.537  0.00  0.00    +0.041 A 
ATOM     28  C   UNL     1      -1.063 -10.197  -8.902  0.00  0.00    +0.022 A 
ATOM     29  C   UNL     1      -1.646  -9.303  -8.026  0.00  0.00    +0.025 A 
ATOM     30 CL   UNL     1       0.815 -12.003  -9.636  0.00  0.00    -0.084 Cl
ENDBRANCH  21  24
ENDBRANCH  17  18
ENDBRANCH   2  17
TORSDOF 6
