REMARK  Name = ZINC03306810
REMARK  11 active torsions:
REMARK  status: ('A' for Active; 'I' for Inactive)
REMARK    1  A    between atoms: C_1  and  C_2
REMARK    2  A    between atoms: C_2  and  C_3
REMARK    3  A    between atoms: C_3  and  C_4
REMARK    4  A    between atoms: C_4  and  N_5
REMARK    5  A    between atoms: N_5  and  C_6
REMARK    6  A    between atoms: N_5  and  C_23
REMARK    7  A    between atoms: C_7  and  N_22
REMARK    8  A    between atoms: N_8  and  C_15
REMARK    9  A    between atoms: C_15  and  C_16
REMARK   10  A    between atoms: C_23  and  N_25
REMARK   11  A    between atoms: C_26  and  C_28
REMARK                            x       y       z     vdW  Elec       q    Type
REMARK                         _______ _______ _______ _____ _____    ______ ____
ROOT
ATOM      1  C   UNL     1       1.273   1.834  -0.219  0.00  0.00    +0.139 A 
ATOM      2  C   UNL     1       1.301   2.825  -1.178  0.00  0.00    +0.128 A 
ATOM      3  N   UNL     1       2.445   3.573  -1.337  0.00  0.00    -0.276 N 
ATOM      4  C   UNL     1       3.527   3.333  -0.574  0.00  0.00    +0.331 A 
ATOM      5  O   UNL     1       4.530   4.001  -0.734  0.00  0.00    -0.246 OA
ATOM      6  N   UNL     1       3.519   2.368   0.362  0.00  0.00    -0.273 N 
ATOM      7  H   UNL     1       4.336   2.210   0.916  0.00  0.00    +0.173 HD
ATOM      8  C   UNL     1       2.422   1.611   0.562  0.00  0.00    +0.277 A 
ATOM      9  O   UNL     1       2.426   0.738   1.414  0.00  0.00    -0.266 OA
ENDROOT
BRANCH   2  10
ATOM     10  N   UNL     1       0.198   3.066  -1.962  0.00  0.00    -0.343 N 
ATOM     11  H   UNL     1      -0.612   2.550  -1.831  0.00  0.00    +0.144 HD
ATOM     12  H   UNL     1       0.230   3.753  -2.646  0.00  0.00    +0.144 HD
ENDBRANCH   2  10
BRANCH   1  13
ATOM     13  N   UNL     1       0.112   1.054  -0.028  0.00  0.00    -0.275 N 
BRANCH  13  14
ATOM     14  C   UNL     1       0.149  -0.275  -0.253  0.00  0.00    +0.144 C 
ATOM     15  S   UNL     1       1.568  -0.998  -0.880  0.00  0.00    -0.018 S 
BRANCH  14  16
ATOM     16  N   UNL     1      -0.932  -1.034   0.016  0.00  0.00    -0.267 N 
ATOM     17  C   UNL     1      -0.895  -2.362  -0.209  0.00  0.00    +0.222 C 
ATOM     18  O   UNL     1       0.110  -2.874  -0.653  0.00  0.00    -0.275 OA
ATOM     19  H   UNL     1      -1.736  -0.624   0.372  0.00  0.00    +0.157 HD
BRANCH  17  20
ATOM     20  C   UNL     1      -2.104  -3.211   0.092  0.00  0.00    +0.075 C 
ATOM     21  C   UNL     1      -2.002  -4.196   1.258  0.00  0.00    +0.013 C 
ATOM     22  C   UNL     1      -1.999  -4.712  -0.183  0.00  0.00    +0.013 C 
ENDBRANCH  17  20
ENDBRANCH  14  16
ENDBRANCH  13  14
BRANCH  13  23
ATOM     23  C   UNL     1      -1.134   1.688   0.410  0.00  0.00    +0.113 C 
BRANCH  23  24
ATOM     24  C   UNL     1      -1.242   1.603   1.934  0.00  0.00    +0.019 C 
BRANCH  24  26
ATOM     25  C   UNL     1      -2.651   2.179   3.914  0.00  0.00    +0.004 C 
ATOM     26  C   UNL     1      -2.543   2.265   2.391  0.00  0.00    -0.002 C 
ENDBRANCH  24  26
ENDBRANCH  23  24
ENDBRANCH  13  23
ENDBRANCH   1  13
BRANCH   3  27
ATOM     27  C   UNL     1       2.488   4.632  -2.348  0.00  0.00    +0.163 C 
BRANCH  27  28
ATOM     28  C   UNL     1       2.972   4.060  -3.655  0.00  0.00    -0.028 A 
ATOM     29  C   UNL     1       4.323   4.052  -3.948  0.00  0.00    +0.005 A 
ATOM     30  C   UNL     1       4.768   3.523  -5.145  0.00  0.00    +0.000 A 
ATOM     31  C   UNL     1       3.861   3.010  -6.054  0.00  0.00    +0.000 A 
ATOM     32  C   UNL     1       2.510   3.023  -5.763  0.00  0.00    +0.000 A 
ATOM     33  C   UNL     1       2.065   3.548  -4.564  0.00  0.00    +0.005 A 
ENDBRANCH  27  28
ENDBRANCH   3  27
TORSDOF 10
