REMARK  Name = ZINC43223263
REMARK  8 active torsions:
REMARK  status: ('A' for Active; 'I' for Inactive)
REMARK    1  A    between atoms: C_3  and  C_8
REMARK    2  A    between atoms: C_8  and  C_9
REMARK    3  A    between atoms: C_9  and  N_10
REMARK    4  A    between atoms: C_11  and  C_13
REMARK    5  A    between atoms: C_18  and  C_20
REMARK    6  A    between atoms: N_22  and  C_23
REMARK    7  A    between atoms: C_23  and  C_24
REMARK    8  A    between atoms: C_24  and  C_25
REMARK                            x       y       z     vdW  Elec       q    Type
REMARK                         _______ _______ _______ _____ _____    ______ ____
ROOT
ATOM      1  C   UNL     1       7.263   4.304   2.566  0.00  0.00    +0.068 C 
ATOM      2  C   UNL     1       7.057   5.688   1.914  0.00  0.00    -0.069 C 
ATOM      3  N   UNL     1       6.805   6.606   3.055  0.00  0.00    +0.380 N 
ATOM      4  C   UNL     1       7.747   6.145   4.108  0.00  0.00    -0.069 C 
ATOM      5  C   UNL     1       7.719   4.602   4.009  0.00  0.00    +0.068 C 
ATOM      6  H   UNL     1       7.008   7.559   2.793  0.00  0.00    -0.086 HD
ATOM      7  H   UNL     1       5.851   6.520   3.373  0.00  0.00    -0.086 HD
ENDROOT
BRANCH   1   9
ATOM      8  N   UNL     1       5.380   3.191   1.411  0.00  0.00    -0.315 N 
ATOM      9  C   UNL     1       5.970   3.531   2.574  0.00  0.00    +0.215 C 
ATOM     10  O   UNL     1       5.460   3.214   3.627  0.00  0.00    -0.276 OA
ATOM     11  H   UNL     1       5.789   3.445   0.568  0.00  0.00    +0.149 HD
BRANCH   8  12
ATOM     12  C   UNL     1       4.123   2.440   1.418  0.00  0.00    +0.109 C 
BRANCH  12  13
ATOM     13  C   UNL     1       3.672   2.186  -0.021  0.00  0.00    +0.054 C 
BRANCH  13  16
ATOM     14  C   UNL     1      -0.017   1.377   0.010  0.00  0.00    +0.003 A 
ATOM     15  C   UNL     1       1.171   2.086   0.002  0.00  0.00    +0.004 A 
ATOM     16  C   UNL     1       2.378   1.413  -0.013  0.00  0.00    -0.043 A 
ATOM     17  C   UNL     1       2.399   0.030  -0.021  0.00  0.00    +0.042 A 
ATOM     18  C   UNL     1       1.211  -0.679  -0.013  0.00  0.00    +0.124 A 
ATOM     19  C   UNL     1       0.002  -0.004   0.002  0.00  0.00    +0.038 A 
ATOM     20  F   UNL     1       1.230  -2.030  -0.022  0.00  0.00    -0.205 F 
ENDBRANCH  13  16
ENDBRANCH  12  13
ENDBRANCH   8  12
ENDBRANCH   1   9
BRANCH   5  21
ATOM     21  C   UNL     1       9.094   4.035   4.252  0.00  0.00    +0.215 C 
ATOM     22  O   UNL     1       9.672   3.445   3.364  0.00  0.00    -0.276 OA
ATOM     23  N   UNL     1       9.681   4.185   5.456  0.00  0.00    -0.315 N 
ATOM     24  H   UNL     1       9.219   4.658   6.166  0.00  0.00    +0.149 HD
BRANCH  23  25
ATOM     25  C   UNL     1      11.018   3.634   5.692  0.00  0.00    +0.109 C 
BRANCH  25  26
ATOM     26  C   UNL     1      11.450   3.940   7.127  0.00  0.00    +0.055 C 
BRANCH  26  27
ATOM     27  C   UNL     1      12.825   3.374   7.370  0.00  0.00    -0.027 A 
ATOM     28  C   UNL     1      12.966   2.122   7.939  0.00  0.00    +0.006 A 
ATOM     29  C   UNL     1      14.226   1.601   8.162  0.00  0.00    +0.020 A 
ATOM     30  C   UNL     1      15.349   2.333   7.815  0.00  0.00    +0.042 A 
ATOM     31  C   UNL     1      15.209   3.585   7.245  0.00  0.00    +0.040 A 
ATOM     32  C   UNL     1      13.946   4.104   7.018  0.00  0.00    +0.046 A 
ATOM     33 CL   UNL     1      13.769   5.673   6.297  0.00  0.00    -0.083 Cl
ATOM     34 CL   UNL     1      16.932   1.679   8.096  0.00  0.00    -0.083 Cl
ENDBRANCH  26  27
ENDBRANCH  25  26
ENDBRANCH  23  25
ENDBRANCH   5  21
TORSDOF 8
