REMARK  Name = ZINC39684162
REMARK  10 active torsions:
REMARK  status: ('A' for Active; 'I' for Inactive)
REMARK    1  A    between atoms: C_1  and  C_2
REMARK    2  A    between atoms: C_7  and  C_11
REMARK    3  A    between atoms: C_11  and  C_12
REMARK    4  A    between atoms: C_12  and  N_13
REMARK    5  A    between atoms: C_14  and  C_16
REMARK    6  A    between atoms: C_27  and  C_29
REMARK    7  A    between atoms: C_33  and  O_36
REMARK    8  A    between atoms: C_34  and  C_35
REMARK    9  A    between atoms: O_36  and  C_37
REMARK   10  A    between atoms: C_37  and  C_39
REMARK                            x       y       z     vdW  Elec       q    Type
REMARK                         _______ _______ _______ _____ _____    ______ ____
ROOT
ATOM      1  C   UNL     1      -8.427   1.085  -6.692  0.00  0.00    +0.100 C 
ATOM      2  C   UNL     1      -8.040   2.348  -7.494  0.00  0.00    +0.121 C 
ATOM      3  N   UNL     1      -7.523   1.830  -8.782  0.00  0.00    -0.296 N 
ATOM      4  C   UNL     1      -8.419   0.695  -9.110  0.00  0.00    +0.115 C 
ATOM      5  C   UNL     1      -8.679   0.004  -7.757  0.00  0.00    -0.004 C 
ATOM      6  C   UNL     1     -10.122  -0.486  -7.682  0.00  0.00    -0.010 C 
ATOM      7  C   UNL     1     -10.333  -1.601  -8.710  0.00  0.00    -0.082 C 
ATOM      8  N   UNL     1      -9.406  -2.705  -8.433  0.00  0.00    +0.379 N 
ATOM      9  C   UNL     1      -8.020  -2.249  -8.599  0.00  0.00    -0.082 C 
ATOM     10  C   UNL     1      -7.712  -1.161  -7.566  0.00  0.00    -0.010 C 
ATOM     11  C   UNL     1      -6.475   2.287  -9.496  0.00  0.00    +0.247 C 
ATOM     12  O   UNL     1      -6.230   1.813 -10.588  0.00  0.00    -0.270 OA
ATOM     13  H   UNL     1      -9.541  -3.027  -7.487  0.00  0.00    -0.086 HD
ATOM     14  H   UNL     1      -9.587  -3.463  -9.074  0.00  0.00    -0.086 HD
ENDROOT
BRANCH  11  15
ATOM     15  C   UNL     1      -5.623   3.365  -8.950  0.00  0.00    +0.043 A 
ATOM     16  C   UNL     1      -6.190   4.388  -8.188  0.00  0.00    +0.013 A 
ATOM     17  C   UNL     1      -5.393   5.393  -7.680  0.00  0.00    +0.004 A 
ATOM     18  C   UNL     1      -4.031   5.389  -7.923  0.00  0.00    +0.047 A 
ATOM     19  C   UNL     1      -3.458   4.376  -8.679  0.00  0.00    +0.135 A 
ATOM     20  C   UNL     1      -4.249   3.360  -9.189  0.00  0.00    +0.004 A 
ATOM     21  C   UNL     1      -3.628   2.256 -10.006  0.00  0.00    +0.048 C 
BRANCH  19  22
ATOM     22  O   UNL     1      -2.119   4.378  -8.914  0.00  0.00    -0.426 OA
BRANCH  22  23
ATOM     23  C   UNL     1      -1.679   4.950 -10.046  0.00  0.00    +0.309 C 
ATOM     24  O   UNL     1      -2.454   5.524 -10.774  0.00  0.00    -0.251 OA
ATOM     25  C   UNL     1      -0.218   4.876 -10.409  0.00  0.00    +0.136 C 
ENDBRANCH  22  23
ENDBRANCH  19  22
ENDBRANCH  11  15
BRANCH   1  27
ATOM     26  N   UNL     1      -7.560  -0.001  -4.646  0.00  0.00    -0.315 N 
ATOM     27  C   UNL     1      -7.298   0.673  -5.784  0.00  0.00    +0.218 C 
ATOM     28  O   UNL     1      -6.153   0.949  -6.075  0.00  0.00    -0.275 OA
ATOM     29  H   UNL     1      -8.475  -0.222  -4.413  0.00  0.00    +0.149 HD
BRANCH  26  30
ATOM     30  C   UNL     1      -6.462  -0.401  -3.763  0.00  0.00    +0.109 C 
BRANCH  30  31
ATOM     31  C   UNL     1      -7.027  -1.147  -2.552  0.00  0.00    +0.056 C 
BRANCH  31  38
ATOM     32  C   UNL     1      -2.425  -1.868   1.646  0.00  0.00    +0.046 C 
ATOM     33  C   UNL     1      -3.501  -1.024   1.012  0.00  0.00    -0.027 A 
ATOM     34  C   UNL     1      -3.721   0.263   1.454  0.00  0.00    +0.005 A 
ATOM     35  C   UNL     1      -4.708   1.050   0.879  0.00  0.00    +0.001 A 
ATOM     36  C   UNL     1      -5.480   0.562  -0.138  0.00  0.00    +0.010 A 
ATOM     37  C   UNL     1      -5.274  -0.738  -0.602  0.00  0.00    +0.003 A 
ATOM     38  C   UNL     1      -5.898  -1.558  -1.643  0.00  0.00    -0.021 A 
ATOM     39  C   UNL     1      -5.273  -2.746  -1.634  0.00  0.00    +0.087 A 
ATOM     40  N   UNL     1      -4.300  -2.754  -0.672  0.00  0.00    -0.360 N 
ATOM     41  C   UNL     1      -4.271  -1.538  -0.026  0.00  0.00    +0.050 A 
ATOM     42  H   UNL     1      -3.715  -3.503  -0.476  0.00  0.00    +0.165 HD
ENDBRANCH  31  38
ENDBRANCH  30  31
ENDBRANCH  26  30
ENDBRANCH   1  27
TORSDOF 7
