REMARK  Name = ZINC59248490
REMARK  5 active torsions:
REMARK  status: ('A' for Active; 'I' for Inactive)
REMARK    1  A    between atoms: C_4  and  C_7
REMARK    2  A    between atoms: C_7  and  C_9
REMARK    3  A    between atoms: C_7  and  O_22
REMARK    4  A    between atoms: C_9  and  N_11
REMARK    5  A    between atoms: O_22  and  C_23
REMARK                            x       y       z     vdW  Elec       q    Type
REMARK                         _______ _______ _______ _____ _____    ______ ____
ROOT
ATOM      1  C   UNL     1       3.968  -0.756  -0.101  0.00  0.00    +0.291 C 
ENDROOT
BRANCH   1   5
ATOM      2  C   UNL     1       0.800   2.045   0.502  0.00  0.00    +0.000 A 
ATOM      3  C   UNL     1       2.099   2.492   0.353  0.00  0.00    +0.000 A 
ATOM      4  C   UNL     1       3.124   1.586   0.158  0.00  0.00    +0.008 A 
ATOM      5  C   UNL     1       2.850   0.232   0.113  0.00  0.00    +0.002 A 
ATOM      6  C   UNL     1       1.551  -0.216   0.263  0.00  0.00    +0.008 A 
ATOM      7  C   UNL     1       0.526   0.691   0.457  0.00  0.00    +0.000 A 
ENDBRANCH   1   5
BRANCH   1   8
ATOM      8  C   UNL     1       4.067  -1.094  -1.566  0.00  0.00    +0.284 C 
ATOM      9  O   UNL     1       3.833  -2.224  -1.947  0.00  0.00    -0.269 OA
BRANCH   8  10
ATOM     10  N   UNL     1       4.410  -0.155  -2.442  0.00  0.00    -0.143 NA
ATOM     11  C   UNL     1       4.393  -0.423  -3.745  0.00  0.00    +0.199 A 
ATOM     12  N   UNL     1       3.920  -1.566  -4.308  0.00  0.00    -0.326 N 
ATOM     13  H   UNL     1       3.540  -2.319  -3.829  0.00  0.00    +0.169 HD
ATOM     14  C   UNL     1       4.074  -1.469  -5.687  0.00  0.00    +0.065 A 
ATOM     15  C   UNL     1       3.769  -2.325  -6.736  0.00  0.00    +0.028 A 
ATOM     16  C   UNL     1       4.044  -1.946  -8.035  0.00  0.00    +0.002 A 
ATOM     17  C   UNL     1       4.623  -0.715  -8.295  0.00  0.00    +0.002 A 
ATOM     18  C   UNL     1       4.930   0.143  -7.259  0.00  0.00    +0.028 A 
ATOM     19  C   UNL     1       4.657  -0.228  -5.950  0.00  0.00    +0.065 A 
ATOM     20  N   UNL     1       4.841   0.406  -4.725  0.00  0.00    -0.326 N 
ATOM     21  H   UNL     1       5.226   1.286  -4.593  0.00  0.00    +0.169 HD
ENDBRANCH   8  10
ENDBRANCH   1   8
BRANCH   1  22
ATOM     22  O   UNL     1       3.701  -1.946   0.645  0.00  0.00    -0.475 OA
BRANCH  22  23
ATOM     23  C   UNL     1       4.074  -1.952   1.952  0.00  0.00    +0.122 A 
ATOM     24  C   UNL     1       3.945  -3.110   2.705  0.00  0.00    +0.046 A 
ATOM     25  C   UNL     1       4.325  -3.114   4.033  0.00  0.00    +0.004 A 
ATOM     26  C   UNL     1       4.834  -1.965   4.611  0.00  0.00    +0.000 A 
ATOM     27  C   UNL     1       4.964  -0.810   3.862  0.00  0.00    +0.004 A 
ATOM     28  C   UNL     1       4.590  -0.803   2.532  0.00  0.00    +0.046 A 
ENDBRANCH  22  23
ENDBRANCH   1  22
TORSDOF 5
