REMARK  Name = ZINC38086457
REMARK  5 active torsions:
REMARK  status: ('A' for Active; 'I' for Inactive)
REMARK    1  A    between atoms: C_1  and  C_2
REMARK    2  A    between atoms: C_5  and  C_9
REMARK    3  A    between atoms: C_6  and  C_8
REMARK    4  A    between atoms: C_9  and  C_11
REMARK    5  A    between atoms: C_9  and  N_14
REMARK                            x       y       z     vdW  Elec       q    Type
REMARK                         _______ _______ _______ _____ _____    ______ ____
ROOT
ATOM      1  C   UNL     1       0.059  -4.275  -0.021  0.00  0.00    +0.078 C 
ENDROOT
BRANCH   1   6
ATOM      2  C   UNL     1      -0.018   1.503   0.010  0.00  0.00    +0.044 C 
ATOM      3  C   UNL     1       0.002  -0.004   0.002  0.00  0.00    -0.050 A 
ATOM      4  C   UNL     1       0.006  -0.689  -1.199  0.00  0.00    +0.003 A 
ATOM      5  C   UNL     1       0.025  -2.071  -1.207  0.00  0.00    +0.003 A 
ATOM      6  C   UNL     1       0.040  -2.768  -0.013  0.00  0.00    -0.047 A 
ATOM      7  C   UNL     1       0.037  -2.084   1.188  0.00  0.00    -0.048 A 
ATOM      8  C   UNL     1       0.023  -0.702   1.195  0.00  0.00    +0.007 A 
ATOM      9  C   UNL     1       0.054  -2.845   2.489  0.00  0.00    +0.044 C 
ENDBRANCH   1   6
BRANCH   1  10
ATOM     10  N   UNL     1       0.644  -4.750  -1.283  0.00  0.00    +0.391 N 
ATOM     11  C   UNL     1       0.571  -6.224  -1.313  0.00  0.00    -0.077 C 
ATOM     12  C   UNL     1       0.583  -6.670  -2.753  0.00  0.00    -0.019 C 
ATOM     13  C   UNL     1       2.003  -7.050  -3.214  0.00  0.00    -0.002 C 
ATOM     14  C   UNL     1       3.062  -6.069  -2.670  0.00  0.00    -0.002 C 
ATOM     15  C   UNL     1       2.602  -4.635  -2.731  0.00  0.00    -0.019 C 
ATOM     16  C   UNL     1       1.947  -4.259  -1.385  0.00  0.00    -0.077 C 
ATOM     17  H   UNL     1       0.099  -4.385  -2.049  0.00  0.00    -0.080 HD
ENDBRANCH   1  10
BRANCH   1  18
ATOM     18  C   UNL     1      -1.349  -4.797   0.107  0.00  0.00    +0.347 C 
ATOM     19  O   UNL     1      -2.016  -5.003  -0.892  0.00  0.00    -0.248 OA
ATOM     20  O   UNL     1      -1.820  -5.012   1.211  0.00  0.00    -0.248 OA
ENDBRANCH   1  18
TORSDOF 3
