REMARK  Name = ZINC57450394
REMARK  5 active torsions:
REMARK  status: ('A' for Active; 'I' for Inactive)
REMARK    1  A    between atoms: C_1  and  C_2
REMARK    2  A    between atoms: C_9  and  N_13
REMARK    3  A    between atoms: C_10  and  C_11
REMARK    4  A    between atoms: C_14  and  C_16
REMARK    5  A    between atoms: C_16  and  N_17
REMARK                            x       y       z     vdW  Elec       q    Type
REMARK                         _______ _______ _______ _____ _____    ______ ____
ROOT
ATOM      1  N   UNL     1       1.941  -5.828   1.697  0.00  0.00    -0.278 N 
ATOM      2  C   UNL     1       2.252  -6.088   2.983  0.00  0.00    +0.232 C 
ATOM      3  O   UNL     1       2.232  -5.196   3.804  0.00  0.00    -0.274 OA
ATOM      4  H   UNL     1       1.957  -6.541   1.040  0.00  0.00    +0.155 HD
ENDROOT
BRANCH   1  12
ATOM      5  C   UNL     1      -0.019   1.526   0.010  0.00  0.00    +0.008 C 
ATOM      6  C   UNL     1       0.002  -0.004   0.002  0.00  0.00    -0.009 C 
ATOM      7  C   UNL     1       0.724  -0.500  -1.254  0.00  0.00    +0.008 C 
ATOM      8  C   UNL     1       0.537  -2.012  -1.399  0.00  0.00    +0.037 C 
ATOM      9  C   UNL     1       0.935  -2.680  -0.092  0.00  0.00    -0.018 A 
ATOM     10  C   UNL     1       1.019  -1.977   1.059  0.00  0.00    -0.004 A 
ATOM     11  S   UNL     1       1.508  -3.165   2.275  0.00  0.00    -0.077 S 
ATOM     12  C   UNL     1       1.599  -4.539   1.313  0.00  0.00    +0.090 A 
ATOM     13  C   UNL     1       1.254  -4.090   0.049  0.00  0.00    +0.084 A 
ATOM     14  C   UNL     1       0.750  -0.515   1.242  0.00  0.00    +0.046 C 
BRANCH  13  15
ATOM     15  C   UNL     1       1.212  -4.980  -1.072  0.00  0.00    +0.102 C 
ATOM     16  N   UNL     1       1.180  -5.685  -1.962  0.00  0.00    -0.191 NA
ENDBRANCH  13  15
ENDBRANCH   1  12
BRANCH   2  17
ATOM     17  C   UNL     1       2.624  -7.488   3.399  0.00  0.00    +0.181 C 
BRANCH  17  18
ATOM     18  N   UNL     1       2.916  -7.509   4.839  0.00  0.00    -0.284 NA
ATOM     19  C   UNL     1       3.486  -8.804   5.243  0.00  0.00    +0.104 C 
ATOM     20  C   UNL     1       4.052  -8.672   6.658  0.00  0.00    +0.119 C 
ATOM     21  N   UNL     1       3.055  -8.075   7.542  0.00  0.00    -0.313 N 
ATOM     22  C   UNL     1       1.995  -7.398   7.089  0.00  0.00    +0.227 C 
ATOM     23  O   UNL     1       1.232  -6.907   7.894  0.00  0.00    -0.274 OA
ATOM     24  C   UNL     1       1.709  -7.219   5.625  0.00  0.00    +0.181 C 
ATOM     25  H   UNL     1       3.167  -8.174   8.500  0.00  0.00    +0.149 HD
ENDBRANCH  17  18
ENDBRANCH   2  17
TORSDOF 4
