REMARK  Name = ZINC09210892
REMARK  7 active torsions:
REMARK  status: ('A' for Active; 'I' for Inactive)
REMARK    1  A    between atoms: C_1  and  C_2
REMARK    2  A    between atoms: C_9  and  N_33
REMARK    3  A    between atoms: C_10  and  C_29
REMARK    4  A    between atoms: N_18  and  C_21
REMARK    5  A    between atoms: C_21  and  C_22
REMARK    6  A    between atoms: C_29  and  O_31
REMARK    7  A    between atoms: O_31  and  C_32
REMARK                            x       y       z     vdW  Elec       q    Type
REMARK                         _______ _______ _______ _____ _____    ______ ____
ROOT
ATOM      1  C   UNL     1       0.340   1.532  -0.061  0.00  0.00    +0.068 C 
ATOM      2  C   UNL     1       0.199   0.032  -0.037  0.00  0.00    +0.068 A 
ATOM      3  C   UNL     1       0.116  -0.797  -1.148  0.00  0.00    +0.061 A 
ATOM      4  C   UNL     1      -0.004  -2.087  -0.706  0.00  0.00    +0.223 A 
ATOM      5  N   UNL     1       0.005  -2.058   0.636  0.00  0.00    -0.246 N 
ATOM      6  H   UNL     1      -0.064  -2.826   1.224  0.00  0.00    +0.192 HD
ATOM      7  N   UNL     1       0.138  -0.719   1.037  0.00  0.00    -0.176 NA
ATOM      8  O   UNL     1      -0.107  -3.142  -1.551  0.00  0.00    -0.424 OA
ATOM      9  C   UNL     1      -0.359  -2.889  -2.850  0.00  0.00    +0.198 C 
ATOM     10  C   UNL     1      -0.262  -1.656  -3.409  0.00  0.00    +0.117 C 
ATOM     11  C   UNL     1       0.144  -0.449  -2.609  0.00  0.00    +0.142 C 
ATOM     12  C   UNL     1       1.491   0.050  -3.024  0.00  0.00    -0.002 A 
ATOM     13  C   UNL     1       2.733  -0.547  -3.007  0.00  0.00    +0.007 A 
ATOM     14  C   UNL     1       3.804   0.210  -3.470  0.00  0.00    +0.000 A 
ATOM     15  C   UNL     1       3.627   1.501  -3.925  0.00  0.00    +0.002 A 
ATOM     16  C   UNL     1       2.381   2.108  -3.946  0.00  0.00    +0.024 A 
ATOM     17  C   UNL     1       1.298   1.359  -3.485  0.00  0.00    +0.041 A 
ATOM     18  N   UNL     1      -0.038   1.708  -3.395  0.00  0.00    -0.265 N 
ATOM     19  C   UNL     1      -0.790   0.707  -2.892  0.00  0.00    +0.240 C 
ATOM     20  O   UNL     1      -1.988   0.729  -2.704  0.00  0.00    -0.274 OA
ENDROOT
BRANCH   9  21
ATOM     21  N   UNL     1      -0.734  -3.934  -3.652  0.00  0.00    -0.329 N 
ATOM     22  H   UNL     1      -0.731  -4.839  -3.302  0.00  0.00    +0.145 HD
ATOM     23  H   UNL     1      -1.001  -3.770  -4.569  0.00  0.00    +0.145 HD
ENDBRANCH   9  21
BRANCH  10  24
ATOM     24  C   UNL     1      -0.549  -1.503  -4.773  0.00  0.00    +0.341 C 
ATOM     25  O   UNL     1       0.359  -1.425  -5.581  0.00  0.00    -0.245 OA
BRANCH  24  26
ATOM     26  O   UNL     1      -1.832  -1.443  -5.191  0.00  0.00    -0.465 OA
ATOM     27  C   UNL     1      -2.050  -1.287  -6.594  0.00  0.00    +0.280 C 
ENDBRANCH  24  26
ENDBRANCH  10  24
BRANCH  18  28
ATOM     28  C   UNL     1      -0.572   3.011  -3.797  0.00  0.00    +0.148 C 
BRANCH  28  29
ATOM     29  C   UNL     1      -0.973   2.963  -5.249  0.00  0.00    -0.030 A 
ATOM     30  C   UNL     1      -0.056   3.289  -6.231  0.00  0.00    +0.008 A 
ATOM     31  C   UNL     1      -0.422   3.245  -7.562  0.00  0.00    +0.038 A 
ATOM     32  C   UNL     1      -1.709   2.874  -7.913  0.00  0.00    +0.123 A 
ATOM     33  C   UNL     1      -2.627   2.548  -6.930  0.00  0.00    +0.038 A 
ATOM     34  C   UNL     1      -2.257   2.588  -5.599  0.00  0.00    +0.008 A 
ATOM     35  F   UNL     1      -2.069   2.831  -9.215  0.00  0.00    -0.205 F 
ENDBRANCH  28  29
ENDBRANCH  18  28
TORSDOF 5
