REMARK  Name = ZINC33547978
REMARK  10 active torsions:
REMARK  status: ('A' for Active; 'I' for Inactive)
REMARK    1  A    between atoms: C_1  and  C_2
REMARK    2  A    between atoms: C_2  and  O_3
REMARK    3  A    between atoms: O_3  and  C_4
REMARK    4  A    between atoms: C_14  and  C_29
REMARK    5  A    between atoms: C_16  and  C_21
REMARK    6  A    between atoms: C_21  and  C_23
REMARK    7  A    between atoms: C_26  and  C_28
REMARK    8  A    between atoms: C_33  and  O_35
REMARK    9  A    between atoms: O_35  and  C_36
REMARK   10  A    between atoms: C_36  and  C_37
REMARK                            x       y       z     vdW  Elec       q    Type
REMARK                         _______ _______ _______ _____ _____    ______ ____
ROOT
ATOM      1  C   UNL     1      -7.399   6.730   0.772  0.00  0.00    +0.122 A 
ATOM      2  C   UNL     1      -6.049   7.029   0.616  0.00  0.00    +0.048 A 
ATOM      3  C   UNL     1      -5.115   6.051   0.473  0.00  0.00    +0.032 A 
ATOM      4  C   UNL     1      -5.484   4.686   0.479  0.00  0.00    +0.081 A 
ATOM      5  C   UNL     1      -6.862   4.412   0.639  0.00  0.00    +0.044 A 
ATOM      6  C   UNL     1      -7.802   5.402   0.782  0.00  0.00    +0.063 A 
ATOM      7  S   UNL     1      -6.903   2.637   0.584  0.00  0.00    -0.052 S 
ATOM      8  C   UNL     1      -5.148   2.377   0.370  0.00  0.00    +0.169 A 
ATOM      9  N   UNL     1      -4.684   3.605   0.349  0.00  0.00    -0.224 NA
ATOM     10  N   UNL     1      -4.454   1.185   0.251  0.00  0.00    -0.232 N 
ATOM     11  C   UNL     1      -3.005   1.043   0.070  0.00  0.00    +0.152 C 
ATOM     12  C   UNL     1      -2.734  -0.441  -0.007  0.00  0.00    +0.080 C 
ATOM     13  C   UNL     1      -3.931  -1.062   0.114  0.00  0.00    +0.250 C 
ATOM     14  C   UNL     1      -4.990  -0.048   0.279  0.00  0.00    +0.293 C 
ATOM     15  O   UNL     1      -6.173  -0.292   0.416  0.00  0.00    -0.266 OA
ATOM     16  O   UNL     1      -4.124  -2.402   0.091  0.00  0.00    -0.282 OA
ENDROOT
BRANCH  11  17
ATOM     17  C   UNL     1      -2.572   1.716  -1.207  0.00  0.00    -0.019 A 
ATOM     18  C   UNL     1      -3.337   1.583  -2.352  0.00  0.00    +0.006 A 
ATOM     19  C   UNL     1      -2.945   2.203  -3.523  0.00  0.00    +0.004 A 
ATOM     20  C   UNL     1      -1.783   2.949  -3.556  0.00  0.00    +0.045 A 
ATOM     21  C   UNL     1      -1.011   3.080  -2.411  0.00  0.00    +0.121 A 
ATOM     22  C   UNL     1      -1.409   2.461  -1.235  0.00  0.00    +0.051 A 
BRANCH  21  23
ATOM     23  O   UNL     1       0.133   3.813  -2.441  0.00  0.00    -0.488 OA
BRANCH  23  24
ATOM     24  C   UNL     1       0.481   4.422  -3.686  0.00  0.00    +0.256 C 
BRANCH  24  25
ATOM     25  C   UNL     1       1.770   5.187  -3.528  0.00  0.00    +0.006 C 
ATOM     26  C   UNL     1       2.709   5.083  -4.436  0.00  0.00    +0.007 C 
ENDBRANCH  24  25
ENDBRANCH  23  24
ENDBRANCH  21  23
ENDBRANCH  11  17
BRANCH  12  27
ATOM     27  C   UNL     1      -1.428  -1.085  -0.185  0.00  0.00    +0.230 C 
ATOM     28  O   UNL     1      -1.183  -1.693  -1.212  0.00  0.00    -0.283 OA
BRANCH  27  29
ATOM     29  C   UNL     1      -0.417  -0.996   0.873  0.00  0.00    +0.175 A 
ATOM     30  C   UNL     1       0.807  -1.630   0.881  0.00  0.00    +0.053 A 
ATOM     31  C   UNL     1       1.439  -1.262   2.077  0.00  0.00    +0.045 A 
ATOM     32  C   UNL     1       0.595  -0.437   2.738  0.00  0.00    +0.103 A 
ATOM     33  O   UNL     1      -0.519  -0.280   2.011  0.00  0.00    -0.457 OA
ATOM     34  C   UNL     1       0.865   0.203   4.075  0.00  0.00    +0.086 C 
ENDBRANCH  27  29
ENDBRANCH  12  27
BRANCH   1  35
ATOM     35  O   UNL     1      -8.313   7.727   0.912  0.00  0.00    -0.492 OA
BRANCH  35  37
ATOM     36  C   UNL     1      -8.985  10.043   1.060  0.00  0.00    +0.048 C 
ATOM     37  C   UNL     1      -7.819   9.067   0.890  0.00  0.00    +0.225 C 
ENDBRANCH  35  37
ENDBRANCH   1  35
TORSDOF 8
