REMARK  Name = ZINC63974564
REMARK  9 active torsions:
REMARK  status: ('A' for Active; 'I' for Inactive)
REMARK    1  A    between atoms: C_1  and  O_2
REMARK    2  A    between atoms: O_2  and  C_3
REMARK    3  A    between atoms: C_6  and  C_9
REMARK    4  A    between atoms: C_9  and  C_11
REMARK    5  A    between atoms: C_9  and  C_27
REMARK    6  A    between atoms: C_11  and  N_12
REMARK    7  A    between atoms: N_12  and  S_13
REMARK    8  A    between atoms: S_13  and  C_16
REMARK    9  A    between atoms: C_20  and  N_22
REMARK                            x       y       z     vdW  Elec       q    Type
REMARK                         _______ _______ _______ _____ _____    ______ ____
ROOT
ATOM      1  C   UNL     1      -4.981  -2.629   0.035  0.00  0.00    +0.063 C 
ENDROOT
BRANCH   1   2
ATOM      2  C   UNL     1      -5.103  -3.490  -1.196  0.00  0.00    -0.033 C 
ATOM      3  C   UNL     1      -6.039  -3.392  -2.167  0.00  0.00    -0.000 A 
ATOM      4  C   UNL     1      -7.180  -2.489  -2.362  0.00  0.00    +0.010 A 
ATOM      5  C   UNL     1      -7.956  -2.639  -3.459  0.00  0.00    +0.001 A 
ATOM      6  C   UNL     1      -7.699  -3.633  -4.413  0.00  0.00    +0.002 A 
ATOM      7  C   UNL     1      -6.670  -4.500  -4.304  0.00  0.00    +0.026 A 
ATOM      8  C   UNL     1      -5.789  -4.433  -3.190  0.00  0.00    +0.043 A 
ATOM      9  N   UNL     1      -4.739  -5.147  -2.862  0.00  0.00    -0.380 N 
ATOM     10  C   UNL     1      -4.201  -4.636  -1.597  0.00  0.00    +0.145 C 
ATOM     11  H   UNL     1      -4.377  -5.888  -3.374  0.00  0.00    +0.160 HD
ENDBRANCH   1   2
BRANCH   1  15
ATOM     12  C   UNL     1      -1.200  -0.637   0.010  0.00  0.00    +0.120 A 
ATOM     13  C   UNL     1      -2.375   0.101   0.019  0.00  0.00    +0.046 A 
ATOM     14  C   UNL     1      -3.596  -0.545   0.027  0.00  0.00    +0.008 A 
ATOM     15  C   UNL     1      -3.648  -1.927   0.026  0.00  0.00    -0.039 A 
ATOM     16  C   UNL     1      -2.479  -2.665   0.017  0.00  0.00    +0.008 A 
ATOM     17  C   UNL     1      -1.255  -2.024   0.003  0.00  0.00    +0.046 A 
BRANCH  12  19
ATOM     18  C   UNL     1      -0.017   1.425   0.010  0.00  0.00    +0.277 C 
ATOM     19  O   UNL     1       0.002  -0.004   0.002  0.00  0.00    -0.495 OA
ENDBRANCH  12  19
ENDBRANCH   1  15
BRANCH   1  20
ATOM     20  C   UNL     1      -5.087  -3.506   1.284  0.00  0.00    +0.118 C 
BRANCH  20  21
ATOM     21  N   UNL     1      -6.427  -4.096   1.355  0.00  0.00    -0.189 NA
ATOM     22  H   UNL     1      -7.142  -3.741   0.804  0.00  0.00    +0.148 HD
BRANCH  21  23
ATOM     23  S   UNL     1      -6.719  -5.366   2.375  0.00  0.00    +0.058 S 
ATOM     24  O   UNL     1      -8.096  -5.690   2.237  0.00  0.00    -0.153 OA
ATOM     25  O   UNL     1      -5.687  -6.316   2.147  0.00  0.00    -0.153 OA
BRANCH  23  26
ATOM     26  C   UNL     1      -6.504  -4.774   4.021  0.00  0.00    +0.107 A 
ATOM     27  C   UNL     1      -5.260  -4.838   4.621  0.00  0.00    +0.028 A 
ATOM     28  C   UNL     1      -5.087  -4.374   5.912  0.00  0.00    +0.004 A 
ATOM     29  C   UNL     1      -6.158  -3.845   6.606  0.00  0.00    +0.028 A 
ATOM     30  C   UNL     1      -7.408  -3.779   6.006  0.00  0.00    +0.071 A 
ATOM     31  C   UNL     1      -7.577  -4.241   4.708  0.00  0.00    +0.056 A 
BRANCH  30  32
ATOM     32  N   UNL     1      -8.497  -3.243   6.709  0.00  0.00    -0.200 N 
ATOM     33  C   UNL     1      -8.480  -2.660   7.927  0.00  0.00    +0.250 A 
ATOM     34  N   UNL     1      -9.707  -2.303   8.204  0.00  0.00    -0.116 NA
ATOM     35  N   UNL     1     -10.498  -2.620   7.243  0.00  0.00    -0.023 NA
ATOM     36  N   UNL     1      -9.839  -3.190   6.293  0.00  0.00    -0.039 NA
ENDBRANCH  30  32
ENDBRANCH  23  26
ENDBRANCH  21  23
ENDBRANCH  20  21
ENDBRANCH   1  20
TORSDOF 8
