REMARK  Name = ZINC20627891
REMARK  3 active torsions:
REMARK  status: ('A' for Active; 'I' for Inactive)
REMARK    1  A    between atoms: C_6  and  N_7
REMARK    2  A    between atoms: N_7  and  S_8
REMARK    3  A    between atoms: S_8  and  C_11
REMARK                            x       y       z     vdW  Elec       q    Type
REMARK                         _______ _______ _______ _____ _____    ______ ____
ROOT
ATOM      1  N   UNL     1      -1.172   2.031   0.086  0.00  0.00    -0.216 N 
ATOM      2  H   UNL     1      -1.273   2.863  -0.626  0.00  0.00    +0.174 HD
ENDROOT
BRANCH   1   8
ATOM      3  C   UNL     1       0.157   0.027   0.295  0.00  0.00    +0.025 A 
ATOM      4  C   UNL     1       1.384  -0.579   0.468  0.00  0.00    +0.006 A 
ATOM      5  C   UNL     1       2.528   0.189   0.614  0.00  0.00    -0.044 A 
ATOM      6  C   UNL     1       2.442   1.569   0.587  0.00  0.00    -0.042 A 
ATOM      7  C   UNL     1       1.214   2.181   0.413  0.00  0.00    +0.028 A 
ATOM      8  C   UNL     1       0.067   1.413   0.267  0.00  0.00    +0.048 A 
ATOM      9  C   UNL     1       3.820   2.171   0.766  0.00  0.00    +0.036 C 
ATOM     10  C   UNL     1       4.805   1.021   0.467  0.00  0.00    +0.009 C 
ATOM     11  C   UNL     1       3.970  -0.229   0.814  0.00  0.00    +0.036 C 
ENDBRANCH   1   8
BRANCH   1  12
ATOM     12  S   UNL     1      -2.490   1.512   0.944  0.00  0.00    +0.074 S 
ATOM     13  O   UNL     1      -2.071   1.385   2.296  0.00  0.00    -0.150 OA
ATOM     14  O   UNL     1      -3.578   2.340   0.558  0.00  0.00    -0.150 OA
BRANCH  12  15
ATOM     15  C   UNL     1      -2.871  -0.114   0.381  0.00  0.00    +0.135 A 
ATOM     16  C   UNL     1      -2.778  -1.194   1.239  0.00  0.00    +0.058 A 
ATOM     17  C   UNL     1      -3.083  -2.431   0.775  0.00  0.00    +0.081 A 
ATOM     18  S   UNL     1      -3.506  -2.093  -0.927  0.00  0.00    -0.063 S 
ATOM     19  C   UNL     1      -3.254  -0.326  -0.903  0.00  0.00    +0.106 A 
ATOM     20 CL   UNL     1      -3.450   0.824  -2.189  0.00  0.00    -0.074 Cl
ATOM     21 CL   UNL     1      -3.063  -3.950   1.614  0.00  0.00    -0.076 Cl
ENDBRANCH  12  15
ENDBRANCH   1  12
TORSDOF 3
