REMARK  Name = ZINC44714496
REMARK  10 active torsions:
REMARK  status: ('A' for Active; 'I' for Inactive)
REMARK    1  A    between atoms: C_1  and  C_2
REMARK    2  A    between atoms: C_3  and  C_14
REMARK    3  A    between atoms: C_6  and  C_12
REMARK    4  A    between atoms: C_14  and  C_15
REMARK    5  A    between atoms: C_15  and  N_16
REMARK    6  A    between atoms: C_17  and  C_19
REMARK    7  A    between atoms: C_30  and  C_32
REMARK    8  A    between atoms: C_32  and  C_34
REMARK    9  A    between atoms: C_32  and  O_35
REMARK   10  A    between atoms: O_35  and  C_36
REMARK                            x       y       z     vdW  Elec       q    Type
REMARK                         _______ _______ _______ _____ _____    ______ ____
ROOT
ATOM      1  C   UNL     1       2.530   1.063  -6.467  0.00  0.00    +0.100 C 
ATOM      2  C   UNL     1       1.999  -0.030  -7.421  0.00  0.00    +0.121 C 
ATOM      3  N   UNL     1       2.823   0.108  -8.645  0.00  0.00    -0.297 N 
ATOM      4  C   UNL     1       4.188   0.393  -8.140  0.00  0.00    +0.115 C 
ATOM      5  C   UNL     1       3.967   1.337  -6.941  0.00  0.00    -0.004 C 
ATOM      6  C   UNL     1       4.961   1.018  -5.829  0.00  0.00    -0.010 C 
ATOM      7  C   UNL     1       6.377   1.354  -6.304  0.00  0.00    -0.082 C 
ATOM      8  N   UNL     1       6.451   2.776  -6.661  0.00  0.00    +0.379 N 
ATOM      9  C   UNL     1       5.561   3.055  -7.794  0.00  0.00    -0.082 C 
ATOM     10  C   UNL     1       4.109   2.791  -7.381  0.00  0.00    -0.010 C 
ATOM     11  C   UNL     1       2.422   0.000  -9.927  0.00  0.00    +0.256 C 
ATOM     12  O   UNL     1       1.246  -0.142 -10.185  0.00  0.00    -0.272 OA
ATOM     13  H   UNL     1       6.172   3.335  -5.869  0.00  0.00    -0.086 HD
ATOM     14  H   UNL     1       7.400   3.009  -6.915  0.00  0.00    -0.086 HD
ENDROOT
BRANCH   1  16
ATOM     15  N   UNL     1       2.541   1.440  -4.022  0.00  0.00    -0.315 N 
ATOM     16  C   UNL     1       2.533   0.563  -5.045  0.00  0.00    +0.218 C 
ATOM     17  O   UNL     1       2.530  -0.629  -4.822  0.00  0.00    -0.275 OA
ATOM     18  H   UNL     1       2.544   2.393  -4.201  0.00  0.00    +0.149 HD
BRANCH  15  19
ATOM     19  C   UNL     1       2.544   0.954  -2.640  0.00  0.00    +0.109 C 
BRANCH  19  20
ATOM     20  C   UNL     1       2.552   2.145  -1.680  0.00  0.00    +0.056 C 
BRANCH  20  23
ATOM     21  C   UNL     1       5.064   1.528   0.036  0.00  0.00    +0.063 C 
ATOM     22  C   UNL     1       3.636   1.375   0.491  0.00  0.00    +0.017 A 
ATOM     23  C   UNL     1       2.555   1.644  -0.259  0.00  0.00    -0.018 A 
ATOM     24  C   UNL     1       1.380   1.359   0.569  0.00  0.00    +0.004 A 
ATOM     25  C   UNL     1       0.005   1.441   0.357  0.00  0.00    +0.029 A 
ATOM     26  C   UNL     1      -0.866   1.085   1.382  0.00  0.00    +0.052 A 
ATOM     27  C   UNL     1      -0.359   0.649   2.615  0.00  0.00    +0.021 A 
ATOM     28  C   UNL     1       0.985   0.569   2.824  0.00  0.00    +0.027 A 
ATOM     29  C   UNL     1       1.876   0.920   1.812  0.00  0.00    +0.047 A 
ATOM     30  N   UNL     1       3.248   0.937   1.728  0.00  0.00    -0.358 N 
ATOM     31  H   UNL     1       3.852   0.678   2.441  0.00  0.00    +0.166 HD
BRANCH  26  32
ATOM     32  C   UNL     1      -2.281   1.165   1.178  0.00  0.00    +0.099 C 
ATOM     33  N   UNL     1      -3.404   1.228   1.016  0.00  0.00    -0.191 NA
ENDBRANCH  26  32
ENDBRANCH  20  23
ENDBRANCH  19  20
ENDBRANCH  15  19
ENDBRANCH   1  16
BRANCH  11  34
ATOM     34  C   UNL     1       3.436   0.055 -11.040  0.00  0.00    +0.256 C 
ATOM     35  C   UNL     1       4.311  -1.199 -10.996  0.00  0.00    +0.062 C 
BRANCH  34  36
ATOM     36  O   UNL     1       2.760   0.120 -12.297  0.00  0.00    -0.480 OA
BRANCH  36  37
ATOM     37  C   UNL     1       3.437   0.682 -13.333  0.00  0.00    +0.122 A 
ATOM     38  C   UNL     1       2.799   0.891 -14.548  0.00  0.00    +0.045 A 
ATOM     39  C   UNL     1       3.489   1.463 -15.599  0.00  0.00    +0.004 A 
ATOM     40  C   UNL     1       4.814   1.827 -15.442  0.00  0.00    +0.000 A 
ATOM     41  C   UNL     1       5.452   1.619 -14.233  0.00  0.00    +0.004 A 
ATOM     42  C   UNL     1       4.764   1.053 -13.177  0.00  0.00    +0.045 A 
ENDBRANCH  36  37
ENDBRANCH  34  36
ENDBRANCH  11  34
TORSDOF 8
