REMARK  Name = ZINC11737039
REMARK  7 active torsions:
REMARK  status: ('A' for Active; 'I' for Inactive)
REMARK    1  A    between atoms: C_1  and  C_2
REMARK    2  A    between atoms: C_2  and  C_3
REMARK    3  A    between atoms: C_2  and  C_4
REMARK    4  A    between atoms: C_2  and  N_5
REMARK    5  A    between atoms: N_5  and  S_6
REMARK    6  A    between atoms: S_6  and  C_9
REMARK    7  A    between atoms: C_11  and  N_20
REMARK                            x       y       z     vdW  Elec       q    Type
REMARK                         _______ _______ _______ _____ _____    ______ ____
ROOT
ATOM      1  C   UNL     1       1.028   1.603  -0.210  0.00  0.00    +0.111 A 
ATOM      2  C   UNL     1       0.570   2.754  -0.827  0.00  0.00    +0.053 A 
ATOM      3  C   UNL     1      -0.779   3.072  -0.792  0.00  0.00    +0.054 A 
ATOM      4  C   UNL     1      -1.670   2.228  -0.134  0.00  0.00    +0.108 A 
ATOM      5  C   UNL     1      -1.206   1.068   0.480  0.00  0.00    +0.160 A 
ATOM      6  C   UNL     1       0.148   0.763   0.443  0.00  0.00    +0.077 A 
ATOM      7  O   UNL     1      -2.278   0.445   1.028  0.00  0.00    -0.407 OA
ATOM      8  C   UNL     1      -3.383   1.164   0.776  0.00  0.00    +0.419 A 
ATOM      9  O   UNL     1      -4.508   0.872   1.135  0.00  0.00    -0.223 OA
ATOM     10  N   UNL     1      -3.050   2.267   0.075  0.00  0.00    -0.287 N 
ATOM     11  H   UNL     1      -3.660   2.954  -0.236  0.00  0.00    +0.172 HD
ENDROOT
BRANCH   1  12
ATOM     12  S   UNL     1       2.744   1.206  -0.259  0.00  0.00    +0.059 S 
ATOM     13  O   UNL     1       3.449   2.433  -0.129  0.00  0.00    -0.153 OA
ATOM     14  O   UNL     1       2.935   0.118   0.635  0.00  0.00    -0.153 OA
BRANCH  12  15
ATOM     15  N   UNL     1       3.071   0.632  -1.778  0.00  0.00    -0.185 NA
ATOM     16  H   UNL     1       3.644   1.138  -2.375  0.00  0.00    +0.149 HD
BRANCH  15  18
ATOM     17  C   UNL     1       0.967  -0.566  -2.128  0.00  0.00    +0.029 C 
ATOM     18  C   UNL     1       2.493  -0.639  -2.221  0.00  0.00    +0.032 C 
ATOM     19  C   UNL     1       2.904  -0.909  -3.670  0.00  0.00    +0.029 C 
ATOM     20  C   UNL     1       3.004  -1.771  -1.327  0.00  0.00    +0.029 C 
ENDBRANCH  15  18
ENDBRANCH  12  15
ENDBRANCH   1  12
BRANCH   3  21
ATOM     21  N   UNL     1      -1.243   4.235  -1.415  0.00  0.00    -0.356 N 
ATOM     22  H   UNL     1      -0.621   4.821  -1.873  0.00  0.00    +0.142 HD
ATOM     23  H   UNL     1      -2.188   4.456  -1.389  0.00  0.00    +0.142 HD
ENDBRANCH   3  21
TORSDOF 4
