REMARK  Name = ZINC12316676
REMARK  7 active torsions:
REMARK  status: ('A' for Active; 'I' for Inactive)
REMARK    1  A    between atoms: C_1  and  C_2
REMARK    2  A    between atoms: C_2  and  C_3
REMARK    3  A    between atoms: C_2  and  C_4
REMARK    4  A    between atoms: C_4  and  C_6
REMARK    5  A    between atoms: C_4  and  N_9
REMARK    6  A    between atoms: C_10  and  C_12
REMARK    7  A    between atoms: C_18  and  C_20
REMARK                            x       y       z     vdW  Elec       q    Type
REMARK                         _______ _______ _______ _____ _____    ______ ____
ROOT
ATOM      1  C   UNL     1      -2.749  -0.174  -2.205  0.00  0.00    +0.117 A 
ATOM      2  C   UNL     1      -3.564  -1.254  -2.291  0.00  0.00    +0.080 A 
ATOM      3  S   UNL     1      -4.625  -0.809  -3.657  0.00  0.00    -0.057 S 
ATOM      4  C   UNL     1      -3.904   0.775  -4.020  0.00  0.00    +0.178 A 
ATOM      5  N   UNL     1      -2.905   0.884  -3.090  0.00  0.00    -0.289 N 
ATOM      6  C   UNL     1      -2.313   2.115  -3.339  0.00  0.00    +0.122 A 
ATOM      7  C   UNL     1      -2.965   2.680  -4.384  0.00  0.00    +0.090 A 
ATOM      8  N   UNL     1      -3.936   1.831  -4.778  0.00  0.00    -0.221 NA
ENDROOT
BRANCH   7   9
ATOM      9  C   UNL     1      -2.664   4.001  -4.989  0.00  0.00    +0.005 A 
ATOM     10  C   UNL     1      -3.417   4.465  -6.066  0.00  0.00    +0.010 A 
ATOM     11  C   UNL     1      -3.133   5.693  -6.627  0.00  0.00    +0.003 A 
ATOM     12  C   UNL     1      -2.103   6.466  -6.121  0.00  0.00    +0.038 A 
ATOM     13  C   UNL     1      -1.351   6.011  -5.050  0.00  0.00    +0.124 A 
ATOM     14  C   UNL     1      -1.631   4.784  -4.479  0.00  0.00    +0.048 A 
ATOM     15  F   UNL     1      -0.346   6.770  -4.561  0.00  0.00    -0.205 F 
ENDBRANCH   7   9
BRANCH   1  17
ATOM     16  N   UNL     1      -0.960   0.989  -1.030  0.00  0.00    -0.299 N 
ATOM     17  C   UNL     1      -1.701  -0.126  -1.184  0.00  0.00    +0.262 C 
ATOM     18  O   UNL     1      -1.499  -1.093  -0.473  0.00  0.00    -0.269 OA
ATOM     19  H   UNL     1      -1.070   1.733  -1.643  0.00  0.00    +0.150 HD
BRANCH  16  20
ATOM     20  C   UNL     1       0.013   1.078   0.062  0.00  0.00    +0.161 C 
BRANCH  20  21
ATOM     21  C   UNL     1      -0.682   1.541   1.317  0.00  0.00    +0.231 C 
ATOM     22  O   UNL     1      -1.780   2.051   1.249  0.00  0.00    -0.274 OA
ATOM     23  N   UNL     1      -0.083   1.388   2.514  0.00  0.00    -0.328 N 
ATOM     24  H   UNL     1       0.824   1.048   2.563  0.00  0.00    +0.145 HD
ATOM     25  H   UNL     1      -0.559   1.619   3.327  0.00  0.00    +0.145 HD
ENDBRANCH  20  21
BRANCH  20  27
ATOM     26  C   UNL     1       1.789   1.627  -1.607  0.00  0.00    +0.009 C 
ATOM     27  C   UNL     1       1.110   2.077  -0.312  0.00  0.00    +0.012 C 
ATOM     28  C   UNL     1       0.491   3.462  -0.515  0.00  0.00    +0.009 C 
ENDBRANCH  20  27
ENDBRANCH  16  20
ENDBRANCH   1  17
TORSDOF 5
