REMARK  Name = ZINC66827860
REMARK  9 active torsions:
REMARK  status: ('A' for Active; 'I' for Inactive)
REMARK    1  A    between atoms: C_1  and  C_2
REMARK    2  A    between atoms: C_2  and  C_4
REMARK    3  A    between atoms: C_2  and  N_21
REMARK    4  A    between atoms: N_6  and  C_7
REMARK    5  A    between atoms: C_7  and  C_8
REMARK    6  A    between atoms: C_8  and  C_10
REMARK    7  A    between atoms: C_8  and  C_18
REMARK    8  A    between atoms: C_10  and  C_11
REMARK    9  A    between atoms: C_22  and  C_24
REMARK                            x       y       z     vdW  Elec       q    Type
REMARK                         _______ _______ _______ _____ _____    ______ ____
ROOT
ATOM      1  C   UNL     1      -0.382   1.786  -1.748  0.00  0.00    +0.233 C 
ATOM      2  O   UNL     1       0.509   1.426  -1.008  0.00  0.00    -0.274 OA
ATOM      3  N   UNL     1      -0.473   1.277  -2.992  0.00  0.00    -0.313 N 
ATOM      4  H   UNL     1      -1.186   1.565  -3.584  0.00  0.00    +0.149 HD
ENDROOT
BRANCH   1   6
ATOM      5  C   UNL     1      -1.335   4.034  -2.182  0.00  0.00    +0.038 C 
ATOM      6  C   UNL     1      -1.389   2.803  -1.275  0.00  0.00    +0.156 C 
BRANCH   6   7
ATOM      7  N   UNL     1      -1.075   3.197   0.101  0.00  0.00    -0.304 N 
ATOM      8  C   UNL     1      -2.048   3.672   0.904  0.00  0.00    +0.217 C 
ATOM      9  O   UNL     1      -3.183   3.773   0.488  0.00  0.00    -0.275 OA
ATOM     10  H   UNL     1      -0.168   3.116   0.434  0.00  0.00    +0.149 HD
BRANCH   8  11
ATOM     11  C   UNL     1      -1.726   4.077   2.320  0.00  0.00    +0.079 C 
ATOM     12  C   UNL     1      -1.182   2.868   3.087  0.00  0.00    +0.041 C 
ATOM     13  C   UNL     1      -0.931   3.269   4.543  0.00  0.00    +0.160 C 
ATOM     14  O   UNL     1      -2.146   3.754   5.118  0.00  0.00    -0.380 OA
ATOM     15  C   UNL     1      -2.676   4.912   4.471  0.00  0.00    +0.160 C 
ATOM     16  C   UNL     1      -2.997   4.578   3.011  0.00  0.00    +0.041 C 
ENDBRANCH   8  11
ENDBRANCH   6   7
ENDBRANCH   1   6
BRANCH   3  17
ATOM     17  C   UNL     1       0.506   0.288  -3.452  0.00  0.00    +0.117 C 
BRANCH  17  18
ATOM     18  C   UNL     1       0.178  -0.123  -4.889  0.00  0.00    +0.096 C 
BRANCH  18  19
ATOM     19  C   UNL     1      -1.150  -0.834  -4.918  0.00  0.00    +0.215 C 
ATOM     20  O   UNL     1      -1.481  -1.540  -3.988  0.00  0.00    -0.276 OA
ATOM     21  N   UNL     1      -1.971  -0.685  -5.976  0.00  0.00    -0.329 N 
ATOM     22  H   UNL     1      -1.740  -0.066  -6.686  0.00  0.00    +0.145 HD
ATOM     23  H   UNL     1      -2.794  -1.197  -6.028  0.00  0.00    +0.145 HD
ENDBRANCH  18  19
BRANCH  18  24
ATOM     24  C   UNL     1       1.269  -1.060  -5.412  0.00  0.00    +0.049 C 
BRANCH  24  25
ATOM     25  C   UNL     1       2.570  -0.306  -5.519  0.00  0.00    -0.046 A 
ATOM     26  C   UNL     1       2.849   0.430  -6.655  0.00  0.00    +0.006 A 
ATOM     27  C   UNL     1       4.042   1.122  -6.754  0.00  0.00    +0.038 A 
ATOM     28  C   UNL     1       4.956   1.077  -5.715  0.00  0.00    +0.123 A 
ATOM     29  C   UNL     1       4.674   0.340  -4.578  0.00  0.00    +0.038 A 
ATOM     30  C   UNL     1       3.479  -0.347  -4.479  0.00  0.00    +0.006 A 
ATOM     31  F   UNL     1       6.122   1.753  -5.811  0.00  0.00    -0.205 F 
ENDBRANCH  24  25
ENDBRANCH  18  24
ENDBRANCH  17  18
ENDBRANCH   3  17
TORSDOF 8
