REMARK  Name = ZINC64951441
REMARK  12 active torsions:
REMARK  status: ('A' for Active; 'I' for Inactive)
REMARK    1  A    between atoms: C_1  and  C_2
REMARK    2  A    between atoms: C_2  and  O_3
REMARK    3  A    between atoms: O_3  and  C_4
REMARK    4  A    between atoms: C_4  and  C_6
REMARK    5  A    between atoms: C_7  and  C_34
REMARK    6  A    between atoms: C_9  and  C_33
REMARK    7  A    between atoms: C_10  and  S_12
REMARK    8  A    between atoms: S_12  and  N_15
REMARK    9  A    between atoms: C_18  and  C_21
REMARK   10  A    between atoms: N_23  and  C_24
REMARK   11  A    between atoms: C_24  and  C_25
REMARK   12  A    between atoms: C_25  and  N_26
REMARK                            x       y       z     vdW  Elec       q    Type
REMARK                         _______ _______ _______ _____ _____    ______ ____
ROOT
ATOM      1  N   UNL     1       1.781   0.110  -5.724  0.00  0.00    -0.180 NA
ATOM      2  C   UNL     1       2.690   1.264  -5.746  0.00  0.00    +0.110 C 
ATOM      3  C   UNL     1       2.228   2.235  -6.838  0.00  0.00    +0.030 C 
ATOM      4  C   UNL     1       2.129   1.488  -8.170  0.00  0.00    +0.077 C 
ATOM      5  C   UNL     1       1.094   0.366  -8.052  0.00  0.00    +0.030 C 
ATOM      6  C   UNL     1       1.547  -0.629  -6.973  0.00  0.00    +0.110 C 
ENDROOT
BRANCH   4   7
ATOM      7  C   UNL     1       1.708   2.447  -9.253  0.00  0.00    +0.216 C 
ATOM      8  O   UNL     1       1.507   3.613  -8.987  0.00  0.00    -0.276 OA
ATOM      9  N   UNL     1       1.554   2.009 -10.519  0.00  0.00    -0.317 N 
ATOM     10  H   UNL     1       1.714   1.077 -10.732  0.00  0.00    +0.149 HD
BRANCH   9  11
ATOM     11  C   UNL     1       1.145   2.942 -11.572  0.00  0.00    +0.085 C 
BRANCH  11  12
ATOM     12  C   UNL     1       1.045   2.195 -12.904  0.00  0.00    -0.060 C 
BRANCH  12  13
ATOM     13  N   UNL     1       0.510   3.098 -13.932  0.00  0.00    +0.381 N 
ATOM     14  C   UNL     1       0.196   2.307 -15.138  0.00  0.00    -0.079 C 
ATOM     15  C   UNL     1      -0.862   3.042 -15.923  0.00  0.00    -0.019 C 
ATOM     16  C   UNL     1      -0.239   3.903 -17.039  0.00  0.00    -0.002 C 
ATOM     17  C   UNL     1       1.044   4.614 -16.564  0.00  0.00    -0.002 C 
ATOM     18  C   UNL     1       0.913   5.162 -15.165  0.00  0.00    -0.019 C 
ATOM     19  C   UNL     1       1.439   4.114 -14.163  0.00  0.00    -0.079 C 
ATOM     20  H   UNL     1      -0.343   3.511 -13.587  0.00  0.00    -0.082 HD
ENDBRANCH  12  13
ENDBRANCH  11  12
ENDBRANCH   9  11
ENDBRANCH   4   7
BRANCH   1  21
ATOM     21  S   UNL     1       1.039  -0.353  -4.318  0.00  0.00    +0.044 S 
ATOM     22  O   UNL     1      -0.085  -1.116  -4.735  0.00  0.00    -0.157 OA
ATOM     23  O   UNL     1       0.866   0.852  -3.586  0.00  0.00    -0.157 OA
BRANCH  21  28
ATOM     24  C   UNL     1       2.687  -2.550  -4.401  0.00  0.00    +0.088 C 
ATOM     25  C   UNL     1       4.018  -2.361  -4.565  0.00  0.00    +0.050 C 
ATOM     26  N   UNL     1       4.461  -1.296  -3.886  0.00  0.00    -0.258 NA
ATOM     27  C   UNL     1       3.539  -0.676  -3.224  0.00  0.00    +0.046 C 
ATOM     28  C   UNL     1       2.245  -1.423  -3.486  0.00  0.00    +0.230 C 
ATOM     29  C   UNL     1       3.714   0.551  -2.367  0.00  0.00    +0.063 C 
ATOM     30  C   UNL     1       4.896  -3.247  -5.411  0.00  0.00    +0.066 C 
BRANCH  24  31
ATOM     31  C   UNL     1       1.883  -3.571  -4.966  0.00  0.00    +0.339 C 
ATOM     32  O   UNL     1       2.385  -4.412  -5.687  0.00  0.00    -0.245 OA
BRANCH  31  33
ATOM     33  O   UNL     1       0.560  -3.611  -4.703  0.00  0.00    -0.462 OA
BRANCH  33  35
ATOM     34  C   UNL     1      -1.659  -4.549  -4.896  0.00  0.00    +0.048 C 
ATOM     35  C   UNL     1      -0.190  -4.668  -5.306  0.00  0.00    +0.229 C 
ENDBRANCH  33  35
ENDBRANCH  31  33
ENDBRANCH  24  31
ENDBRANCH  21  28
ENDBRANCH   1  21
TORSDOF 9
