REMARK  Name = ZINC52712691
REMARK  5 active torsions:
REMARK  status: ('A' for Active; 'I' for Inactive)
REMARK    1  A    between atoms: C_1  and  C_2
REMARK    2  A    between atoms: C_2  and  C_3
REMARK    3  A    between atoms: C_2  and  N_4
REMARK    4  A    between atoms: N_4  and  C_5
REMARK    5  A    between atoms: C_16  and  C_19
REMARK                            x       y       z     vdW  Elec       q    Type
REMARK                         _______ _______ _______ _____ _____    ______ ____
ROOT
ATOM      1  C   UNL     1      -2.070  -0.646  -1.177  0.00  0.00    +0.071 A 
ATOM      2  C   UNL     1      -1.460  -0.303  -2.402  0.00  0.00    +0.158 A 
ATOM      3  N   UNL     1      -2.115  -0.429  -3.523  0.00  0.00    -0.168 NA
ATOM      4  N   UNL     1      -3.430  -0.906  -3.540  0.00  0.00    -0.177 N 
ATOM      5  C   UNL     1      -4.050  -1.245  -2.393  0.00  0.00    +0.293 A 
ATOM      6  O   UNL     1      -5.199  -1.660  -2.415  0.00  0.00    -0.264 OA
ATOM      7  C   UNL     1      -3.368  -1.125  -1.174  0.00  0.00    +0.129 A 
ATOM      8 CL   UNL     1      -4.142  -1.562   0.317  0.00  0.00    -0.076 Cl
ATOM      9  C   UNL     1      -4.105  -1.030  -4.755  0.00  0.00    +0.158 A 
ATOM     10  C   UNL     1      -3.463  -0.684  -5.938  0.00  0.00    +0.049 A 
ATOM     11  C   UNL     1      -4.144  -0.813  -7.137  0.00  0.00    +0.017 A 
ATOM     12  C   UNL     1      -5.449  -1.284  -7.109  0.00  0.00    +0.073 A 
ATOM     13  C   UNL     1      -6.025  -1.608  -5.896  0.00  0.00    +0.125 A 
ATOM     14  N   UNL     1      -5.349  -1.480  -4.771  0.00  0.00    -0.235 NA
ENDROOT
BRANCH  12  15
ATOM     15  C   UNL     1      -6.230  -1.440  -8.389  0.00  0.00    +0.419 C 
ATOM     16  F   UNL     1      -6.027  -2.724  -8.905  0.00  0.00    -0.166 F 
ATOM     17  F   UNL     1      -7.591  -1.250  -8.130  0.00  0.00    -0.166 F 
ATOM     18  F   UNL     1      -5.795  -0.489  -9.319  0.00  0.00    -0.166 F 
ENDBRANCH  12  15
BRANCH   1  19
ATOM     19  N   UNL     1      -1.372  -0.511   0.012  0.00  0.00    -0.339 N 
ATOM     20  H   UNL     1      -1.794  -0.752   0.852  0.00  0.00    +0.146 HD
BRANCH  19  22
ATOM     21  C   UNL     1      -0.019   1.526   0.010  0.00  0.00    +0.027 C 
ATOM     22  C   UNL     1       0.002  -0.004   0.002  0.00  0.00    +0.064 C 
ATOM     23  C   UNL     1       0.742  -0.511   1.242  0.00  0.00    +0.027 C 
ENDBRANCH  19  22
ENDBRANCH   1  19
TORSDOF 3
