REMARK  Name = ZINC09552934
REMARK  5 active torsions:
REMARK  status: ('A' for Active; 'I' for Inactive)
REMARK    1  A    between atoms: C_8  and  S_11
REMARK    2  A    between atoms: S_11  and  C_12
REMARK    3  A    between atoms: C_12  and  C_13
REMARK    4  A    between atoms: N_15  and  C_16
REMARK    5  A    between atoms: C_17  and  C_25
REMARK                            x       y       z     vdW  Elec       q    Type
REMARK                         _______ _______ _______ _____ _____    ______ ____
ROOT
ATOM      1  C   UNL     1       8.060  -0.992  -0.077  0.00  0.00    +0.228 C 
ATOM      2  O   UNL     1       8.791  -0.025  -0.078  0.00  0.00    -0.275 OA
ATOM      3  N   UNL     1       8.585  -2.234  -0.088  0.00  0.00    -0.279 N 
ATOM      4  H   UNL     1       8.000  -3.007  -0.088  0.00  0.00    +0.155 HD
ENDROOT
BRANCH   3   5
ATOM      5  C   UNL     1       9.961  -2.404  -0.101  0.00  0.00    +0.084 A 
ATOM      6  C   UNL     1      10.683  -3.589  -0.109  0.00  0.00    +0.068 A 
ATOM      7  C   UNL     1      12.133  -3.493  -0.126  0.00  0.00    -0.023 A 
ATOM      8  C   UNL     1      12.625  -2.235  -0.122  0.00  0.00    -0.004 A 
ATOM      9  S   UNL     1      11.197  -1.190  -0.105  0.00  0.00    -0.077 S 
ATOM     10  C   UNL     1      14.067  -1.830  -0.131  0.00  0.00    +0.043 C 
ATOM     11  C   UNL     1      14.916  -3.056   0.234  0.00  0.00    +0.005 C 
ATOM     12  C   UNL     1      14.448  -4.248  -0.606  0.00  0.00    +0.005 C 
ATOM     13  C   UNL     1      13.062  -4.700  -0.140  0.00  0.00    +0.037 C 
BRANCH   6  14
ATOM     14  C   UNL     1      10.008  -4.891  -0.104  0.00  0.00    +0.244 C 
ATOM     15  O   UNL     1       9.719  -5.431  -1.156  0.00  0.00    -0.270 OA
ATOM     16  N   UNL     1       9.707  -5.490   1.066  0.00  0.00    -0.325 N 
ATOM     17  H   UNL     1       9.938  -5.060   1.904  0.00  0.00    +0.145 HD
ATOM     18  H   UNL     1       9.261  -6.351   1.069  0.00  0.00    +0.145 HD
ENDBRANCH   6  14
ENDBRANCH   3   5
BRANCH   1  19
ATOM     19  C   UNL     1       6.564  -0.807  -0.063  0.00  0.00    +0.173 C 
BRANCH  19  20
ATOM     20  S   UNL     1       6.176   0.961  -0.049  0.00  0.00    -0.078 S 
BRANCH  20  28
ATOM     21  C   UNL     1       1.216  -0.669  -0.013  0.00  0.00    +0.053 A 
ATOM     22  C   UNL     1       0.002  -0.004   0.002  0.00  0.00    +0.061 A 
ATOM     23  C   UNL     1      -0.017   1.382   0.010  0.00  0.00    +0.133 A 
ATOM     24  N   UNL     1       1.100   2.082   0.003  0.00  0.00    -0.234 NA
ATOM     25  C   UNL     1       2.285   1.497  -0.012  0.00  0.00    +0.159 A 
ATOM     26  C   UNL     1       2.386   0.094  -0.020  0.00  0.00    +0.110 A 
ATOM     27  N   UNL     1       3.708  -0.216  -0.034  0.00  0.00    -0.220 NA
ATOM     28  C   UNL     1       4.415   0.887  -0.034  0.00  0.00    +0.169 A 
ATOM     29  N   UNL     1       3.584   1.972  -0.021  0.00  0.00    -0.318 N 
ATOM     30  H   UNL     1       3.863   2.932  -0.018  0.00  0.00    +0.169 HD
ATOM     31 CL   UNL     1      -1.486  -0.899   0.011  0.00  0.00    -0.082 Cl
ENDBRANCH  20  28
ENDBRANCH  19  20
ENDBRANCH   1  19
TORSDOF 5
