REMARK  Name = ZINC42448392
REMARK  10 active torsions:
REMARK  status: ('A' for Active; 'I' for Inactive)
REMARK    1  A    between atoms: C_1  and  C_2
REMARK    2  A    between atoms: C_2  and  N_3
REMARK    3  A    between atoms: N_3  and  C_4
REMARK    4  A    between atoms: N_3  and  S_10
REMARK    5  A    between atoms: C_4  and  C_5
REMARK    6  A    between atoms: C_5  and  C_7
REMARK    7  A    between atoms: C_5  and  C_8
REMARK    8  A    between atoms: S_10  and  C_13
REMARK    9  A    between atoms: C_14  and  N_21
REMARK   10  A    between atoms: N_21  and  N_22
REMARK                            x       y       z     vdW  Elec       q    Type
REMARK                         _______ _______ _______ _____ _____    ______ ____
ROOT
ATOM      1  C   UNL     1      -0.337   0.586  -3.526  0.00  0.00    +0.222 A 
ATOM      2  C   UNL     1      -1.322   1.503  -3.440  0.00  0.00    +0.179 A 
ATOM      3  N   UNL     1      -1.082   2.466  -4.347  0.00  0.00    -0.203 NA
ATOM      4  C   UNL     1       0.014   2.179  -4.990  0.00  0.00    +0.181 A 
ATOM      5  N   UNL     1       0.546   1.007  -4.524  0.00  0.00    -0.276 N 
ATOM      6  C   UNL     1       1.717   0.576  -5.108  0.00  0.00    +0.102 A 
ATOM      7  C   UNL     1       2.294   1.281  -6.080  0.00  0.00    +0.067 A 
ATOM      8  S   UNL     1       1.170   2.658  -6.254  0.00  0.00    -0.058 S 
ENDROOT
BRANCH   1   9
ATOM      9  S   UNL     1      -0.188  -0.875  -2.551  0.00  0.00    +0.080 S 
ATOM     10  O   UNL     1       0.610  -1.782  -3.300  0.00  0.00    -0.151 OA
ATOM     11  O   UNL     1      -1.496  -1.201  -2.104  0.00  0.00    -0.151 OA
BRANCH   9  12
ATOM     12  N   UNL     1       0.688  -0.476  -1.203  0.00  0.00    -0.174 NA
BRANCH  12  14
ATOM     13  C   UNL     1      -0.019   1.526   0.010  0.00  0.00    +0.022 C 
ATOM     14  C   UNL     1       0.002  -0.004   0.002  0.00  0.00    +0.106 C 
ENDBRANCH  12  14
BRANCH  12  15
ATOM     15  C   UNL     1       2.148  -0.597  -1.216  0.00  0.00    +0.127 C 
BRANCH  15  16
ATOM     16  C   UNL     1       2.553  -1.951  -0.632  0.00  0.00    +0.104 C 
ATOM     17  C   UNL     1       2.047  -3.071  -1.543  0.00  0.00    +0.024 C 
BRANCH  16  18
ATOM     18  C   UNL     1       4.020  -2.024  -0.533  0.00  0.00    +0.067 C 
ATOM     19  N   UNL     1       5.152  -2.080  -0.457  0.00  0.00    -0.196 NA
ENDBRANCH  16  18
ENDBRANCH  15  16
ENDBRANCH  12  15
ENDBRANCH   9  12
ENDBRANCH   1   9
BRANCH   2  20
ATOM     20  N   UNL     1      -2.411   1.460  -2.555  0.00  0.00    -0.265 N 
ATOM     21  H   UNL     1      -2.501   0.722  -1.933  0.00  0.00    +0.168 HD
BRANCH  20  22
ATOM     22  N   UNL     1      -3.343   2.459  -2.571  0.00  0.00    -0.255 NA
ATOM     23  H   UNL     1      -4.063   2.292  -1.883  0.00  0.00    +0.140 HD
ATOM     24  H   UNL     1      -2.911   3.360  -2.431  0.00  0.00    +0.140 HD
ENDBRANCH  20  22
ENDBRANCH   2  20
TORSDOF 8
