REMARK  Name = ZINC06846323
REMARK  6 active torsions:
REMARK  status: ('A' for Active; 'I' for Inactive)
REMARK    1  A    between atoms: C_1  and  C_2
REMARK    2  A    between atoms: C_2  and  C_3
REMARK    3  A    between atoms: C_19  and  C_22
REMARK    4  A    between atoms: N_24  and  C_25
REMARK    5  A    between atoms: C_25  and  C_26
REMARK    6  A    between atoms: C_29  and  C_32
REMARK                            x       y       z     vdW  Elec       q    Type
REMARK                         _______ _______ _______ _____ _____    ______ ____
ROOT
ATOM      1  C   UNL     1       4.537  -1.551   4.654  0.00  0.00    +0.191 C 
ATOM      2  C   UNL     1       4.920  -1.573   3.171  0.00  0.00    +0.159 C 
ATOM      3  N   UNL     1       6.007  -0.598   2.974  0.00  0.00    -0.248 N 
ATOM      4  C   UNL     1       7.022  -0.546   3.946  0.00  0.00    +0.080 A 
ATOM      5  C   UNL     1       8.198   0.138   3.686  0.00  0.00    +0.027 A 
ATOM      6  C   UNL     1       9.192   0.189   4.646  0.00  0.00    +0.002 A 
ATOM      7  C   UNL     1       9.012  -0.441   5.863  0.00  0.00    +0.004 A 
ATOM      8  C   UNL     1       7.840  -1.126   6.127  0.00  0.00    +0.047 A 
ATOM      9  C   UNL     1       6.839  -1.183   5.170  0.00  0.00    +0.142 A 
ATOM     10  O   UNL     1       5.692  -1.862   5.436  0.00  0.00    -0.485 OA
ATOM     11  C   UNL     1       6.026   0.218   1.902  0.00  0.00    +0.309 C 
ATOM     12  O   UNL     1       6.831   1.128   1.844  0.00  0.00    -0.252 OA
ATOM     13  N   UNL     1       5.151   0.028   0.894  0.00  0.00    -0.285 N 
ATOM     14  C   UNL     1       4.800   1.130  -0.011  0.00  0.00    +0.110 C 
ATOM     15  C   UNL     1       3.275   1.276  -0.042  0.00  0.00    +0.032 C 
ATOM     16  C   UNL     1       2.646  -0.068  -0.414  0.00  0.00    +0.078 C 
ATOM     17  C   UNL     1       3.010  -1.114   0.641  0.00  0.00    +0.032 C 
ATOM     18  C   UNL     1       4.532  -1.287   0.680  0.00  0.00    +0.110 C 
ENDROOT
BRANCH  16  19
ATOM     19  C   UNL     1       1.147   0.080  -0.479  0.00  0.00    +0.216 C 
ATOM     20  O   UNL     1       0.634   1.154  -0.249  0.00  0.00    -0.276 OA
ATOM     21  N   UNL     1       0.378  -0.982  -0.792  0.00  0.00    -0.311 N 
ATOM     22  H   UNL     1       0.789  -1.841  -0.975  0.00  0.00    +0.149 HD
BRANCH  21  23
ATOM     23  C   UNL     1      -1.078  -0.837  -0.860  0.00  0.00    +0.139 C 
BRANCH  23  24
ATOM     24  C   UNL     1      -1.698  -2.159  -1.233  0.00  0.00    -0.030 A 
ATOM     25  C   UNL     1      -1.904  -2.475  -2.562  0.00  0.00    +0.005 A 
ATOM     26  C   UNL     1      -2.468  -3.690  -2.904  0.00  0.00    +0.003 A 
ATOM     27  C   UNL     1      -2.835  -4.584  -1.916  0.00  0.00    -0.050 A 
ATOM     28  C   UNL     1      -2.634  -4.266  -0.586  0.00  0.00    +0.003 A 
ATOM     29  C   UNL     1      -2.065  -3.053  -0.244  0.00  0.00    +0.005 A 
ATOM     30  C   UNL     1      -3.455  -5.907  -2.288  0.00  0.00    +0.044 C 
ENDBRANCH  23  24
ENDBRANCH  21  23
ENDBRANCH  16  19
BRANCH   1  32
ATOM     31  C   UNL     1       2.985  -2.489   6.372  0.00  0.00    +0.007 C 
ATOM     32  C   UNL     1       3.444  -2.590   4.917  0.00  0.00    +0.043 C 
ENDBRANCH   1  32
TORSDOF 4
