REMARK  Name = ZINC49365281
REMARK  11 active torsions:
REMARK  status: ('A' for Active; 'I' for Inactive)
REMARK    1  A    between atoms: C_1  and  C_2
REMARK    2  A    between atoms: C_5  and  C_19
REMARK    3  A    between atoms: C_7  and  S_8
REMARK    4  A    between atoms: S_8  and  N_11
REMARK    5  A    between atoms: N_11  and  C_12
REMARK    6  A    between atoms: C_12  and  C_14
REMARK    7  A    between atoms: C_12  and  C_15
REMARK    8  A    between atoms: C_15  and  O_17
REMARK    9  A    between atoms: O_17  and  C_18
REMARK   10  A    between atoms: C_20  and  C_21
REMARK   11  A    between atoms: C_21  and  N_22
REMARK                            x       y       z     vdW  Elec       q    Type
REMARK                         _______ _______ _______ _____ _____    ______ ____
ROOT
ATOM      1  C   UNL     1       0.231   0.476   0.172  0.00  0.00    +0.046 C 
ATOM      2  C   UNL     1       0.426  -0.911   0.728  0.00  0.00    -0.024 A 
ATOM      3  C   UNL     1       0.553  -1.986  -0.134  0.00  0.00    +0.006 A 
ATOM      4  C   UNL     1       0.732  -3.259   0.367  0.00  0.00    +0.017 A 
ATOM      5  C   UNL     1       0.786  -3.460   1.747  0.00  0.00    +0.027 A 
ATOM      6  C   UNL     1       0.658  -2.372   2.611  0.00  0.00    +0.045 A 
ATOM      7  C   UNL     1       0.484  -1.103   2.096  0.00  0.00    +0.109 A 
ENDROOT
BRANCH   7   8
ATOM      8  S   UNL     1       0.330   0.274   3.185  0.00  0.00    +0.059 S 
ATOM      9  O   UNL     1       0.412  -0.242   4.506  0.00  0.00    -0.153 OA
ATOM     10  O   UNL     1       1.215   1.275   2.701  0.00  0.00    -0.153 OA
BRANCH   8  11
ATOM     11  N   UNL     1      -1.204   0.871   3.004  0.00  0.00    -0.176 NA
ATOM     12  H   UNL     1      -1.338   1.768   2.660  0.00  0.00    +0.149 HD
BRANCH  11  13
ATOM     13  C   UNL     1      -2.359   0.044   3.364  0.00  0.00    +0.182 C 
ATOM     14  C   UNL     1      -3.237  -0.170   2.130  0.00  0.00    +0.037 C 
BRANCH  13  15
ATOM     15  C   UNL     1      -3.159   0.738   4.436  0.00  0.00    +0.325 C 
ATOM     16  O   UNL     1      -2.801   1.812   4.857  0.00  0.00    -0.249 OA
BRANCH  15  17
ATOM     17  O   UNL     1      -4.269   0.162   4.924  0.00  0.00    -0.467 OA
ATOM     18  C   UNL     1      -4.978   0.876   5.939  0.00  0.00    +0.280 C 
ENDBRANCH  15  17
ENDBRANCH  13  15
ENDBRANCH  11  13
ENDBRANCH   8  11
ENDBRANCH   7   8
BRANCH   5  19
ATOM     19  C   UNL     1       0.972  -4.779   2.275  0.00  0.00    -0.068 C 
ATOM     20  C   UNL     1       1.124  -5.859   2.707  0.00  0.00    -0.117 C 
BRANCH  20  21
ATOM     21  C   UNL     1       1.315  -7.214   3.249  0.00  0.00    +0.005 C 
BRANCH  21  22
ATOM     22  N   UNL     1       1.336  -7.156   4.717  0.00  0.00    +0.385 N 
ATOM     23  H   UNL     1       2.095  -6.563   5.019  0.00  0.00    -0.089 HD
ATOM     24  H   UNL     1       0.462  -6.780   5.051  0.00  0.00    -0.089 HD
ATOM     25  H   UNL     1       1.467  -8.085   5.089  0.00  0.00    -0.089 HD
ENDBRANCH  21  22
ENDBRANCH  20  21
ENDBRANCH   5  19
TORSDOF 8
