REMARK  Name = ZINC66129279
REMARK  7 active torsions:
REMARK  status: ('A' for Active; 'I' for Inactive)
REMARK    1  A    between atoms: C_1  and  C_2
REMARK    2  A    between atoms: C_2  and  C_3
REMARK    3  A    between atoms: C_3  and  C_4
REMARK    4  A    between atoms: C_4  and  N_5
REMARK    5  A    between atoms: C_15  and  C_16
REMARK    6  A    between atoms: C_15  and  C_17
REMARK    7  A    between atoms: C_21  and  N_23
REMARK                            x       y       z     vdW  Elec       q    Type
REMARK                         _______ _______ _______ _____ _____    ______ ____
ROOT
ATOM      1  N   UNL     1       1.425  -2.500  -2.470  0.00  0.00    -0.273 N 
ATOM      2  C   UNL     1       0.713  -2.719  -3.594  0.00  0.00    +0.250 C 
ATOM      3  O   UNL     1      -0.502  -2.671  -3.570  0.00  0.00    -0.270 OA
ATOM      4  C   UNL     1       1.421  -3.016  -4.852  0.00  0.00    +0.058 A 
ATOM      5  C   UNL     1       0.738  -3.434  -5.993  0.00  0.00    +0.015 A 
ATOM      6  C   UNL     1       1.444  -3.709  -7.145  0.00  0.00    +0.001 A 
ATOM      7  C   UNL     1       2.824  -3.574  -7.175  0.00  0.00    +0.002 A 
ATOM      8  C   UNL     1       3.513  -3.158  -6.052  0.00  0.00    +0.024 A 
ATOM      9  C   UNL     1       2.818  -2.873  -4.889  0.00  0.00    +0.041 A 
ATOM     10  N   UNL     1       3.465  -2.427  -3.741  0.00  0.00    -0.319 N 
ATOM     11  C   UNL     1       2.871  -2.720  -2.435  0.00  0.00    +0.125 C 
ATOM     12  C   UNL     1       3.496  -1.808  -1.377  0.00  0.00    +0.059 C 
ATOM     13  H   UNL     1       4.295  -1.929  -3.804  0.00  0.00    +0.148 HD
ENDROOT
BRANCH  11  14
ATOM     14  C   UNL     1       3.148  -4.157  -2.077  0.00  0.00    -0.004 A 
ATOM     15  C   UNL     1       2.261  -4.854  -1.277  0.00  0.00    +0.007 A 
ATOM     16  C   UNL     1       2.515  -6.172  -0.949  0.00  0.00    +0.003 A 
ATOM     17  C   UNL     1       3.656  -6.794  -1.420  0.00  0.00    +0.033 A 
ATOM     18  C   UNL     1       4.542  -6.098  -2.221  0.00  0.00    +0.127 A 
ATOM     19  C   UNL     1       4.286  -4.781  -2.553  0.00  0.00    +0.040 A 
BRANCH  18  20
ATOM     20  N   UNL     1       5.764  -6.765  -2.725  0.00  0.00    +0.056 N 
ATOM     21  O   UNL     1       5.987  -7.917  -2.438  0.00  0.00    -0.126 OA
ATOM     22  O   UNL     1       6.539  -6.156  -3.426  0.00  0.00    -0.126 OA
ENDBRANCH  18  20
ENDBRANCH  11  14
BRANCH   1  23
ATOM     23  C   UNL     1       0.739  -2.027  -1.265  0.00  0.00    +0.110 C 
BRANCH  23  24
ATOM     24  C   UNL     1       0.718  -0.497  -1.257  0.00  0.00    +0.019 C 
BRANCH  24  26
ATOM     25  C   UNL     1      -0.019   1.526   0.010  0.00  0.00    +0.004 C 
ATOM     26  C   UNL     1       0.002  -0.004   0.002  0.00  0.00    -0.002 C 
ENDBRANCH  24  26
ENDBRANCH  23  24
ENDBRANCH   1  23
TORSDOF 5
