REMARK  Name = ZINC34682153
REMARK  5 active torsions:
REMARK  status: ('A' for Active; 'I' for Inactive)
REMARK    1  A    between atoms: C_3  and  C_6
REMARK    2  A    between atoms: C_6  and  N_7
REMARK    3  A    between atoms: C_16  and  N_19
REMARK    4  A    between atoms: N_19  and  S_20
REMARK    5  A    between atoms: S_20  and  C_23
REMARK                            x       y       z     vdW  Elec       q    Type
REMARK                         _______ _______ _______ _____ _____    ______ ____
ROOT
ATOM      1  N   UNL     1       4.000   1.226   2.317  0.00  0.00    +0.386 N 
ATOM      2  C   UNL     1       4.153  -0.204   2.019  0.00  0.00    -0.059 C 
ATOM      3  C   UNL     1       4.153  -1.000   3.328  0.00  0.00    +0.088 C 
ATOM      4  N   UNL     1       5.194  -0.450   4.209  0.00  0.00    -0.319 N 
ATOM      5  C   UNL     1       5.215   1.004   4.433  0.00  0.00    +0.088 C 
ATOM      6  C   UNL     1       5.165   1.706   3.071  0.00  0.00    -0.059 C 
ATOM      7  C   UNL     1       6.135  -1.281   4.813  0.00  0.00    +0.121 A 
ATOM      8  C   UNL     1       5.963  -2.660   4.769  0.00  0.00    +0.045 A 
ATOM      9  C   UNL     1       6.902  -3.477   5.372  0.00  0.00    +0.029 A 
ATOM     10  C   UNL     1       7.991  -2.880   6.005  0.00  0.00    +0.066 A 
ATOM     11  C   UNL     1       8.097  -1.498   6.009  0.00  0.00    +0.137 A 
ATOM     12  N   UNL     1       7.184  -0.749   5.419  0.00  0.00    -0.238 NA
ATOM     13  H   UNL     1       3.165   1.365   2.865  0.00  0.00    -0.081 HD
ENDROOT
BRANCH  10  14
ATOM     14  N   UNL     1       8.967  -3.668   6.629  0.00  0.00    -0.215 N 
ATOM     15  H   UNL     1       8.776  -4.091   7.480  0.00  0.00    +0.174 HD
BRANCH  14  16
ATOM     16  S   UNL     1      10.445  -3.877   5.913  0.00  0.00    +0.072 S 
ATOM     17  O   UNL     1      10.900  -2.584   5.535  0.00  0.00    -0.150 OA
ATOM     18  O   UNL     1      11.195  -4.727   6.769  0.00  0.00    -0.150 OA
BRANCH  16  19
ATOM     19  C   UNL     1      10.179  -4.773   4.420  0.00  0.00    +0.109 A 
ATOM     20  C   UNL     1      10.168  -6.155   4.436  0.00  0.00    +0.031 A 
ATOM     21  C   UNL     1       9.959  -6.859   3.266  0.00  0.00    +0.040 A 
ATOM     22  C   UNL     1       9.761  -6.180   2.076  0.00  0.00    +0.124 A 
ATOM     23  C   UNL     1       9.772  -4.795   2.060  0.00  0.00    +0.040 A 
ATOM     24  C   UNL     1       9.976  -4.093   3.233  0.00  0.00    +0.031 A 
ATOM     25  F   UNL     1       9.557  -6.867   0.931  0.00  0.00    -0.205 F 
ENDBRANCH  16  19
ENDBRANCH  14  16
ENDBRANCH  10  14
BRANCH   1  26
ATOM     26  C   UNL     1       3.890   1.977   1.059  0.00  0.00    -0.003 C 
BRANCH  26  29
ATOM     27  C   UNL     1       0.533   1.458  -0.371  0.00  0.00    +0.041 A 
ATOM     28  C   UNL     1       1.422   2.148   0.485  0.00  0.00    +0.042 A 
ATOM     29  C   UNL     1       2.629   1.572   0.341  0.00  0.00    +0.089 A 
ATOM     30  O   UNL     1       2.519   0.575  -0.551  0.00  0.00    -0.470 OA
ATOM     31  C   UNL     1       1.250   0.501  -0.987  0.00  0.00    +0.195 A 
ENDBRANCH  26  29
ENDBRANCH   1  26
TORSDOF 5
