REMARK  Name = ZINC27990641
REMARK  8 active torsions:
REMARK  status: ('A' for Active; 'I' for Inactive)
REMARK    1  A    between atoms: C_1  and  C_2
REMARK    2  A    between atoms: C_6  and  C_24
REMARK    3  A    between atoms: C_11  and  C_21
REMARK    4  A    between atoms: C_12  and  C_13
REMARK    5  A    between atoms: C_16  and  C_19
REMARK    6  A    between atoms: C_19  and  N_20
REMARK    7  A    between atoms: C_24  and  C_26
REMARK    8  A    between atoms: C_24  and  O_27
REMARK                            x       y       z     vdW  Elec       q    Type
REMARK                         _______ _______ _______ _____ _____    ______ ____
ROOT
ATOM      1  C   UNL     1       2.034   2.144   1.266  0.00  0.00    +0.014 C 
ATOM      2  C   UNL     1       1.199   2.364   0.003  0.00  0.00    +0.040 C 
ATOM      3  C   UNL     1       0.884   3.858  -0.182  0.00  0.00    +0.103 C 
ATOM      4  C   UNL     1       1.073   4.705   1.074  0.00  0.00    +0.125 C 
ATOM      5  C   UNL     1      -0.450   4.750   1.009  0.00  0.00    +0.228 C 
ATOM      6  O   UNL     1      -1.273   5.321   1.693  0.00  0.00    -0.275 OA
ATOM      7  N   UNL     1      -0.577   3.947  -0.067  0.00  0.00    -0.260 N 
ATOM      8  C   UNL     1      -1.105   2.666   0.082  0.00  0.00    +0.130 C 
ATOM      9  C   UNL     1      -0.158   1.712   0.145  0.00  0.00    -0.006 C 
ENDROOT
BRANCH   9  10
ATOM     10  C   UNL     1      -0.402   0.271   0.317  0.00  0.00    -0.001 A 
ATOM     11  C   UNL     1      -0.962  -0.222   1.505  0.00  0.00    +0.011 A 
ATOM     12  C   UNL     1      -1.174  -1.583   1.613  0.00  0.00    +0.022 A 
ATOM     13  C   UNL     1      -0.822  -2.411   0.561  0.00  0.00    +0.024 A 
ATOM     14  N   UNL     1      -0.293  -1.921  -0.544  0.00  0.00    -0.261 NA
ATOM     15  C   UNL     1      -0.074  -0.632  -0.699  0.00  0.00    +0.119 A 
BRANCH  13  16
ATOM     16  C   UNL     1      -1.048  -3.896   0.679  0.00  0.00    -0.030 C 
BRANCH  16  17
ATOM     17  N   UNL     1      -2.337  -4.246   0.068  0.00  0.00    +0.382 N 
ATOM     18  H   UNL     1      -2.501  -5.330   0.154  0.00  0.00    -0.090 HD
ATOM     19  H   UNL     1      -2.329  -3.959  -0.994  0.00  0.00    -0.090 HD
ATOM     20  H   UNL     1      -3.146  -3.710   0.586  0.00  0.00    -0.090 HD
ENDBRANCH  16  17
ENDBRANCH  13  16
ENDBRANCH   9  10
BRANCH   8  21
ATOM     21  C   UNL     1      -2.545   2.386   0.166  0.00  0.00    +0.401 C 
ATOM     22  O   UNL     1      -3.346   3.299   0.102  0.00  0.00    -0.239 OA
ATOM     23  O   UNL     1      -2.978   1.118   0.315  0.00  0.00    -0.239 OA
ENDBRANCH   8  21
BRANCH   4  24
ATOM     24  C   UNL     1       1.758   6.051   0.831  0.00  0.00    +0.125 C 
ATOM     25  C   UNL     1       1.890   6.803   2.157  0.00  0.00    +0.038 C 
BRANCH  24  26
ATOM     26  O   UNL     1       3.057   5.831   0.277  0.00  0.00    -0.391 OA
ATOM     27  H   UNL     1       3.703   6.688   0.034  0.00  0.00    +0.210 HD
ENDBRANCH  24  26
ENDBRANCH   4  24
TORSDOF 6
