REMARK  Name = ZINC35355951
REMARK  4 active torsions:
REMARK  status: ('A' for Active; 'I' for Inactive)
REMARK    1  A    between atoms: C_4  and  N_9
REMARK    2  A    between atoms: C_5  and  C_7
REMARK    3  A    between atoms: N_9  and  C_10
REMARK    4  A    between atoms: C_15  and  N_16
REMARK                            x       y       z     vdW  Elec       q    Type
REMARK                         _______ _______ _______ _____ _____    ______ ____
ROOT
ATOM      1  C   UNL     1       4.807   0.152  -0.136  0.00  0.00    +0.054 A 
ATOM      2  C   UNL     1       4.725   1.536  -0.115  0.00  0.00    +0.048 A 
ATOM      3  C   UNL     1       5.880   2.300  -0.214  0.00  0.00    +0.038 A 
ATOM      4  C   UNL     1       7.116   1.678  -0.334  0.00  0.00    -0.024 A 
ATOM      5  C   UNL     1       7.200   0.299  -0.357  0.00  0.00    +0.030 A 
ATOM      6  C   UNL     1       6.050  -0.469  -0.252  0.00  0.00    +0.046 A 
ATOM      7  C   UNL     1       8.367   2.512  -0.440  0.00  0.00    +0.046 C 
ATOM      8  C   UNL     1       8.060   3.799  -1.208  0.00  0.00    +0.101 C 
ATOM      9  C   UNL     1       6.822   4.446  -0.648  0.00  0.00    +0.218 C 
ATOM     10  O   UNL     1       6.743   5.656  -0.610  0.00  0.00    -0.275 OA
ATOM     11  N   UNL     1       5.801   3.698  -0.192  0.00  0.00    -0.285 N 
ATOM     12  H   UNL     1       5.005   4.130   0.155  0.00  0.00    +0.155 HD
ENDROOT
BRANCH   6  13
ATOM     13  N   UNL     1       6.137  -1.868  -0.269  0.00  0.00    -0.357 N 
ATOM     14  H   UNL     1       5.332  -2.404  -0.199  0.00  0.00    +0.142 HD
ATOM     15  H   UNL     1       7.002  -2.299  -0.349  0.00  0.00    +0.142 HD
ENDBRANCH   6  13
BRANCH   1  16
ATOM     16  N   UNL     1       3.643  -0.620  -0.037  0.00  0.00    -0.312 N 
ATOM     17  H   UNL     1       3.692  -1.584  -0.135  0.00  0.00    +0.152 HD
BRANCH  16  21
ATOM     18  C   UNL     1      -0.025   1.223   0.684  0.00  0.00    +0.001 A 
ATOM     19  C   UNL     1       1.104   1.615   1.386  0.00  0.00    +0.002 A 
ATOM     20  C   UNL     1       2.320   1.006   1.150  0.00  0.00    +0.024 A 
ATOM     21  C   UNL     1       2.420  -0.006   0.203  0.00  0.00    +0.049 A 
ATOM     22  C   UNL     1       1.278  -0.405  -0.510  0.00  0.00    +0.073 A 
ATOM     23  C   UNL     1       0.054   0.221  -0.259  0.00  0.00    +0.021 A 
BRANCH  22  24
ATOM     24  C   UNL     1       1.367  -1.447  -1.488  0.00  0.00    +0.101 C 
ATOM     25  N   UNL     1       1.438  -2.273  -2.264  0.00  0.00    -0.191 NA
ENDBRANCH  22  24
ENDBRANCH  16  21
ENDBRANCH   1  16
TORSDOF 4
