REMARK  Name = ZINC39672885
REMARK  6 active torsions:
REMARK  status: ('A' for Active; 'I' for Inactive)
REMARK    1  A    between atoms: C_1  and  C_2
REMARK    2  A    between atoms: C_4  and  C_9
REMARK    3  A    between atoms: C_13  and  C_22
REMARK    4  A    between atoms: N_24  and  C_25
REMARK    5  A    between atoms: C_25  and  C_26
REMARK    6  A    between atoms: C_26  and  N_32
REMARK                            x       y       z     vdW  Elec       q    Type
REMARK                         _______ _______ _______ _____ _____    ______ ____
ROOT
ATOM      1  C   UNL     1      -1.469  -2.982  -4.313  0.00  0.00    +0.247 C 
ATOM      2  O   UNL     1      -1.686  -2.938  -5.508  0.00  0.00    -0.270 OA
ATOM      3  N   UNL     1      -0.951  -4.098  -3.762  0.00  0.00    -0.296 N 
ATOM      4  C   UNL     1      -0.707  -4.374  -2.327  0.00  0.00    +0.121 C 
ATOM      5  C   UNL     1      -1.098  -5.857  -2.143  0.00  0.00    +0.100 C 
ATOM      6  C   UNL     1      -0.957  -6.477  -3.543  0.00  0.00    -0.004 C 
ATOM      7  C   UNL     1      -0.503  -5.329  -4.456  0.00  0.00    +0.115 C 
ATOM      8  C   UNL     1      -2.300  -7.021  -4.018  0.00  0.00    -0.010 C 
ATOM      9  C   UNL     1      -2.122  -7.683  -5.388  0.00  0.00    -0.082 C 
ATOM     10  N   UNL     1      -1.140  -8.770  -5.284  0.00  0.00    +0.379 N 
ATOM     11  C   UNL     1       0.172  -8.225  -4.916  0.00  0.00    -0.082 C 
ATOM     12  C   UNL     1       0.091  -7.586  -3.527  0.00  0.00    -0.010 C 
ATOM     13  H   UNL     1      -1.440  -9.426  -4.578  0.00  0.00    -0.086 HD
ATOM     14  H   UNL     1      -1.069  -9.243  -6.172  0.00  0.00    -0.086 HD
ENDROOT
BRANCH   1  18
ATOM     15  C   UNL     1      -3.911   1.308  -3.591  0.00  0.00    +0.047 C 
ATOM     16  C   UNL     1      -2.947   0.254  -3.111  0.00  0.00    -0.015 A 
ATOM     17  C   UNL     1      -2.667  -0.836  -3.908  0.00  0.00    +0.019 A 
ATOM     18  C   UNL     1      -1.772  -1.812  -3.463  0.00  0.00    +0.037 A 
ATOM     19  C   UNL     1      -1.167  -1.678  -2.212  0.00  0.00    +0.016 A 
ATOM     20  C   UNL     1      -1.454  -0.585  -1.423  0.00  0.00    +0.039 A 
ATOM     21  C   UNL     1      -2.339   0.384  -1.872  0.00  0.00    +0.126 A 
ATOM     22  F   UNL     1      -2.613   1.456  -1.098  0.00  0.00    -0.205 F 
ENDBRANCH   1  18
BRANCH   5  23
ATOM     23  C   UNL     1      -2.521  -5.968  -1.659  0.00  0.00    +0.218 C 
ATOM     24  O   UNL     1      -3.337  -5.128  -1.975  0.00  0.00    -0.275 OA
ATOM     25  N   UNL     1      -2.887  -7.001  -0.874  0.00  0.00    -0.313 N 
ATOM     26  H   UNL     1      -2.258  -7.715  -0.687  0.00  0.00    +0.149 HD
BRANCH  25  27
ATOM     27  C   UNL     1      -4.235  -7.045  -0.303  0.00  0.00    +0.126 C 
BRANCH  27  28
ATOM     28  C   UNL     1      -4.330  -8.204   0.691  0.00  0.00    +0.038 C 
ATOM     29  C   UNL     1      -3.935  -9.508  -0.005  0.00  0.00    +0.024 C 
ATOM     30  C   UNL     1      -4.880  -9.765  -1.180  0.00  0.00    +0.002 C 
ATOM     31  C   UNL     1      -6.316  -9.878  -0.664  0.00  0.00    +0.000 C 
ATOM     32  C   UNL     1      -6.712  -8.574   0.032  0.00  0.00    +0.002 C 
ATOM     33  C   UNL     1      -5.766  -8.317   1.207  0.00  0.00    +0.024 C 
BRANCH  28  34
ATOM     34  N   UNL     1      -3.423  -7.957   1.820  0.00  0.00    -0.291 NA
ATOM     35  C   UNL     1      -3.798  -6.730   2.538  0.00  0.00    +0.113 C 
ATOM     36  C   UNL     1      -2.865  -6.543   3.738  0.00  0.00    +0.175 C 
ATOM     37  O   UNL     1      -1.510  -6.511   3.282  0.00  0.00    -0.377 OA
ATOM     38  C   UNL     1      -1.111  -7.690   2.579  0.00  0.00    +0.175 C 
ATOM     39  C   UNL     1      -2.026  -7.889   1.367  0.00  0.00    +0.113 C 
ENDBRANCH  28  34
ENDBRANCH  27  28
ENDBRANCH  25  27
ENDBRANCH   5  23
TORSDOF 5
