REMARK  Name = ZINC18161859
REMARK  7 active torsions:
REMARK  status: ('A' for Active; 'I' for Inactive)
REMARK    1  A    between atoms: C_1  and  C_2
REMARK    2  A    between atoms: C_4  and  C_23
REMARK    3  A    between atoms: C_6  and  C_8
REMARK    4  A    between atoms: C_8  and  O_10
REMARK    5  A    between atoms: O_10  and  N_11
REMARK    6  A    between atoms: C_12  and  C_13
REMARK    7  A    between atoms: C_16  and  N_19
REMARK                            x       y       z     vdW  Elec       q    Type
REMARK                         _______ _______ _______ _____ _____    ______ ____
ROOT
ATOM      1  N   UNL     1       0.065  -3.026   4.766  0.00  0.00    -0.059 NA
ATOM      2  C   UNL     1       0.064  -2.508   5.960  0.00  0.00    +0.163 C 
ATOM      3  N   UNL     1       0.047  -1.134   6.118  0.00  0.00    -0.340 N 
ATOM      4  H   UNL     1       0.036  -0.557   5.338  0.00  0.00    +0.144 HD
ATOM      5  H   UNL     1       0.046  -0.748   7.008  0.00  0.00    +0.144 HD
ENDROOT
BRANCH   2   6
ATOM      6  C   UNL     1       0.081  -3.389   7.149  0.00  0.00    +0.018 A 
ATOM      7  C   UNL     1       0.104  -4.775   6.994  0.00  0.00    +0.013 A 
ATOM      8  C   UNL     1       0.120  -5.591   8.106  0.00  0.00    +0.033 A 
ATOM      9  C   UNL     1       0.113  -5.038   9.374  0.00  0.00    +0.126 A 
ATOM     10  C   UNL     1       0.090  -3.664   9.535  0.00  0.00    +0.033 A 
ATOM     11  C   UNL     1       0.080  -2.837   8.430  0.00  0.00    +0.013 A 
BRANCH   9  12
ATOM     12  N   UNL     1       0.129  -5.919  10.563  0.00  0.00    +0.056 N 
ATOM     13  O   UNL     1       0.148  -7.120  10.425  0.00  0.00    -0.126 OA
ATOM     14  O   UNL     1       0.123  -5.438  11.672  0.00  0.00    -0.126 OA
ENDBRANCH   9  12
ENDBRANCH   2   6
BRANCH   1  15
ATOM     15  O   UNL     1       0.049  -2.183   3.628  0.00  0.00    -0.310 OA
BRANCH  15  16
ATOM     16  C   UNL     1       0.052  -2.845   2.457  0.00  0.00    +0.366 C 
ATOM     17  O   UNL     1       0.067  -4.060   2.445  0.00  0.00    -0.243 OA
BRANCH  16  23
ATOM     18  C   UNL     1      -0.018   1.503   0.010  0.00  0.00    +0.044 C 
ATOM     19  C   UNL     1       0.002  -0.004   0.002  0.00  0.00    -0.049 A 
ATOM     20  C   UNL     1       0.006  -0.688  -1.201  0.00  0.00    +0.006 A 
ATOM     21  C   UNL     1       0.024  -2.071  -1.218  0.00  0.00    -0.049 A 
ATOM     22  C   UNL     1       0.039  -2.778  -0.033  0.00  0.00    +0.018 A 
ATOM     23  C   UNL     1       0.036  -2.095   1.184  0.00  0.00    +0.062 A 
ATOM     24  C   UNL     1       0.023  -0.699   1.194  0.00  0.00    +0.018 A 
ATOM     25  C   UNL     1       0.027  -2.807  -2.533  0.00  0.00    +0.044 C 
ENDBRANCH  16  23
ENDBRANCH  15  16
ENDBRANCH   1  15
TORSDOF 5
