REMARK  Name = ZINC09883416
REMARK  6 active torsions:
REMARK  status: ('A' for Active; 'I' for Inactive)
REMARK    1  A    between atoms: C_1  and  C_2
REMARK    2  A    between atoms: N_11  and  C_15
REMARK    3  A    between atoms: C_15  and  C_16
REMARK    4  A    between atoms: N_18  and  N_19
REMARK    5  A    between atoms: C_20  and  C_22
REMARK    6  A    between atoms: C_27  and  N_28
REMARK                            x       y       z     vdW  Elec       q    Type
REMARK                         _______ _______ _______ _____ _____    ______ ____
ROOT
ATOM      1  C   UNL     1      -2.786   0.635   1.423  0.00  0.00    +0.247 C 
ATOM      2  O   UNL     1      -1.991   0.679   2.338  0.00  0.00    -0.273 OA
ATOM      3  N   UNL     1      -4.100   0.478   1.678  0.00  0.00    -0.233 N 
ATOM      4  H   UNL     1      -4.735   0.443   0.947  0.00  0.00    +0.173 HD
ENDROOT
BRANCH   3   5
ATOM      5  N   UNL     1      -4.547   0.365   3.001  0.00  0.00    -0.230 N 
ATOM      6  C   UNL     1      -5.861   0.208   3.257  0.00  0.00    +0.262 C 
ATOM      7  O   UNL     1      -6.658   0.164   2.340  0.00  0.00    -0.269 OA
ATOM      8  H   UNL     1      -3.912   0.400   3.733  0.00  0.00    +0.173 HD
BRANCH   6   9
ATOM      9  C   UNL     1      -6.333   0.088   4.650  0.00  0.00    +0.062 A 
ATOM     10  C   UNL     1      -5.445   0.281   5.711  0.00  0.00    +0.015 A 
ATOM     11  C   UNL     1      -5.891   0.169   7.010  0.00  0.00    +0.001 A 
ATOM     12  C   UNL     1      -7.218  -0.136   7.270  0.00  0.00    +0.002 A 
ATOM     13  C   UNL     1      -8.106  -0.329   6.231  0.00  0.00    +0.027 A 
ATOM     14  C   UNL     1      -7.676  -0.213   4.917  0.00  0.00    +0.058 A 
BRANCH  14  15
ATOM     15  N   UNL     1      -8.574  -0.402   3.865  0.00  0.00    -0.322 N 
ATOM     16  C   UNL     1      -9.733   0.296   3.671  0.00  0.00    +0.091 A 
ATOM     17  C   UNL     1     -10.323  -0.169   2.552  0.00  0.00    +0.019 A 
ATOM     18  C   UNL     1      -9.507  -1.198   2.039  0.00  0.00    +0.019 A 
ATOM     19  C   UNL     1      -8.445  -1.320   2.861  0.00  0.00    +0.091 A 
ENDBRANCH  14  15
ENDBRANCH   6   9
ENDBRANCH   3   5
BRANCH   1  20
ATOM     20  C   UNL     1      -2.304   0.757  -0.000  0.00  0.00    +0.215 C 
BRANCH  20  30
ATOM     21  C   UNL     1       1.310   0.637  -2.555  0.00  0.00    +0.010 C 
ATOM     22  C   UNL     1       2.145   0.198  -1.351  0.00  0.00    +0.018 C 
ATOM     23  C   UNL     1       2.388  -1.312  -1.422  0.00  0.00    +0.006 C 
ATOM     24  C   UNL     1       3.205  -1.754  -0.206  0.00  0.00    +0.000 C 
ATOM     25  C   UNL     1       2.434  -1.431   1.075  0.00  0.00    +0.003 C 
ATOM     26  C   UNL     1       2.191   0.079   1.155  0.00  0.00    +0.035 C 
ATOM     27  C   UNL     1       1.397   0.533  -0.065  0.00  0.00    +0.115 C 
ATOM     28  C   UNL     1       0.028  -0.106  -0.070  0.00  0.00    +0.247 C 
ATOM     29  O   UNL     1      -0.230  -1.290  -0.121  0.00  0.00    -0.273 OA
ATOM     30  N   UNL     1      -0.848   0.918  -0.011  0.00  0.00    -0.215 N 
ATOM     31  C   UNL     1      -0.222   2.100   0.040  0.00  0.00    +0.310 C 
ATOM     32  O   UNL     1      -0.798   3.168   0.101  0.00  0.00    -0.252 OA
ATOM     33  N   UNL     1       1.119   1.973   0.009  0.00  0.00    -0.285 N 
ATOM     34  H   UNL     1       1.771   2.690   0.032  0.00  0.00    +0.151 HD
ENDBRANCH  20  30
ENDBRANCH   1  20
TORSDOF 5
