REMARK  Name = ZINC36970939
REMARK  4 active torsions:
REMARK  status: ('A' for Active; 'I' for Inactive)
REMARK    1  A    between atoms: C_8  and  C_10
REMARK    2  A    between atoms: C_10  and  N_11
REMARK    3  A    between atoms: N_11  and  C_12
REMARK    4  A    between atoms: C_15  and  N_19
REMARK                            x       y       z     vdW  Elec       q    Type
REMARK                         _______ _______ _______ _____ _____    ______ ____
ROOT
ATOM      1  N   UNL     1       4.059  -3.755  -1.439  0.00  0.00    -0.336 N 
ATOM      2  H   UNL     1       3.698  -3.229  -2.170  0.00  0.00    +0.147 HD
ENDROOT
BRANCH   1   3
ATOM      3  C   UNL     1       4.828  -4.890  -1.708  0.00  0.00    +0.046 A 
ATOM      4  C   UNL     1       5.341  -5.647  -0.663  0.00  0.00    +0.026 A 
ATOM      5  C   UNL     1       6.101  -6.769  -0.932  0.00  0.00    +0.034 A 
ATOM      6  C   UNL     1       6.351  -7.139  -2.241  0.00  0.00    +0.128 A 
ATOM      7  C   UNL     1       5.842  -6.388  -3.284  0.00  0.00    +0.054 A 
ATOM      8  C   UNL     1       5.077  -5.268  -3.022  0.00  0.00    +0.064 A 
ATOM      9 CL   UNL     1       4.431  -4.330  -4.333  0.00  0.00    -0.082 Cl
BRANCH   6  10
ATOM     10  N   UNL     1       7.166  -8.341  -2.525  0.00  0.00    +0.056 N 
ATOM     11  O   UNL     1       7.612  -8.998  -1.613  0.00  0.00    -0.126 OA
ATOM     12  O   UNL     1       7.386  -8.666  -3.668  0.00  0.00    -0.126 OA
ENDBRANCH   6  10
ENDBRANCH   1   3
BRANCH   1  13
ATOM     13  C   UNL     1       3.799  -3.358  -0.053  0.00  0.00    +0.176 C 
BRANCH  13  21
ATOM     14  C   UNL     1      -0.017   1.363   0.009  0.00  0.00    +0.001 A 
ATOM     15  C   UNL     1       1.170   2.082   0.002  0.00  0.00    +0.004 A 
ATOM     16  C   UNL     1       2.386   1.432  -0.013  0.00  0.00    +0.047 A 
ATOM     17  C   UNL     1       2.427   0.043  -0.021  0.00  0.00    +0.135 A 
ATOM     18  C   UNL     1       1.222  -0.679  -0.013  0.00  0.00    +0.020 A 
ATOM     19  C   UNL     1       0.002  -0.004   0.002  0.00  0.00    +0.011 A 
ATOM     20  C   UNL     1       1.613  -2.093  -0.025  0.00  0.00    +0.054 A 
ATOM     21  C   UNL     1       2.952  -2.111  -0.038  0.00  0.00    +0.123 A 
ATOM     22  O   UNL     1       3.432  -0.855  -0.036  0.00  0.00    -0.458 OA
ENDBRANCH  13  21
ENDBRANCH   1  13
TORSDOF 4
