REMARK  Name = ZINC45670060
REMARK  9 active torsions:
REMARK  status: ('A' for Active; 'I' for Inactive)
REMARK    1  A    between atoms: C_1  and  C_2
REMARK    2  A    between atoms: C_4  and  N_26
REMARK    3  A    between atoms: C_6  and  C_7
REMARK    4  A    between atoms: C_7  and  O_9
REMARK    5  A    between atoms: O_9  and  C_10
REMARK    6  A    between atoms: C_10  and  C_11
REMARK    7  A    between atoms: N_13  and  C_14
REMARK    8  A    between atoms: C_15  and  C_23
REMARK    9  A    between atoms: C_27  and  C_29
REMARK                            x       y       z     vdW  Elec       q    Type
REMARK                         _______ _______ _______ _____ _____    ______ ____
ROOT
ATOM      1  C   UNL     1       0.057  -0.654   4.859  0.00  0.00    +0.328 C 
ENDROOT
BRANCH   1   2
ATOM      2  C   UNL     1       0.082  -1.788   5.851  0.00  0.00    +0.255 C 
ATOM      3  O   UNL     1       0.094  -2.936   5.460  0.00  0.00    -0.272 OA
ATOM      4  N   UNL     1       0.091  -1.527   7.173  0.00  0.00    -0.277 N 
ATOM      5  H   UNL     1       0.081  -0.609   7.486  0.00  0.00    +0.155 HD
BRANCH   4   6
ATOM      6  C   UNL     1       0.114  -2.570   8.086  0.00  0.00    +0.084 A 
ATOM      7  C   UNL     1       0.120  -2.492   9.470  0.00  0.00    +0.068 A 
ATOM      8  C   UNL     1       0.145  -3.744  10.206  0.00  0.00    -0.023 A 
ATOM      9  C   UNL     1       0.160  -4.844   9.424  0.00  0.00    -0.004 A 
ATOM     10  S   UNL     1       0.133  -4.219   7.769  0.00  0.00    -0.077 S 
ATOM     11  C   UNL     1       0.189  -6.271   9.878  0.00  0.00    +0.043 C 
ATOM     12  C   UNL     1       0.580  -6.296  11.364  0.00  0.00    +0.005 C 
ATOM     13  C   UNL     1      -0.270  -5.269  12.117  0.00  0.00    +0.005 C 
ATOM     14  C   UNL     1       0.154  -3.852  11.724  0.00  0.00    +0.037 C 
BRANCH   7  15
ATOM     15  C   UNL     1       0.102  -1.199  10.162  0.00  0.00    +0.244 C 
ATOM     16  O   UNL     1      -0.959  -0.680  10.455  0.00  0.00    -0.270 OA
ATOM     17  N   UNL     1       1.261  -0.585  10.473  0.00  0.00    -0.325 N 
ATOM     18  H   UNL     1       2.107  -0.998  10.239  0.00  0.00    +0.145 HD
ATOM     19  H   UNL     1       1.249   0.270  10.930  0.00  0.00    +0.145 HD
ENDBRANCH   7  15
ENDBRANCH   4   6
ENDBRANCH   1   2
BRANCH   1  20
ATOM     20  O   UNL     1       0.051  -1.183   3.531  0.00  0.00    -0.451 OA
BRANCH  20  21
ATOM     21  C   UNL     1       0.030  -0.293   2.517  0.00  0.00    +0.347 C 
ATOM     22  O   UNL     1       0.016   0.900   2.755  0.00  0.00    -0.244 OA
BRANCH  21  28
ATOM     23  C   UNL     1      -0.018   1.503   0.010  0.00  0.00    +0.045 C 
ATOM     24  C   UNL     1       0.002  -0.004   0.002  0.00  0.00    -0.028 A 
ATOM     25  C   UNL     1       0.007  -0.724  -1.163  0.00  0.00    +0.035 A 
ATOM     26  C   UNL     1       0.026  -2.099  -1.089  0.00  0.00    +0.073 A 
ATOM     27  S   UNL     1       0.038  -2.420   0.560  0.00  0.00    -0.067 S 
ATOM     28  C   UNL     1       0.023  -0.747   1.176  0.00  0.00    +0.101 A 
BRANCH  26  29
ATOM     29  N   UNL     1       0.034  -3.009  -2.136  0.00  0.00    -0.273 N 
ATOM     30  C   UNL     1       0.053  -4.332  -1.879  0.00  0.00    +0.284 C 
ATOM     31  O   UNL     1       0.065  -4.728  -0.728  0.00  0.00    -0.266 OA
ATOM     32  H   UNL     1       0.025  -2.694  -3.054  0.00  0.00    +0.156 HD
BRANCH  30  33
ATOM     33  C   UNL     1       0.061  -5.294  -2.984  0.00  0.00    +0.189 A 
ATOM     34  C   UNL     1       0.075  -6.655  -2.865  0.00  0.00    +0.054 A 
ATOM     35  C   UNL     1       0.077  -7.175  -4.168  0.00  0.00    +0.042 A 
ATOM     36  C   UNL     1       0.065  -6.122  -5.016  0.00  0.00    +0.196 A 
ATOM     37  O   UNL     1       0.050  -4.991  -4.299  0.00  0.00    -0.458 OA
ENDBRANCH  30  33
ENDBRANCH  26  29
ENDBRANCH  21  28
ENDBRANCH  20  21
ENDBRANCH   1  20
TORSDOF 8
