REMARK  Name = ZINC40348184
REMARK  9 active torsions:
REMARK  status: ('A' for Active; 'I' for Inactive)
REMARK    1  A    between atoms: C_1  and  C_2
REMARK    2  A    between atoms: C_2  and  C_4
REMARK    3  A    between atoms: C_2  and  N_18
REMARK    4  A    between atoms: C_4  and  N_5
REMARK    5  A    between atoms: N_5  and  S_6
REMARK    6  A    between atoms: S_6  and  C_9
REMARK    7  A    between atoms: C_10  and  N_17
REMARK    8  A    between atoms: N_18  and  C_19
REMARK    9  A    between atoms: N_18  and  C_20
REMARK                            x       y       z     vdW  Elec       q    Type
REMARK                         _______ _______ _______ _____ _____    ______ ____
ROOT
ATOM      1  S   UNL     1      -2.427  -3.559  -0.708  0.00  0.00    +0.061 S 
ATOM      2  O   UNL     1      -2.129  -4.873  -1.159  0.00  0.00    -0.153 OA
ATOM      3  O   UNL     1      -3.274  -3.309   0.405  0.00  0.00    -0.153 OA
ENDROOT
BRANCH   1   4
ATOM      4  C   UNL     1      -3.130  -2.704  -2.079  0.00  0.00    +0.140 A 
ATOM      5  C   UNL     1      -3.955  -1.606  -1.865  0.00  0.00    +0.053 A 
ATOM      6  C   UNL     1      -4.506  -0.934  -2.948  0.00  0.00    +0.040 A 
ATOM      7  C   UNL     1      -4.234  -1.359  -4.235  0.00  0.00    +0.021 A 
ATOM      8  C   UNL     1      -3.413  -2.452  -4.444  0.00  0.00    +0.032 A 
ATOM      9  C   UNL     1      -2.857  -3.120  -3.368  0.00  0.00    +0.047 A 
ATOM     10 BR   UNL     1      -1.728  -4.609  -3.660  0.00  0.00    -0.048 Br
ATOM     11 BR   UNL     1      -4.985  -0.445  -5.710  0.00  0.00    -0.050 Br
BRANCH   5  12
ATOM     12  N   UNL     1      -4.229  -1.180  -0.563  0.00  0.00    -0.356 N 
ATOM     13  H   UNL     1      -3.640  -1.434   0.164  0.00  0.00    +0.142 HD
ATOM     14  H   UNL     1      -5.008  -0.630  -0.387  0.00  0.00    +0.142 HD
ENDBRANCH   5  12
ENDBRANCH   1   4
BRANCH   1  15
ATOM     15  N   UNL     1      -0.976  -2.834  -0.370  0.00  0.00    -0.191 NA
ATOM     16  H   UNL     1      -0.149  -3.329  -0.483  0.00  0.00    +0.148 HD
BRANCH  15  17
ATOM     17  C   UNL     1      -0.942  -1.447   0.098  0.00  0.00    +0.090 C 
BRANCH  17  19
ATOM     18  C   UNL     1       0.413   0.256   1.326  0.00  0.00    -0.012 C 
ATOM     19  C   UNL     1       0.411  -1.162   0.752  0.00  0.00    -0.057 C 
BRANCH  19  20
ATOM     20  N   UNL     1       0.645  -2.128   1.834  0.00  0.00    +0.379 N 
ATOM     21  C   UNL     1       2.007  -1.957   2.357  0.00  0.00    -0.096 C 
ATOM     22  C   UNL     1      -0.326  -1.901   2.912  0.00  0.00    -0.096 C 
ATOM     23  H   UNL     1       0.537  -3.066   1.476  0.00  0.00    -0.082 HD
ENDBRANCH  19  20
ENDBRANCH  17  19
ENDBRANCH  15  17
ENDBRANCH   1  15
TORSDOF 6
