REMARK  Name = ZINC35322479
REMARK  5 active torsions:
REMARK  status: ('A' for Active; 'I' for Inactive)
REMARK    1  A    between atoms: C_1  and  C_2
REMARK    2  A    between atoms: C_2  and  C_3
REMARK    3  A    between atoms: C_2  and  C_4
REMARK    4  A    between atoms: C_4  and  N_5
REMARK    5  A    between atoms: C_9  and  N_15
REMARK                            x       y       z     vdW  Elec       q    Type
REMARK                         _______ _______ _______ _____ _____    ______ ____
ROOT
ATOM      1  N   UNL     1      -1.416  -1.993  -0.116  0.00  0.00    -0.271 N 
ATOM      2  C   UNL     1      -1.448  -2.668  -1.339  0.00  0.00    +0.040 A 
ATOM      3  C   UNL     1      -1.500  -2.183  -2.645  0.00  0.00    +0.025 A 
ATOM      4  C   UNL     1      -1.523  -3.059  -3.710  0.00  0.00    +0.024 A 
ATOM      5  C   UNL     1      -1.495  -4.430  -3.490  0.00  0.00    +0.025 A 
ATOM      6  C   UNL     1      -1.443  -4.918  -2.190  0.00  0.00    +0.028 A 
ATOM      7  C   UNL     1      -1.420  -4.041  -1.129  0.00  0.00    -0.015 A 
ATOM      8  C   UNL     1      -1.367  -4.242   0.368  0.00  0.00    +0.133 C 
ATOM      9  C   UNL     1      -1.363  -2.836   0.929  0.00  0.00    +0.224 C 
ATOM     10  O   UNL     1      -1.322  -2.529   2.102  0.00  0.00    -0.275 OA
ENDROOT
BRANCH   5  11
ATOM     11  N   UNL     1      -1.519  -5.316  -4.573  0.00  0.00    -0.358 N 
ATOM     12  H   UNL     1      -1.555  -4.973  -5.480  0.00  0.00    +0.142 HD
ATOM     13  H   UNL     1      -1.499  -6.273  -4.417  0.00  0.00    +0.142 HD
ENDBRANCH   5  11
BRANCH   1  14
ATOM     14  C   UNL     1      -1.433  -0.534   0.013  0.00  0.00    +0.116 C 
BRANCH  14  16
ATOM     15  C   UNL     1      -0.019   1.526   0.010  0.00  0.00    +0.009 C 
ATOM     16  C   UNL     1       0.002  -0.004   0.002  0.00  0.00    +0.001 C 
ATOM     17  C   UNL     1       0.742  -0.511   1.242  0.00  0.00    +0.009 C 
ENDBRANCH  14  16
ENDBRANCH   1  14
TORSDOF 3
