REMARK  Name = ZINC25747991
REMARK  4 active torsions:
REMARK  status: ('A' for Active; 'I' for Inactive)
REMARK    1  A    between atoms: C_1  and  N_2
REMARK    2  A    between atoms: C_6  and  C_8
REMARK    3  A    between atoms: C_8  and  N_9
REMARK    4  A    between atoms: N_9  and  C_10
REMARK                            x       y       z     vdW  Elec       q    Type
REMARK                         _______ _______ _______ _____ _____    ______ ____
ROOT
ATOM      1  C   UNL     1       1.173   2.442   0.004  0.00  0.00    +0.050 A 
ATOM      2  C   UNL     1       1.157   3.831   0.010  0.00  0.00    +0.072 A 
ATOM      3  C   UNL     1      -0.050   4.506   0.025  0.00  0.00    +0.144 A 
ATOM      4  C   UNL     1      -1.247   3.791   0.034  0.00  0.00    +0.077 A 
ATOM      5  C   UNL     1      -1.229   2.406   0.021  0.00  0.00    +0.048 A 
ATOM      6  C   UNL     1      -0.021   1.732   0.012  0.00  0.00    +0.064 A 
ATOM      7 CL   UNL     1       0.002  -0.004   0.002  0.00  0.00    -0.082 Cl
ATOM      8  N   UNL     1      -2.464   4.491   0.050  0.00  0.00    -0.280 N 
ATOM      9  C   UNL     1      -2.466   5.806  -0.260  0.00  0.00    +0.255 C 
ATOM     10  O   UNL     1      -3.501   6.439  -0.223  0.00  0.00    -0.272 OA
ATOM     11  C   UNL     1      -1.178   6.484  -0.651  0.00  0.00    +0.325 C 
ATOM     12  O   UNL     1      -0.083   5.865   0.030  0.00  0.00    -0.481 OA
ATOM     13  H   UNL     1      -3.396   3.969   0.311  0.00  0.00    +0.155 HD
ENDROOT
BRANCH   1  14
ATOM     14  N   UNL     1       2.393   1.756  -0.010  0.00  0.00    -0.334 N 
ATOM     15  H   UNL     1       2.406   0.657  -0.016  0.00  0.00    +0.147 HD
BRANCH  14  16
ATOM     16  C   UNL     1       3.653   2.504  -0.018  0.00  0.00    +0.198 C 
BRANCH  16  22
ATOM     17  C   UNL     1       9.500   0.665  -0.080  0.00  0.00    +0.129 C 
ATOM     18  N   UNL     1       8.375   1.604  -0.066  0.00  0.00    -0.302 N 
ATOM     19  C   UNL     1       7.110   1.139  -0.056  0.00  0.00    +0.306 C 
ATOM     20  O   UNL     1       6.902  -0.058  -0.060  0.00  0.00    -0.252 OA
ATOM     21  N   UNL     1       6.075   2.003  -0.043  0.00  0.00    -0.239 N 
ATOM     22  C   UNL     1       4.810   1.538  -0.034  0.00  0.00    +0.237 C 
ATOM     23  O   UNL     1       4.603   0.344  -0.037  0.00  0.00    -0.274 OA
ATOM     24  H   UNL     1       8.563   2.688  -0.062  0.00  0.00    +0.150 HD
ATOM     25  H   UNL     1       6.263   3.087  -0.040  0.00  0.00    +0.159 HD
ENDBRANCH  16  22
ENDBRANCH  14  16
ENDBRANCH   1  14
TORSDOF 3
