REMARK  Name = ZINC02420817
REMARK  6 active torsions:
REMARK  status: ('A' for Active; 'I' for Inactive)
REMARK    1  A    between atoms: C_1  and  C_2
REMARK    2  A    between atoms: C_21  and  N_25
REMARK    3  A    between atoms: C_22  and  C_23
REMARK    4  A    between atoms: C_29  and  C_34
REMARK    5  A    between atoms: C_29  and  C_35
REMARK    6  A    between atoms: C_31  and  C_33
REMARK                            x       y       z     vdW  Elec       q    Type
REMARK                         _______ _______ _______ _____ _____    ______ ____
ROOT
ATOM      1  C   UNL     1       0.834   4.623   5.039  0.00  0.00    +0.044 C 
ATOM      2  C   UNL     1       0.331   4.668   3.619  0.00  0.00    -0.050 A 
ATOM      3  C   UNL     1      -0.864   5.320   3.355  0.00  0.00    +0.009 A 
ATOM      4  C   UNL     1      -1.359   5.385   2.075  0.00  0.00    -0.022 A 
ATOM      5  C   UNL     1      -0.606   4.767   1.076  0.00  0.00    +0.045 A 
ATOM      6  C   UNL     1       0.592   4.116   1.336  0.00  0.00    -0.001 A 
ATOM      7  C   UNL     1       1.085   4.054   2.621  0.00  0.00    +0.010 A 
ATOM      8  C   UNL     1       1.060   3.612   0.009  0.00  0.00    +0.148 C 
ATOM      9  C   UNL     1       1.152   2.112   0.002  0.00  0.00    +0.104 A 
ATOM     10  C   UNL     1       2.368   1.495  -0.012  0.00  0.00    +0.152 A 
ATOM     11  C   UNL     1       2.391   0.024  -0.026  0.00  0.00    +0.060 A 
ATOM     12  C   UNL     1       3.599  -0.676  -0.046  0.00  0.00    +0.015 A 
ATOM     13  C   UNL     1       3.589  -2.053  -0.059  0.00  0.00    +0.001 A 
ATOM     14  C   UNL     1       2.385  -2.742  -0.051  0.00  0.00    +0.004 A 
ATOM     15  C   UNL     1       1.186  -2.063  -0.030  0.00  0.00    +0.047 A 
ATOM     16  C   UNL     1       1.172  -0.673  -0.018  0.00  0.00    +0.143 A 
ATOM     17  O   UNL     1       0.002  -0.004   0.002  0.00  0.00    -0.422 OA
ATOM     18  C   UNL     1      -0.016   1.333   0.009  0.00  0.00    +0.346 A 
ATOM     19  O   UNL     1      -1.095   1.900   0.018  0.00  0.00    -0.245 OA
ATOM     20  O   UNL     1       3.516   2.196  -0.013  0.00  0.00    -0.440 OA
ATOM     21  C   UNL     1       3.516   3.495  -0.361  0.00  0.00    +0.199 C 
ATOM     22  C   UNL     1       2.375   4.227  -0.371  0.00  0.00    +0.110 C 
ATOM     23  C   UNL     1      -0.014   4.060  -0.972  0.00  0.00    +0.241 C 
ATOM     24  O   UNL     1      -0.025   3.854  -2.167  0.00  0.00    -0.273 OA
ATOM     25  N   UNL     1      -0.947   4.724  -0.273  0.00  0.00    -0.264 N 
ATOM     26  C   UNL     1      -2.190   5.359  -0.745  0.00  0.00    +0.037 C 
ATOM     27  C   UNL     1      -3.198   5.366   0.411  0.00  0.00    +0.033 C 
ATOM     28  C   UNL     1      -2.633   6.059   1.655  0.00  0.00    +0.020 C 
ATOM     29  C   UNL     1      -3.652   5.973   2.793  0.00  0.00    +0.012 C 
ATOM     30  C   UNL     1      -1.901   6.795  -1.185  0.00  0.00    +0.032 C 
ATOM     31  C   UNL     1      -2.760   4.564  -1.921  0.00  0.00    +0.032 C 
ENDROOT
BRANCH  21  32
ATOM     32  N   UNL     1       4.699   4.093  -0.716  0.00  0.00    -0.328 N 
ATOM     33  H   UNL     1       5.522   3.580  -0.714  0.00  0.00    +0.145 HD
ATOM     34  H   UNL     1       4.712   5.030  -0.970  0.00  0.00    +0.145 HD
ENDBRANCH  21  32
BRANCH  22  35
ATOM     35  C   UNL     1       2.426   5.607  -0.750  0.00  0.00    +0.102 C 
ATOM     36  N   UNL     1       2.466   6.702  -1.050  0.00  0.00    -0.191 NA
ENDBRANCH  22  35
TORSDOF 2
