REMARK  Name = ZINC63780568
REMARK  6 active torsions:
REMARK  status: ('A' for Active; 'I' for Inactive)
REMARK    1  A    between atoms: C_7  and  C_10
REMARK    2  A    between atoms: C_10  and  C_12
REMARK    3  A    between atoms: C_10  and  C_30
REMARK    4  A    between atoms: C_12  and  N_13
REMARK    5  A    between atoms: C_14  and  C_16
REMARK    6  A    between atoms: C_16  and  N_17
REMARK                            x       y       z     vdW  Elec       q    Type
REMARK                         _______ _______ _______ _____ _____    ______ ____
ROOT
ATOM      1  C   UNL     1       0.691  -3.186  -0.024  0.00  0.00    +0.066 C 
ENDROOT
BRANCH   1   8
ATOM      2  C   UNL     1      -0.016   1.348   0.009  0.00  0.00    +0.001 A 
ATOM      3  C   UNL     1       1.166   2.101   0.002  0.00  0.00    +0.002 A 
ATOM      4  C   UNL     1       2.391   1.535  -0.013  0.00  0.00    +0.026 A 
ATOM      5  C   UNL     1       2.529   0.120  -0.022  0.00  0.00    +0.043 A 
ATOM      6  N   UNL     1       3.587  -0.654  -0.037  0.00  0.00    -0.380 N 
ATOM      7  C   UNL     1       3.143  -2.053  -0.041  0.00  0.00    +0.145 C 
ATOM      8  C   UNL     1       1.631  -2.008  -0.025  0.00  0.00    -0.033 C 
ATOM      9  C   UNL     1       1.295  -0.698  -0.014  0.00  0.00    -0.000 A 
ATOM     10  C   UNL     1       0.002  -0.004   0.002  0.00  0.00    +0.010 A 
ATOM     11  H   UNL     1       4.509  -0.353  -0.045  0.00  0.00    +0.160 HD
ENDBRANCH   1   8
BRANCH   1  12
ATOM     12  C   UNL     1       0.920  -4.014  -1.262  0.00  0.00    -0.020 A 
ATOM     13  C   UNL     1       2.158  -4.583  -1.493  0.00  0.00    +0.006 A 
ATOM     14  C   UNL     1       2.369  -5.342  -2.629  0.00  0.00    +0.000 A 
ATOM     15  C   UNL     1       1.341  -5.534  -3.534  0.00  0.00    +0.001 A 
ATOM     16  C   UNL     1       0.103  -4.965  -3.303  0.00  0.00    +0.020 A 
ATOM     17  C   UNL     1      -0.110  -4.210  -2.164  0.00  0.00    +0.045 A 
ATOM     18 CL   UNL     1      -1.668  -3.501  -1.871  0.00  0.00    -0.083 Cl
ENDBRANCH   1  12
BRANCH   1  19
ATOM     19  C   UNL     1       0.947  -4.042   1.218  0.00  0.00    +0.116 C 
BRANCH  19  20
ATOM     20  N   UNL     1      -0.044  -5.118   1.282  0.00  0.00    -0.313 N 
ATOM     21  C   UNL     1      -0.013  -6.003   2.298  0.00  0.00    +0.231 C 
ATOM     22  O   UNL     1       0.836  -5.909   3.159  0.00  0.00    -0.274 OA
ATOM     23  H   UNL     1      -0.723  -5.194   0.593  0.00  0.00    +0.149 HD
BRANCH  21  24
ATOM     24  C   UNL     1      -1.034  -7.111   2.364  0.00  0.00    +0.212 C 
BRANCH  24  25
ATOM     25  N   UNL     1      -0.788  -7.931   3.553  0.00  0.00    -0.233 N 
ATOM     26  C   UNL     1       0.031  -9.017   3.554  0.00  0.00    +0.226 C 
ATOM     27  O   UNL     1       0.819  -9.337   2.691  0.00  0.00    -0.275 OA
ATOM     28  C   UNL     1      -0.238  -9.735   4.838  0.00  0.00    +0.087 C 
ATOM     29  C   UNL     1       0.890 -10.468   5.531  0.00  0.00    +0.013 C 
ATOM     30  C   UNL     1       0.292 -11.053   6.826  0.00  0.00    +0.001 C 
ATOM     31  C   UNL     1      -0.315  -9.969   7.712  0.00  0.00    +0.001 C 
ATOM     32  C   UNL     1      -1.327  -9.096   6.947  0.00  0.00    +0.013 C 
ATOM     33  C   UNL     1      -0.618  -8.529   5.749  0.00  0.00    +0.087 C 
ATOM     34  C   UNL     1      -1.352  -7.677   4.765  0.00  0.00    +0.226 C 
ATOM     35  O   UNL     1      -2.266  -6.916   4.999  0.00  0.00    -0.275 OA
ENDBRANCH  24  25
ENDBRANCH  21  24
ENDBRANCH  19  20
ENDBRANCH   1  19
TORSDOF 6
