REMARK  Name = ZINC64201803
REMARK  6 active torsions:
REMARK  status: ('A' for Active; 'I' for Inactive)
REMARK    1  A    between atoms: C_1  and  C_2
REMARK    2  A    between atoms: C_2  and  C_4
REMARK    3  A    between atoms: C_2  and  O_15
REMARK    4  A    between atoms: N_6  and  C_7
REMARK    5  A    between atoms: O_15  and  C_16
REMARK    6  A    between atoms: C_16  and  C_18
REMARK                            x       y       z     vdW  Elec       q    Type
REMARK                         _______ _______ _______ _____ _____    ______ ____
ROOT
ATOM      1  C   UNL     1      -0.032   1.510   0.021  0.00  0.00    +0.062 C 
ATOM      2  C   UNL     1      -0.006  -0.020   0.003  0.00  0.00    +0.259 C 
ENDROOT
BRANCH   2   3
ATOM      3  C   UNL     1       0.705  -0.496  -1.238  0.00  0.00    +0.258 C 
ATOM      4  O   UNL     1       1.752  -1.100  -1.143  0.00  0.00    -0.271 OA
ATOM      5  N   UNL     1       0.176  -0.250  -2.453  0.00  0.00    -0.281 N 
ATOM      6  H   UNL     1      -0.692   0.175  -2.527  0.00  0.00    +0.155 HD
BRANCH   5   7
ATOM      7  C   UNL     1       0.881  -0.608  -3.608  0.00  0.00    +0.053 A 
ATOM      8  C   UNL     1       1.665  -1.754  -3.617  0.00  0.00    +0.025 A 
ATOM      9  C   UNL     1       2.360  -2.106  -4.758  0.00  0.00    +0.003 A 
ATOM     10  C   UNL     1       2.276  -1.319  -5.892  0.00  0.00    +0.021 A 
ATOM     11  C   UNL     1       1.496  -0.175  -5.887  0.00  0.00    +0.061 A 
ATOM     12  C   UNL     1       0.794   0.179  -4.749  0.00  0.00    +0.080 A 
ATOM     13 CL   UNL     1      -0.191   1.609  -4.746  0.00  0.00    -0.080 Cl
ATOM     14 CL   UNL     1       1.394   0.811  -7.312  0.00  0.00    -0.082 Cl
ENDBRANCH   5   7
ENDBRANCH   2   3
BRANCH   2  15
ATOM     15  O   UNL     1       0.683  -0.498   1.160  0.00  0.00    -0.449 OA
BRANCH  15  16
ATOM     16  C   UNL     1      -0.057  -0.728   2.261  0.00  0.00    +0.340 C 
ATOM     17  O   UNL     1      -1.255  -0.528   2.241  0.00  0.00    -0.245 OA
BRANCH  16  18
ATOM     18  C   UNL     1       0.588  -1.223   3.495  0.00  0.00    +0.061 A 
ATOM     19  C   UNL     1       1.967  -1.447   3.518  0.00  0.00    +0.015 A 
ATOM     20  C   UNL     1       2.571  -1.911   4.673  0.00  0.00    +0.008 A 
ATOM     21  C   UNL     1       1.815  -2.150   5.792  0.00  0.00    +0.000 A 
ATOM     22  C   UNL     1       0.430  -1.933   5.795  0.00  0.00    +0.089 A 
ATOM     23  C   UNL     1      -0.180  -1.460   4.633  0.00  0.00    +0.044 A 
ATOM     24  N   UNL     1      -0.059  -2.250   7.028  0.00  0.00    -0.178 NA
ATOM     25  N   UNL     1       0.786  -2.640   7.835  0.00  0.00    -0.304 N 
ATOM     26  C   UNL     1       2.110  -2.643   7.190  0.00  0.00    +0.171 C 
ATOM     27  H   UNL     1       0.607  -2.905   8.751  0.00  0.00    +0.183 HD
ENDBRANCH  16  18
ENDBRANCH  15  16
ENDBRANCH   2  15
TORSDOF 5
