REMARK  Name = ZINC09024269
REMARK  7 active torsions:
REMARK  status: ('A' for Active; 'I' for Inactive)
REMARK    1  A    between atoms: C_1  and  C_2
REMARK    2  A    between atoms: C_7  and  C_9
REMARK    3  A    between atoms: C_7  and  C_10
REMARK    4  A    between atoms: N_14  and  C_16
REMARK    5  A    between atoms: C_16  and  C_17
REMARK    6  A    between atoms: C_16  and  C_18
REMARK    7  A    between atoms: C_16  and  C_19
REMARK                            x       y       z     vdW  Elec       q    Type
REMARK                         _______ _______ _______ _____ _____    ______ ____
ROOT
ATOM      1  C   UNL     1      -0.019   1.528   0.010  0.00  0.00    +0.007 C 
ATOM      2  C   UNL     1       0.002  -0.004   0.002  0.00  0.00    -0.010 C 
ATOM      3  C   UNL     1      -1.437  -0.527   0.015  0.00  0.00    +0.046 C 
ATOM      4  C   UNL     1      -1.422  -2.051  -0.025  0.00  0.00    +0.103 C 
ATOM      5  C   UNL     1      -0.626  -2.641   1.123  0.00  0.00    +0.049 C 
ATOM      6  C   UNL     1       0.759  -2.031   1.287  0.00  0.00    -0.031 C 
ATOM      7  C   UNL     1       0.719  -0.507   1.253  0.00  0.00    +0.010 C 
ATOM      8  C   UNL     1       1.319  -2.466   2.656  0.00  0.00    +0.011 C 
ATOM      9  C   UNL     1       1.710  -2.552   0.206  0.00  0.00    +0.011 C 
ATOM     10  N   UNL     1      -2.812  -2.546   0.021  0.00  0.00    -0.279 N 
ATOM     11  C   UNL     1      -3.141  -2.857  -1.248  0.00  0.00    +0.318 C 
ATOM     12  O   UNL     1      -4.253  -3.185  -1.608  0.00  0.00    -0.251 OA
ATOM     13  N   UNL     1      -2.076  -2.783  -2.058  0.00  0.00    -0.214 N 
ATOM     14  N   UNL     1      -0.939  -2.531  -1.333  0.00  0.00    -0.213 NA
ATOM     15  H   UNL     1      -3.368  -2.626   0.808  0.00  0.00    +0.152 HD
ATOM     16  H   UNL     1      -0.416  -3.392  -1.227  0.00  0.00    +0.147 HD
ENDROOT
BRANCH  13  17
ATOM     17  C   UNL     1      -2.114  -2.947  -3.511  0.00  0.00    +0.046 C 
ATOM     18  C   UNL     1      -3.027  -1.881  -4.121  0.00  0.00    +0.033 C 
ATOM     19  C   UNL     1      -0.702  -2.794  -4.079  0.00  0.00    +0.033 C 
ATOM     20  C   UNL     1      -2.654  -4.337  -3.853  0.00  0.00    +0.033 C 
ENDBRANCH  13  17
TORSDOF 1
