REMARK  Name = ZINC12395069
REMARK  2 active torsions:
REMARK  status: ('A' for Active; 'I' for Inactive)
REMARK    1  A    between atoms: C_3  and  C_6
REMARK    2  A    between atoms: C_8  and  C_21
REMARK                            x       y       z     vdW  Elec       q    Type
REMARK                         _______ _______ _______ _____ _____    ______ ____
ROOT
ATOM      1  C   UNL     1       0.301  -3.164  -0.019  0.00  0.00    +0.031 A 
ATOM      2  C   UNL     1       0.668  -4.508  -0.030  0.00  0.00    +0.044 A 
ATOM      3  C   UNL     1       2.003  -4.861  -0.046  0.00  0.00    +0.146 A 
ATOM      4  N   UNL     1       2.944  -3.934  -0.049  0.00  0.00    -0.235 NA
ATOM      5  C   UNL     1       2.652  -2.650  -0.038  0.00  0.00    +0.112 A 
ATOM      6  C   UNL     1       1.329  -2.174  -0.023  0.00  0.00    +0.044 A 
ATOM      7  C   UNL     1       1.169  -0.712  -0.013  0.00  0.00    +0.095 A 
ATOM      8  C   UNL     1       2.347   0.032  -0.020  0.00  0.00    +0.104 A 
ATOM      9  S   UNL     1       3.643  -1.176  -0.040  0.00  0.00    -0.062 S 
ATOM     10  C   UNL     1       2.320   1.433  -0.012  0.00  0.00    +0.266 A 
ATOM     11  O   UNL     1       3.354   2.080  -0.019  0.00  0.00    -0.267 OA
ATOM     12  N   UNL     1       1.113   2.046   0.002  0.00  0.00    -0.313 N 
ATOM     13  H   UNL     1       1.056   3.015   0.008  0.00  0.00    +0.170 HD
ATOM     14  C   UNL     1      -0.015   1.292   0.009  0.00  0.00    +0.199 A 
ATOM     15  N   UNL     1       0.002  -0.004   0.002  0.00  0.00    -0.236 NA
ENDROOT
BRANCH   1  18
ATOM     16  C   UNL     1      -3.286  -2.602  -0.471  0.00  0.00    +0.042 A 
ATOM     17  C   UNL     1      -2.086  -3.235  -0.845  0.00  0.00    +0.050 A 
ATOM     18  C   UNL     1      -1.120  -2.773  -0.003  0.00  0.00    +0.136 A 
ATOM     19  O   UNL     1      -1.689  -1.892   0.843  0.00  0.00    -0.463 OA
ATOM     20  C   UNL     1      -2.998  -1.786   0.563  0.00  0.00    +0.196 A 
ENDBRANCH   1  18
BRANCH   3  21
ATOM     21  C   UNL     1       2.390  -6.318  -0.059  0.00  0.00    +0.434 C 
ATOM     22  F   UNL     1       2.496  -6.760  -1.382  0.00  0.00    -0.164 F 
ATOM     23  F   UNL     1       3.620  -6.479   0.587  0.00  0.00    -0.164 F 
ATOM     24  F   UNL     1       1.412  -7.066   0.606  0.00  0.00    -0.164 F 
ENDBRANCH   3  21
TORSDOF 2
