REMARK  Name = ZINC65432568
REMARK  9 active torsions:
REMARK  status: ('A' for Active; 'I' for Inactive)
REMARK    1  A    between atoms: C_1  and  C_2
REMARK    2  A    between atoms: C_3  and  C_9
REMARK    3  A    between atoms: C_4  and  C_8
REMARK    4  A    between atoms: N_5  and  C_7
REMARK    5  A    between atoms: C_9  and  C_10
REMARK    6  A    between atoms: C_10  and  N_11
REMARK    7  A    between atoms: C_16  and  C_22
REMARK    8  A    between atoms: C_18  and  C_20
REMARK    9  A    between atoms: C_18  and  C_21
REMARK                            x       y       z     vdW  Elec       q    Type
REMARK                         _______ _______ _______ _____ _____    ______ ____
ROOT
ATOM      1  N   UNL     1       1.418   0.295  -4.449  0.00  0.00    -0.299 N 
ATOM      2  C   UNL     1       2.579   0.528  -5.093  0.00  0.00    +0.302 C 
ATOM      3  O   UNL     1       3.634   0.444  -4.495  0.00  0.00    -0.253 OA
ATOM      4  N   UNL     1       2.569   0.855  -6.400  0.00  0.00    -0.280 N 
ATOM      5  C   UNL     1       1.303   1.082  -7.116  0.00  0.00    +0.140 C 
ATOM      6  C   UNL     1       1.398   2.421  -7.855  0.00  0.00    +0.133 C 
ATOM      7  O   UNL     1       2.588   2.438  -8.648  0.00  0.00    -0.368 OA
ATOM      8  C   UNL     1       3.797   2.341  -7.891  0.00  0.00    +0.080 C 
ATOM      9  C   UNL     1       3.825   1.003  -7.153  0.00  0.00    +0.143 C 
ATOM     10  C   UNL     1       3.857   3.483  -6.875  0.00  0.00    +0.043 C 
ATOM     11  C   UNL     1       4.998   2.432  -8.835  0.00  0.00    +0.043 C 
ATOM     12  C   UNL     1       0.177   2.593  -8.761  0.00  0.00    +0.039 C 
ATOM     13  H   UNL     1       0.573   0.433  -4.905  0.00  0.00    +0.150 HD
ENDROOT
BRANCH   1  14
ATOM     14  C   UNL     1       1.432  -0.166  -3.058  0.00  0.00    +0.110 C 
BRANCH  14  15
ATOM     15  C   UNL     1      -0.005  -0.352  -2.568  0.00  0.00    +0.057 C 
BRANCH  15  18
ATOM     16  C   UNL     1      -0.027   1.494   0.007  0.00  0.00    +0.068 C 
ATOM     17  C   UNL     1      -0.001  -0.012  -0.000  0.00  0.00    +0.063 A 
ATOM     18  C   UNL     1       0.009  -0.827  -1.138  0.00  0.00    -0.003 A 
ATOM     19  C   UNL     1       0.034  -2.116  -0.727  0.00  0.00    +0.039 A 
ATOM     20  N   UNL     1       0.039  -2.117   0.623  0.00  0.00    -0.271 N 
ATOM     21  N   UNL     1       0.022  -0.785   1.056  0.00  0.00    -0.176 NA
ATOM     22  C   UNL     1       0.063  -3.302   1.484  0.00  0.00    +0.172 C 
ATOM     23  C   UNL     1       0.052  -3.332  -1.616  0.00  0.00    +0.065 C 
ENDBRANCH  15  18
ENDBRANCH  14  15
ENDBRANCH   1  14
TORSDOF 3
