REMARK  Name = ZINC02792339
REMARK  11 active torsions:
REMARK  status: ('A' for Active; 'I' for Inactive)
REMARK    1  A    between atoms: C_1  and  C_2
REMARK    2  A    between atoms: C_4  and  C_36
REMARK    3  A    between atoms: N_5  and  C_7
REMARK    4  A    between atoms: C_7  and  C_8
REMARK    5  A    between atoms: C_10  and  C_16
REMARK    6  A    between atoms: C_13  and  O_14
REMARK    7  A    between atoms: O_14  and  C_15
REMARK    8  A    between atoms: C_19  and  C_35
REMARK    9  A    between atoms: N_21  and  C_29
REMARK   10  A    between atoms: C_24  and  N_28
REMARK   11  A    between atoms: C_25  and  C_26
REMARK                            x       y       z     vdW  Elec       q    Type
REMARK                         _______ _______ _______ _____ _____    ______ ____
ROOT
ATOM      1  C   UNL     1       5.277   0.595  -1.609  0.00  0.00    +0.101 C 
ATOM      2  C   UNL     1       3.840   0.406  -1.197  0.00  0.00    +0.050 A 
ATOM      3  C   UNL     1       3.281  -0.564  -0.374  0.00  0.00    +0.068 A 
ATOM      4  N   UNL     1       1.990  -0.342  -0.296  0.00  0.00    -0.168 NA
ATOM      5  N   UNL     1       1.685   0.786  -1.074  0.00  0.00    -0.200 N 
ATOM      6  C   UNL     1       2.836   1.229  -1.624  0.00  0.00    +0.230 A 
ATOM      7  O   UNL     1       3.054   2.283  -2.449  0.00  0.00    -0.423 OA
ATOM      8  C   UNL     1       4.330   2.676  -2.636  0.00  0.00    +0.200 C 
ATOM      9  C   UNL     1       5.404   1.942  -2.272  0.00  0.00    +0.098 C 
ATOM     10  C   UNL     1       4.029  -1.679   0.310  0.00  0.00    +0.068 C 
ENDROOT
BRANCH   1  13
ATOM     11  C   UNL     1       7.068  -2.329  -3.187  0.00  0.00    +0.016 A 
ATOM     12  C   UNL     1       6.706  -1.344  -2.289  0.00  0.00    +0.013 A 
ATOM     13  C   UNL     1       5.670  -0.479  -2.590  0.00  0.00    -0.034 A 
ATOM     14  C   UNL     1       4.991  -0.601  -3.789  0.00  0.00    +0.008 A 
ATOM     15  C   UNL     1       5.353  -1.580  -4.692  0.00  0.00    +0.046 A 
ATOM     16  C   UNL     1       6.392  -2.450  -4.392  0.00  0.00    +0.125 A 
BRANCH  16  17
ATOM     17  O   UNL     1       6.746  -3.419  -5.277  0.00  0.00    -0.495 OA
ATOM     18  C   UNL     1       6.006  -3.484  -6.498  0.00  0.00    +0.277 C 
ENDBRANCH  16  17
BRANCH  11  19
ATOM     19  C   UNL     1       8.196  -3.272  -2.858  0.00  0.00    +0.182 C 
BRANCH  19  24
ATOM     20  C   UNL     1       6.196  -7.869  -2.600  0.00  0.00    +0.067 C 
ATOM     21  C   UNL     1       6.773  -6.529  -2.224  0.00  0.00    +0.060 A 
ATOM     22  C   UNL     1       6.963  -6.054  -0.922  0.00  0.00    +0.047 A 
ATOM     23  C   UNL     1       7.503  -4.816  -1.005  0.00  0.00    +0.037 A 
ATOM     24  N   UNL     1       7.649  -4.517  -2.313  0.00  0.00    -0.264 N 
ATOM     25  N   UNL     1       7.178  -5.606  -3.059  0.00  0.00    -0.176 NA
ATOM     26  C   UNL     1       7.874  -3.929   0.155  0.00  0.00    +0.065 C 
ENDBRANCH  19  24
ENDBRANCH  11  19
ENDBRANCH   1  13
BRANCH   5  27
ATOM     27  C   UNL     1       0.413   1.348  -1.252  0.00  0.00    +0.069 A 
ATOM     28  C   UNL     1      -0.708   0.530  -1.304  0.00  0.00    +0.028 A 
ATOM     29  C   UNL     1      -1.959   1.086  -1.485  0.00  0.00    +0.002 A 
ATOM     30  C   UNL     1      -2.097   2.457  -1.604  0.00  0.00    +0.000 A 
ATOM     31  C   UNL     1      -0.983   3.274  -1.552  0.00  0.00    +0.002 A 
ATOM     32  C   UNL     1       0.271   2.723  -1.377  0.00  0.00    +0.028 A 
ENDBRANCH   5  27
BRANCH   8  33
ATOM     33  N   UNL     1       4.551   3.893  -3.231  0.00  0.00    -0.328 N 
ATOM     34  H   UNL     1       5.580   4.245  -3.399  0.00  0.00    +0.145 HD
ATOM     35  H   UNL     1       3.699   4.517  -3.541  0.00  0.00    +0.145 HD
ENDBRANCH   8  33
BRANCH   9  36
ATOM     36  C   UNL     1       6.714   2.467  -2.517  0.00  0.00    +0.101 C 
ATOM     37  N   UNL     1       7.753   2.883  -2.712  0.00  0.00    -0.191 NA
ENDBRANCH   9  36
TORSDOF 7
