REMARK  Name = ZINC39330392
REMARK  1 active torsions:
REMARK  status: ('A' for Active; 'I' for Inactive)
REMARK    1  A    between atoms: C_7  and  C_9
REMARK                            x       y       z     vdW  Elec       q    Type
REMARK                         _______ _______ _______ _____ _____    ______ ____
ROOT
ATOM      1  C   UNL     1      -0.019   1.560   0.011  0.00  0.00    +0.015 C 
ATOM      2  C   UNL     1       1.472   2.006  -0.001  0.00  0.00    +0.045 C 
ATOM      3  C   UNL     1       2.255   0.722  -0.219  0.00  0.00    +0.181 C 
ATOM      4  C   UNL     1       1.346  -0.293   0.580  0.00  0.00    +0.050 C 
ATOM      5  C   UNL     1       0.002  -0.004   0.002  0.00  0.00    +0.059 C 
ATOM      6  C   UNL     1       2.202  -1.510   0.485  0.00  0.00    +0.128 C 
ATOM      7  C   UNL     1       3.613  -0.901   0.437  0.00  0.00    +0.308 C 
ATOM      8  O   UNL     1       4.652  -1.518   0.405  0.00  0.00    -0.251 OA
ATOM      9  O   UNL     1       3.493   0.472   0.428  0.00  0.00    -0.461 OA
ENDROOT
BRANCH   5  10
ATOM     10  C   UNL     1      -0.107  -0.537  -1.403  0.00  0.00    +0.227 C 
ATOM     11  O   UNL     1      -1.016  -1.274  -1.701  0.00  0.00    -0.301 OA
ENDBRANCH   5  10
TORSDOF 1
