REMARK  Name = ZINC07126037
REMARK  1 active torsions:
REMARK  status: ('A' for Active; 'I' for Inactive)
REMARK    1  A    between atoms: C_5  and  C_7
REMARK                            x       y       z     vdW  Elec       q    Type
REMARK                         _______ _______ _______ _____ _____    ______ ____
ROOT
ATOM      1  C   UNL     1       1.229  -2.186  -0.022  0.00  0.00    +0.209 C 
ATOM      2  N   UNL     1       2.353  -2.622  -0.870  0.00  0.00    -0.335 N 
ATOM      3  C   UNL     1       2.091  -3.390  -1.899  0.00  0.00    +0.191 C 
ATOM      4  N   UNL     1       0.852  -3.788  -2.204  0.00  0.00    -0.186 NA
ATOM      5  C   UNL     1      -0.222  -3.455  -1.511  0.00  0.00    +0.196 C 
ATOM      6  N   UNL     1      -0.109  -2.656  -0.409  0.00  0.00    -0.246 N 
ATOM      7  C   UNL     1      -1.373  -2.459   0.129  0.00  0.00    +0.060 A 
ATOM      8  C   UNL     1      -1.837  -1.748   1.227  0.00  0.00    +0.025 A 
ATOM      9  C   UNL     1      -3.186  -1.736   1.521  0.00  0.00    +0.002 A 
ATOM     10  C   UNL     1      -4.079  -2.431   0.724  0.00  0.00    +0.002 A 
ATOM     11  C   UNL     1      -3.629  -3.142  -0.370  0.00  0.00    +0.025 A 
ATOM     12  C   UNL     1      -2.275  -3.161  -0.674  0.00  0.00    +0.055 A 
ATOM     13  N   UNL     1      -1.540  -3.771  -1.684  0.00  0.00    -0.285 N 
ATOM     14  N   UNL     1       3.136  -3.804  -2.700  0.00  0.00    -0.329 N 
ATOM     15  H   UNL     1      -1.902  -4.326  -2.392  0.00  0.00    +0.155 HD
ATOM     16  H   UNL     1       4.043  -3.526  -2.497  0.00  0.00    +0.145 HD
ATOM     17  H   UNL     1       2.964  -4.373  -3.467  0.00  0.00    +0.145 HD
ATOM     18  H   UNL     1       3.262  -2.347  -0.671  0.00  0.00    +0.164 HD
ENDROOT
BRANCH   1  23
ATOM     19  C   UNL     1       0.286   1.387  -0.797  0.00  0.00    +0.000 A 
ATOM     20  C   UNL     1       1.172   2.086   0.002  0.00  0.00    +0.001 A 
ATOM     21  C   UNL     1       2.075   1.403   0.794  0.00  0.00    +0.015 A 
ATOM     22  C   UNL     1       2.094   0.020   0.787  0.00  0.00    +0.025 A 
ATOM     23  C   UNL     1       1.208  -0.679  -0.013  0.00  0.00    +0.007 A 
ATOM     24  C   UNL     1       0.305   0.005  -0.805  0.00  0.00    +0.008 A 
ATOM     25 BR   UNL     1       3.330  -0.915   1.870  0.00  0.00    -0.050 Br
ENDBRANCH   1  23
TORSDOF 1
