REMARK  Name = ZINC02501505
REMARK  9 active torsions:
REMARK  status: ('A' for Active; 'I' for Inactive)
REMARK    1  A    between atoms: C_1  and  C_2
REMARK    2  A    between atoms: C_3  and  C_23
REMARK    3  A    between atoms: C_4  and  C_16
REMARK    4  A    between atoms: C_10  and  C_14
REMARK    5  A    between atoms: C_10  and  C_15
REMARK    6  A    between atoms: C_20  and  O_22
REMARK    7  A    between atoms: C_23  and  O_25
REMARK    8  A    between atoms: O_25  and  C_26
REMARK    9  A    between atoms: C_26  and  C_27
REMARK                            x       y       z     vdW  Elec       q    Type
REMARK                         _______ _______ _______ _____ _____    ______ ____
ROOT
ATOM      1  C   UNL     1      -0.018   1.503   0.010  0.00  0.00    +0.061 C 
ATOM      2  C   UNL     1       0.002  -0.004   0.002  0.00  0.00    +0.016 C 
ATOM      3  C   UNL     1      -1.155  -0.687   0.004  0.00  0.00    +0.065 C 
ATOM      4  C   UNL     1      -1.174  -2.188  -0.012  0.00  0.00    +0.092 C 
ATOM      5  C   UNL     1       0.164  -2.749   0.399  0.00  0.00    +0.024 C 
ATOM      6  C   UNL     1       1.272  -1.979   0.376  0.00  0.00    +0.016 C 
ATOM      7  N   UNL     1       1.198  -0.667  -0.013  0.00  0.00    -0.321 N 
ATOM      8  C   UNL     1       2.616  -2.539   0.768  0.00  0.00    +0.058 C 
ATOM      9  C   UNL     1       2.429  -3.633   1.822  0.00  0.00    -0.023 C 
ATOM     10  C   UNL     1       1.521  -4.720   1.240  0.00  0.00    +0.086 C 
ATOM     11  C   UNL     1       0.224  -4.094   0.806  0.00  0.00    +0.162 C 
ATOM     12  O   UNL     1      -0.791  -4.762   0.808  0.00  0.00    -0.292 OA
ATOM     13  C   UNL     1       1.780  -3.036   3.073  0.00  0.00    +0.011 C 
ATOM     14  C   UNL     1       3.788  -4.237   2.183  0.00  0.00    +0.011 C 
ATOM     15  H   UNL     1       2.000  -0.203  -0.298  0.00  0.00    +0.152 HD
ENDROOT
BRANCH   4  16
ATOM     16  C   UNL     1      -1.503  -2.664  -1.404  0.00  0.00    -0.032 A 
ATOM     17  C   UNL     1      -0.678  -2.328  -2.462  0.00  0.00    +0.005 A 
ATOM     18  C   UNL     1      -0.977  -2.764  -3.739  0.00  0.00    +0.004 A 
ATOM     19  C   UNL     1      -2.102  -3.534  -3.962  0.00  0.00    +0.045 A 
ATOM     20  C   UNL     1      -2.931  -3.872  -2.903  0.00  0.00    +0.117 A 
ATOM     21  C   UNL     1      -2.625  -3.439  -1.620  0.00  0.00    +0.050 A 
BRANCH  20  22
ATOM     22  O   UNL     1      -4.037  -4.631  -3.119  0.00  0.00    -0.507 OA
ATOM     23  H   UNL     1      -3.883  -5.582  -3.044  0.00  0.00    +0.292 HD
ENDBRANCH  20  22
ENDBRANCH   4  16
BRANCH   3  24
ATOM     24  C   UNL     1      -2.380   0.021   0.021  0.00  0.00    +0.338 C 
ATOM     25  O   UNL     1      -2.378   1.238   0.035  0.00  0.00    -0.245 OA
BRANCH  24  26
ATOM     26  O   UNL     1      -3.549  -0.652   0.024  0.00  0.00    -0.459 OA
BRANCH  26  27
ATOM     27  C   UNL     1      -4.746   0.128   0.042  0.00  0.00    +0.264 C 
BRANCH  27  28
ATOM     28  C   UNL     1      -5.961  -0.803   0.041  0.00  0.00    +0.156 C 
ATOM     29  C   UNL     1      -7.269   0.021   0.152  0.00  0.00    +0.037 C 
ATOM     30  C   UNL     1      -8.287  -0.955  -0.497  0.00  0.00    +0.031 C 
ATOM     31  C   UNL     1      -7.434  -1.643  -1.585  0.00  0.00    +0.160 C 
ATOM     32  O   UNL     1      -6.057  -1.496  -1.213  0.00  0.00    -0.373 OA
ENDBRANCH  27  28
ENDBRANCH  26  27
ENDBRANCH  24  26
ENDBRANCH   3  24
TORSDOF 6
