REMARK  Name = ZINC08645137
REMARK  6 active torsions:
REMARK  status: ('A' for Active; 'I' for Inactive)
REMARK    1  A    between atoms: C_1  and  C_2
REMARK    2  A    between atoms: C_2  and  C_3
REMARK    3  A    between atoms: C_7  and  C_14
REMARK    4  A    between atoms: C_14  and  N_15
REMARK    5  A    between atoms: C_18  and  C_22
REMARK    6  A    between atoms: C_18  and  C_23
REMARK                            x       y       z     vdW  Elec       q    Type
REMARK                         _______ _______ _______ _____ _____    ______ ____
ROOT
ATOM      1  N   UNL     1       1.704   4.047  -1.363  0.00  0.00    -0.220 N 
ATOM      2  C   UNL     1       0.721   4.324  -2.242  0.00  0.00    +0.251 C 
ATOM      3  O   UNL     1      -0.469   4.153  -2.087  0.00  0.00    -0.272 OA
ATOM      4  C   UNL     1       1.413   4.894  -3.464  0.00  0.00    +0.136 C 
ATOM      5  N   UNL     1       2.839   4.870  -3.097  0.00  0.00    -0.281 N 
ATOM      6  C   UNL     1       2.908   4.364  -1.853  0.00  0.00    +0.310 C 
ATOM      7  O   UNL     1       3.947   4.210  -1.242  0.00  0.00    -0.252 OA
ATOM      8  C   UNL     1       0.949   6.328  -3.726  0.00  0.00    +0.047 C 
ATOM      9  H   UNL     1       3.584   5.165  -3.645  0.00  0.00    +0.152 HD
ENDROOT
BRANCH   4  10
ATOM     10  C   UNL     1       1.161   4.025  -4.670  0.00  0.00    -0.008 A 
ATOM     11  C   UNL     1       2.198   3.404  -5.294  0.00  0.00    +0.007 A 
ATOM     12  C   UNL     1       1.984   2.592  -6.406  0.00  0.00    +0.001 A 
ATOM     13  C   UNL     1       0.732   2.406  -6.908  0.00  0.00    +0.008 A 
ATOM     14  C   UNL     1      -0.363   3.036  -6.293  0.00  0.00    -0.018 A 
ATOM     15  C   UNL     1      -0.146   3.857  -5.158  0.00  0.00    -0.012 A 
ATOM     16  C   UNL     1      -1.242   4.488  -4.544  0.00  0.00    +0.009 A 
ATOM     17  C   UNL     1      -2.493   4.302  -5.046  0.00  0.00    +0.001 A 
ATOM     18  C   UNL     1      -2.707   3.495  -6.162  0.00  0.00    +0.001 A 
ATOM     19  C   UNL     1      -1.670   2.869  -6.782  0.00  0.00    +0.008 A 
ENDBRANCH   4  10
BRANCH   1  20
ATOM     20  C   UNL     1       1.481   3.475  -0.033  0.00  0.00    +0.154 C 
BRANCH  20  25
ATOM     21  C   UNL     1       1.510  -0.415   3.387  0.00  0.00    -0.044 A 
ATOM     22  C   UNL     1       1.375   0.962   3.491  0.00  0.00    +0.004 A 
ATOM     23  C   UNL     1       1.409   1.748   2.374  0.00  0.00    +0.012 A 
ATOM     24  C   UNL     1       1.581   1.160   1.117  0.00  0.00    +0.022 A 
ATOM     25  C   UNL     1       1.622   1.976  -0.100  0.00  0.00    -0.012 A 
ATOM     26  C   UNL     1       1.792   1.345  -1.289  0.00  0.00    +0.098 A 
ATOM     27  C   UNL     1       1.922  -0.061  -1.325  0.00  0.00    +0.338 A 
ATOM     28  O   UNL     1       2.073  -0.615  -2.398  0.00  0.00    -0.245 OA
ATOM     29  O   UNL     1       1.883  -0.801  -0.206  0.00  0.00    -0.422 OA
ATOM     30  C   UNL     1       1.717  -0.234   1.008  0.00  0.00    +0.140 A 
ATOM     31  C   UNL     1       1.680  -1.015   2.157  0.00  0.00    +0.050 A 
BRANCH  21  33
ATOM     32  C   UNL     1       2.886  -1.423   5.187  0.00  0.00    +0.009 C 
ATOM     33  C   UNL     1       1.469  -1.265   4.631  0.00  0.00    +0.032 C 
ENDBRANCH  21  33
ENDBRANCH  20  25
ENDBRANCH   1  20
TORSDOF 4
