REMARK  Name = ZINC33064792
REMARK  4 active torsions:
REMARK  status: ('A' for Active; 'I' for Inactive)
REMARK    1  A    between atoms: C_4  and  C_23
REMARK    2  A    between atoms: C_6  and  N_7
REMARK    3  A    between atoms: C_8  and  C_10
REMARK    4  A    between atoms: C_11  and  C_12
REMARK                            x       y       z     vdW  Elec       q    Type
REMARK                         _______ _______ _______ _____ _____    ______ ____
ROOT
ATOM      1  N   UNL     1      -2.405   1.077   0.019  0.00  0.00    -0.282 N 
ATOM      2  C   UNL     1      -1.262   1.770  -0.151  0.00  0.00    +0.241 C 
ATOM      3  O   UNL     1      -1.298   2.978  -0.301  0.00  0.00    -0.270 OA
ATOM      4  H   UNL     1      -2.381  -0.022   0.068  0.00  0.00    +0.155 HD
ENDROOT
BRANCH   1  10
ATOM      5  C   UNL     1      -3.670   2.999   0.753  0.00  0.00    +0.026 A 
ATOM      6  C   UNL     1      -4.869   3.678   0.865  0.00  0.00    +0.041 A 
ATOM      7  C   UNL     1      -6.033   3.118   0.372  0.00  0.00    +0.136 A 
ATOM      8  C   UNL     1      -5.997   1.864  -0.247  0.00  0.00    +0.073 A 
ATOM      9  C   UNL     1      -4.784   1.185  -0.364  0.00  0.00    +0.039 A 
ATOM     10  C   UNL     1      -3.624   1.756   0.134  0.00  0.00    +0.035 A 
ATOM     11  F   UNL     1      -7.204   3.781   0.488  0.00  0.00    -0.205 F 
BRANCH   8  12
ATOM     12  C   UNL     1      -7.238   1.263  -0.776  0.00  0.00    +0.244 C 
ATOM     13  O   UNL     1      -8.294   1.857  -0.673  0.00  0.00    -0.270 OA
ATOM     14  N   UNL     1      -7.200   0.055  -1.373  0.00  0.00    -0.325 N 
ATOM     15  H   UNL     1      -8.124  -0.393  -1.766  0.00  0.00    +0.145 HD
ATOM     16  H   UNL     1      -6.245  -0.483  -1.466  0.00  0.00    +0.145 HD
ENDBRANCH   8  12
ENDBRANCH   1  10
BRANCH   2  17
ATOM     17  C   UNL     1      -0.019   1.093  -0.156  0.00  0.00    +0.068 C 
ATOM     18  C   UNL     1       1.133   1.790  -0.333  0.00  0.00    +0.012 C 
BRANCH  18  19
ATOM     19  C   UNL     1       2.371   1.115  -0.343  0.00  0.00    -0.010 C 
ATOM     20  C   UNL     1       3.527   1.809  -0.526  0.00  0.00    +0.018 C 
ATOM     21  C   UNL     1       4.787   1.053  -0.542  0.00  0.00    +0.018 A 
ATOM     22  C   UNL     1       6.020   1.686  -0.384  0.00  0.00    +0.031 A 
ATOM     23  C   UNL     1       7.178   0.934  -0.410  0.00  0.00    +0.042 A 
ATOM     24  C   UNL     1       7.117  -0.439  -0.590  0.00  0.00    +0.023 A 
ATOM     25  C   UNL     1       5.900  -1.076  -0.748  0.00  0.00    +0.048 A 
ATOM     26  C   UNL     1       4.729  -0.340  -0.726  0.00  0.00    +0.128 A 
ATOM     27  O   UNL     1       3.521  -0.936  -0.879  0.00  0.00    -0.487 OA
ATOM     28  C   UNL     1       2.421  -0.379  -0.158  0.00  0.00    +0.264 C 
ATOM     29 CL   UNL     1       8.717   1.713  -0.214  0.00  0.00    -0.084 Cl
ENDBRANCH  18  19
ENDBRANCH   2  17
TORSDOF 4
