REMARK  Name = ZINC64471147
REMARK  5 active torsions:
REMARK  status: ('A' for Active; 'I' for Inactive)
REMARK    1  A    between atoms: C_1  and  C_2
REMARK    2  A    between atoms: N_5  and  C_8
REMARK    3  A    between atoms: C_11  and  C_14
REMARK    4  A    between atoms: C_17  and  C_21
REMARK    5  A    between atoms: C_29  and  C_31
REMARK                            x       y       z     vdW  Elec       q    Type
REMARK                         _______ _______ _______ _____ _____    ______ ____
ROOT
ATOM      1  C   UNL     1      -1.025  -7.596   1.800  0.00  0.00    +0.180 C 
ATOM      2  N   UNL     1      -2.230  -8.143   2.481  0.00  0.00    -0.262 NA
ATOM      3  C   UNL     1      -2.336  -9.509   1.908  0.00  0.00    +0.298 C 
ATOM      4  O   UNL     1      -1.954  -9.361   0.528  0.00  0.00    -0.270 OA
ATOM      5  N   UNL     1      -1.109  -8.159   0.432  0.00  0.00    -0.177 NA
ATOM      6  H   UNL     1      -2.095  -8.179   3.481  0.00  0.00    +0.127 HD
ATOM      7  H   UNL     1      -1.504  -7.490  -0.211  0.00  0.00    +0.156 HD
ENDROOT
BRANCH   3   8
ATOM      8  C   UNL     1      -3.752 -10.014   2.012  0.00  0.00    +0.262 C 
ATOM      9  O   UNL     1      -4.426 -10.138   1.012  0.00  0.00    -0.271 OA
ATOM     10  N   UNL     1      -4.269 -10.327   3.217  0.00  0.00    -0.295 N 
ATOM     11  C   UNL     1      -3.465 -10.175   4.438  0.00  0.00    +0.127 C 
ATOM     12  C   UNL     1      -4.230  -9.279   5.420  0.00  0.00    +0.127 C 
ATOM     13  N   UNL     1      -5.607  -9.777   5.536  0.00  0.00    -0.295 N 
ATOM     14  C   UNL     1      -6.411  -9.928   4.315  0.00  0.00    +0.127 C 
ATOM     15  C   UNL     1      -5.649 -10.819   3.333  0.00  0.00    +0.127 C 
ATOM     16  C   UNL     1      -6.125 -10.090   6.740  0.00  0.00    +0.246 C 
ATOM     17  O   UNL     1      -7.293 -10.411   6.835  0.00  0.00    -0.270 OA
BRANCH  16  18
ATOM     18  C   UNL     1      -5.270 -10.043   7.947  0.00  0.00    +0.035 C 
ATOM     19  C   UNL     1      -5.041  -8.845   8.533  0.00  0.00    +0.017 C 
ATOM     20  C   UNL     1      -4.105  -8.779   9.703  0.00  0.00    +0.159 C 
ATOM     21  C   UNL     1      -4.157 -10.120  10.410  0.00  0.00    -0.018 C 
ATOM     22  C   UNL     1      -4.332  -9.833  11.712  0.00  0.00    +0.025 C 
ATOM     23  C   UNL     1      -4.556  -8.445  11.860  0.00  0.00    +0.106 C 
ATOM     24  N   UNL     1      -4.468  -7.808  10.725  0.00  0.00    -0.279 NA
ATOM     25  C   UNL     1      -4.169 -11.344   9.713  0.00  0.00    +0.007 C 
ATOM     26  C   UNL     1      -4.711 -11.297   8.463  0.00  0.00    +0.013 C 
ENDBRANCH  16  18
ENDBRANCH   3   8
BRANCH   1  30
ATOM     27  C   UNL     1      -1.174  -3.329   1.680  0.00  0.00    +0.013 A 
ATOM     28  C   UNL     1      -0.562  -4.028   0.656  0.00  0.00    +0.022 A 
ATOM     29  C   UNL     1      -0.514  -5.409   0.695  0.00  0.00    +0.008 A 
ATOM     30  C   UNL     1      -1.077  -6.091   1.758  0.00  0.00    -0.014 A 
ATOM     31  C   UNL     1      -1.687  -5.391   2.783  0.00  0.00    +0.008 A 
ATOM     32  C   UNL     1      -1.732  -4.010   2.746  0.00  0.00    +0.022 A 
BRANCH  27  37
ATOM     33  C   UNL     1      -0.796   2.168   0.508  0.00  0.00    +0.007 C 
ATOM     34  C   UNL     1      -0.678   0.645   0.434  0.00  0.00    -0.011 C 
ATOM     35  C   UNL     1      -2.076   0.022   0.433  0.00  0.00    +0.020 C 
ATOM     36  C   UNL     1      -1.950  -1.503   0.440  0.00  0.00    +0.085 C 
ATOM     37  N   UNL     1      -1.222  -1.932   1.641  0.00  0.00    -0.393 NA
ATOM     38  C   UNL     1       0.144  -1.397   1.613  0.00  0.00    +0.085 C 
ATOM     39  C   UNL     1       0.098   0.132   1.651  0.00  0.00    +0.020 C 
ATOM     40  H   UNL     1      -1.700  -1.591   2.462  0.00  0.00    +0.126 HD
ENDBRANCH  27  37
ENDBRANCH   1  30
TORSDOF 4
