REMARK  Name = ZINC39359349
REMARK  9 active torsions:
REMARK  status: ('A' for Active; 'I' for Inactive)
REMARK    1  A    between atoms: C_1  and  O_2
REMARK    2  A    between atoms: O_2  and  C_3
REMARK    3  A    between atoms: C_5  and  C_13
REMARK    4  A    between atoms: C_7  and  O_11
REMARK    5  A    between atoms: C_8  and  O_9
REMARK    6  A    between atoms: O_9  and  C_10
REMARK    7  A    between atoms: O_11  and  C_12
REMARK    8  A    between atoms: C_18  and  C_28
REMARK    9  A    between atoms: C_21  and  O_27
REMARK                            x       y       z     vdW  Elec       q    Type
REMARK                         _______ _______ _______ _____ _____    ______ ____
ROOT
ATOM      1  C   UNL     1       2.462   0.340   4.203  0.00  0.00    +0.032 C 
ATOM      2  C   UNL     1       1.820  -0.012   5.546  0.00  0.00    +0.059 C 
ATOM      3  C   UNL     1       2.465   0.802   6.650  0.00  0.00    +0.014 C 
ATOM      4  C   UNL     1       3.767   1.145   6.565  0.00  0.00    +0.023 C 
ATOM      5  C   UNL     1       4.472   1.933   7.659  0.00  0.00    +0.089 C 
ATOM      6  C   UNL     1       3.411   2.424   8.598  0.00  0.00    +0.048 C 
ATOM      7  C   UNL     1       3.200   3.550   9.242  0.00  0.00    +0.235 C 
ATOM      8  N   UNL     1       1.993   3.513   9.871  0.00  0.00    -0.114 NA
ATOM      9  N   UNL     1       1.385   2.441   9.748  0.00  0.00    -0.157 NA
ATOM     10  C   UNL     1       2.230   1.526   8.979  0.00  0.00    +0.245 C 
ATOM     11  N   UNL     1       1.641   1.151   7.692  0.00  0.00    -0.321 N 
ATOM     12  C   UNL     1       4.544   0.795   5.448  0.00  0.00    +0.162 C 
ATOM     13  O   UNL     1       5.716   1.116   5.416  0.00  0.00    -0.292 OA
ATOM     14  C   UNL     1       3.961   0.033   4.290  0.00  0.00    +0.088 C 
ATOM     15  H   UNL     1       0.678   1.149   7.576  0.00  0.00    +0.148 HD
ENDROOT
BRANCH   5  16
ATOM     16  C   UNL     1       5.439   1.041   8.393  0.00  0.00    -0.035 A 
ATOM     17  C   UNL     1       4.979  -0.090   9.043  0.00  0.00    +0.006 A 
ATOM     18  C   UNL     1       5.866  -0.908   9.717  0.00  0.00    +0.020 A 
ATOM     19  C   UNL     1       7.213  -0.597   9.741  0.00  0.00    +0.041 A 
ATOM     20  C   UNL     1       7.673   0.535   9.091  0.00  0.00    +0.020 A 
ATOM     21  C   UNL     1       6.786   1.350   8.413  0.00  0.00    +0.006 A 
ATOM     22 CL   UNL     1       8.327  -1.624  10.588  0.00  0.00    -0.084 Cl
ENDBRANCH   5  16
BRANCH   1  25
ATOM     23  C   UNL     1       0.626  -0.619   1.042  0.00  0.00    +0.165 A 
ATOM     24  C   UNL     1       1.202   0.138   2.051  0.00  0.00    +0.053 A 
ATOM     25  C   UNL     1       1.837  -0.486   3.109  0.00  0.00    -0.036 A 
ATOM     26  C   UNL     1       1.900  -1.866   3.166  0.00  0.00    +0.053 A 
ATOM     27  C   UNL     1       1.327  -2.630   2.160  0.00  0.00    +0.165 A 
ATOM     28  C   UNL     1       0.683  -2.006   1.098  0.00  0.00    +0.204 A 
BRANCH  23  30
ATOM     29  C   UNL     1      -0.017   1.425   0.010  0.00  0.00    +0.277 C 
ATOM     30  O   UNL     1       0.002  -0.004   0.002  0.00  0.00    -0.491 OA
ENDBRANCH  23  30
BRANCH  28  31
ATOM     31  O   UNL     1       0.114  -2.753   0.113  0.00  0.00    -0.488 OA
ATOM     32  C   UNL     1       0.939  -3.090  -1.004  0.00  0.00    +0.277 C 
ENDBRANCH  28  31
BRANCH  27  33
ATOM     33  O   UNL     1       1.390  -3.987   2.217  0.00  0.00    -0.491 OA
ATOM     34  C   UNL     1       2.062  -4.559   3.340  0.00  0.00    +0.277 C 
ENDBRANCH  27  33
ENDBRANCH   1  25
BRANCH   7  35
ATOM     35  O   UNL     1       4.061   4.601   9.276  0.00  0.00    -0.491 OA
ATOM     36  H   UNL     1       3.747   5.351   9.798  0.00  0.00    +0.294 HD
ENDBRANCH   7  35
TORSDOF 6
