REMARK  Name = ZINC59165116
REMARK  6 active torsions:
REMARK  status: ('A' for Active; 'I' for Inactive)
REMARK    1  A    between atoms: C_3  and  C_8
REMARK    2  A    between atoms: N_10  and  N_11
REMARK    3  A    between atoms: C_12  and  C_13
REMARK    4  A    between atoms: C_14  and  O_21
REMARK    5  A    between atoms: C_16  and  O_20
REMARK    6  A    between atoms: C_18  and  O_19
REMARK                            x       y       z     vdW  Elec       q    Type
REMARK                         _______ _______ _______ _____ _____    ______ ____
ROOT
ATOM      1  N   UNL     1       6.036   2.217  -0.045  0.00  0.00    -0.187 NA
ATOM      2  C   UNL     1       7.169   1.581  -0.059  0.00  0.00    +0.145 C 
ENDROOT
BRANCH   2   3
ATOM      3  C   UNL     1       8.435   2.332  -0.068  0.00  0.00    +0.078 A 
ATOM      4  C   UNL     1       8.422   3.734  -0.054  0.00  0.00    +0.132 A 
ATOM      5  C   UNL     1       9.616   4.433  -0.063  0.00  0.00    +0.091 A 
ATOM      6  C   UNL     1      10.824   3.749  -0.084  0.00  0.00    +0.124 A 
ATOM      7  C   UNL     1      10.845   2.361  -0.097  0.00  0.00    +0.091 A 
ATOM      8  C   UNL     1       9.659   1.648  -0.083  0.00  0.00    +0.132 A 
BRANCH   8   9
ATOM      9  O   UNL     1       9.681   0.291  -0.089  0.00  0.00    -0.506 OA
ATOM     10  H   UNL     1       9.679  -0.099  -0.975  0.00  0.00    +0.292 HD
ENDBRANCH   8   9
BRANCH   6  11
ATOM     11  O   UNL     1      11.992   4.442  -0.093  0.00  0.00    -0.507 OA
ATOM     12  H   UNL     1      12.342   4.635   0.788  0.00  0.00    +0.292 HD
ENDBRANCH   6  11
BRANCH   4  13
ATOM     13  O   UNL     1       7.241   4.404  -0.034  0.00  0.00    -0.506 OA
ATOM     14  H   UNL     1       6.910   4.590   0.855  0.00  0.00    +0.292 HD
ENDBRANCH   4  13
ENDBRANCH   2   3
BRANCH   1  17
ATOM     15  C   UNL     1       3.656   2.162  -0.022  0.00  0.00    +0.263 C 
ATOM     16  O   UNL     1       3.642   3.378  -0.015  0.00  0.00    -0.268 OA
ATOM     17  N   UNL     1       4.831   1.502  -0.036  0.00  0.00    -0.203 N 
ATOM     18  H   UNL     1       4.843   0.532  -0.042  0.00  0.00    +0.178 HD
BRANCH  15  21
ATOM     19  C   UNL     1      -0.017   1.379   0.010  0.00  0.00    +0.002 A 
ATOM     20  C   UNL     1       1.167   2.088   0.002  0.00  0.00    +0.013 A 
ATOM     21  C   UNL     1       2.385   1.408  -0.013  0.00  0.00    +0.040 A 
ATOM     22  C   UNL     1       2.398   0.012  -0.021  0.00  0.00    +0.033 A 
ATOM     23  C   UNL     1       1.207  -0.686  -0.013  0.00  0.00    +0.042 A 
ATOM     24  C   UNL     1       0.002  -0.004   0.002  0.00  0.00    +0.020 A 
ATOM     25 CL   UNL     1       1.220  -2.422  -0.023  0.00  0.00    -0.084 Cl
ENDBRANCH  15  21
ENDBRANCH   1  17
TORSDOF 6
