REMARK  Name = ZINC04385887
REMARK  5 active torsions:
REMARK  status: ('A' for Active; 'I' for Inactive)
REMARK    1  A    between atoms: C_1  and  C_2
REMARK    2  A    between atoms: C_9  and  S_12
REMARK    3  A    between atoms: S_12  and  C_13
REMARK    4  A    between atoms: C_13  and  C_14
REMARK    5  A    between atoms: C_16  and  C_19
REMARK                            x       y       z     vdW  Elec       q    Type
REMARK                         _______ _______ _______ _____ _____    ______ ____
ROOT
ATOM      1  S   UNL     1       0.094  -5.738   2.540  0.00  0.00    -0.078 S 
ENDROOT
BRANCH   1  10
ATOM      2  C   UNL     1      -0.018   1.503   0.010  0.00  0.00    +0.044 C 
ATOM      3  C   UNL     1       0.002  -0.004   0.002  0.00  0.00    -0.048 A 
ATOM      4  C   UNL     1       0.006  -0.686  -1.206  0.00  0.00    +0.005 A 
ATOM      5  C   UNL     1       0.024  -2.065  -1.230  0.00  0.00    +0.028 A 
ATOM      6  C   UNL     1       0.040  -2.776  -0.040  0.00  0.00    +0.067 A 
ATOM      7  C   UNL     1       0.037  -2.091   1.187  0.00  0.00    +0.090 A 
ATOM      8  C   UNL     1       0.023  -0.694   1.194  0.00  0.00    +0.033 A 
ATOM      9  N   UNL     1       0.055  -3.029   2.169  0.00  0.00    -0.222 NA
ATOM     10  C   UNL     1       0.068  -4.226   1.635  0.00  0.00    +0.168 A 
ATOM     11  N   UNL     1       0.060  -4.126   0.273  0.00  0.00    -0.333 N 
ATOM     12  H   UNL     1       0.066  -4.862  -0.358  0.00  0.00    +0.168 HD
ENDBRANCH   1  10
BRANCH   1  13
ATOM     13  C   UNL     1       0.095  -5.211   4.276  0.00  0.00    +0.176 C 
BRANCH  13  14
ATOM     14  C   UNL     1       0.117  -6.425   5.169  0.00  0.00    +0.238 A 
ATOM     15  N   UNL     1       1.184  -7.019   5.618  0.00  0.00    -0.190 NA
ATOM     16  C   UNL     1       0.838  -8.069   6.387  0.00  0.00    +0.209 A 
ATOM     17  N   UNL     1      -0.472  -8.144   6.427  0.00  0.00    -0.056 NA
ATOM     18  O   UNL     1      -0.960  -7.069   5.638  0.00  0.00    -0.337 OA
BRANCH  16  19
ATOM     19  C   UNL     1       1.776  -8.983   7.071  0.00  0.00    +0.060 A 
ATOM     20  C   UNL     1       1.502 -10.069   7.859  0.00  0.00    +0.019 A 
ATOM     21  C   UNL     1       2.551 -10.780   8.395  0.00  0.00    +0.008 A 
ATOM     22  C   UNL     1       3.824 -10.386   8.127  0.00  0.00    +0.046 A 
ATOM     23  S   UNL     1       3.561  -8.966   7.077  0.00  0.00    -0.093 S 
ENDBRANCH  16  19
ENDBRANCH  13  14
ENDBRANCH   1  13
TORSDOF 4
