REMARK  Name = ZINC41488189
REMARK  8 active torsions:
REMARK  status: ('A' for Active; 'I' for Inactive)
REMARK    1  A    between atoms: C_3  and  C_24
REMARK    2  A    between atoms: C_6  and  C_7
REMARK    3  A    between atoms: C_7  and  N_8
REMARK    4  A    between atoms: N_11  and  C_12
REMARK    5  A    between atoms: C_12  and  C_13
REMARK    6  A    between atoms: C_13  and  N_14
REMARK    7  A    between atoms: N_14  and  C_15
REMARK    8  A    between atoms: C_18  and  N_21
REMARK                            x       y       z     vdW  Elec       q    Type
REMARK                         _______ _______ _______ _____ _____    ______ ____
ROOT
ATOM      1  N   UNL     1      -1.729  -1.013  -1.367  0.00  0.00    -0.295 N 
ATOM      2  C   UNL     1      -2.871  -1.687  -1.606  0.00  0.00    +0.300 C 
ATOM      3  O   UNL     1      -3.542  -2.094  -0.677  0.00  0.00    -0.253 OA
ATOM      4  N   UNL     1      -3.271  -1.909  -2.874  0.00  0.00    -0.298 N 
ATOM      5  H   UNL     1      -1.194  -0.688  -2.108  0.00  0.00    +0.151 HD
ATOM      6  H   UNL     1      -2.735  -1.584  -3.615  0.00  0.00    +0.150 HD
ENDROOT
BRANCH   1   7
ATOM      7  C   UNL     1      -1.295  -0.772   0.011  0.00  0.00    +0.141 C 
BRANCH   7  13
ATOM      8  C   UNL     1      -0.017   1.379   0.010  0.00  0.00    +0.006 A 
ATOM      9  C   UNL     1       1.167   2.088   0.002  0.00  0.00    +0.019 A 
ATOM     10  C   UNL     1       2.385   1.407  -0.013  0.00  0.00    +0.052 A 
ATOM     11  C   UNL     1       2.397   0.011  -0.021  0.00  0.00    +0.019 A 
ATOM     12  C   UNL     1       1.206  -0.686  -0.013  0.00  0.00    +0.006 A 
ATOM     13  C   UNL     1       0.002  -0.004   0.002  0.00  0.00    -0.030 A 
BRANCH  10  14
ATOM     14  C   UNL     1       3.617   2.136  -0.021  0.00  0.00    +0.099 C 
ATOM     15  N   UNL     1       4.595   2.715  -0.028  0.00  0.00    -0.191 NA
ENDBRANCH  10  14
ENDBRANCH   7  13
ENDBRANCH   1   7
BRANCH   4  16
ATOM     16  C   UNL     1      -4.513  -2.641  -3.133  0.00  0.00    +0.124 C 
BRANCH  16  17
ATOM     17  C   UNL     1      -4.732  -2.754  -4.643  0.00  0.00    +0.120 C 
BRANCH  17  18
ATOM     18  N   UNL     1      -5.974  -3.487  -4.902  0.00  0.00    -0.342 N 
ATOM     19  H   UNL     1      -6.509  -3.812  -4.162  0.00  0.00    +0.146 HD
BRANCH  18  20
ATOM     20  C   UNL     1      -6.388  -3.717  -6.216  0.00  0.00    +0.027 A 
ATOM     21  C   UNL     1      -5.620  -3.257  -7.279  0.00  0.00    +0.025 A 
ATOM     22  C   UNL     1      -6.032  -3.487  -8.577  0.00  0.00    +0.034 A 
ATOM     23  C   UNL     1      -7.207  -4.173  -8.820  0.00  0.00    +0.126 A 
ATOM     24  C   UNL     1      -7.974  -4.633  -7.765  0.00  0.00    +0.034 A 
ATOM     25  C   UNL     1      -7.565  -4.411  -6.464  0.00  0.00    +0.025 A 
BRANCH  23  26
ATOM     26  N   UNL     1      -7.646  -4.417 -10.212  0.00  0.00    +0.056 N 
ATOM     27  O   UNL     1      -6.976  -4.016 -11.136  0.00  0.00    -0.126 OA
ATOM     28  O   UNL     1      -8.673  -5.018 -10.426  0.00  0.00    -0.126 OA
ENDBRANCH  23  26
ENDBRANCH  18  20
ENDBRANCH  17  18
ENDBRANCH  16  17
ENDBRANCH   4  16
TORSDOF 8
