REMARK  Name = ZINC61720267
REMARK  4 active torsions:
REMARK  status: ('A' for Active; 'I' for Inactive)
REMARK    1  A    between atoms: C_11  and  C_13
REMARK    2  A    between atoms: C_16  and  O_19
REMARK    3  A    between atoms: O_19  and  C_20
REMARK    4  A    between atoms: C_21  and  C_26
REMARK                            x       y       z     vdW  Elec       q    Type
REMARK                         _______ _______ _______ _____ _____    ______ ____
ROOT
ATOM      1  C   UNL     1      -0.440   1.390  -0.548  0.00  0.00    +0.000 A 
ATOM      2  C   UNL     1       0.655   2.210  -0.753  0.00  0.00    +0.002 A 
ATOM      3  C   UNL     1       1.929   1.682  -0.767  0.00  0.00    +0.023 A 
ATOM      4  C   UNL     1       2.123   0.316  -0.575  0.00  0.00    +0.038 A 
ATOM      5  C   UNL     1       1.014  -0.500  -0.370  0.00  0.00    -0.013 A 
ATOM      6  C   UNL     1      -0.256   0.032  -0.356  0.00  0.00    +0.006 A 
ATOM      7  C   UNL     1       1.554  -1.891  -0.199  0.00  0.00    +0.064 C 
ATOM      8  C   UNL     1       1.168  -2.477   1.169  0.00  0.00    +0.000 C 
ATOM      9  C   UNL     1      -0.036  -3.390   0.820  0.00  0.00    -0.080 C 
ATOM     10  N   UNL     1       0.333  -3.955  -0.504  0.00  0.00    +0.385 N 
ATOM     11  C   UNL     1       0.985  -2.851  -1.247  0.00  0.00    -0.021 C 
ATOM     12  C   UNL     1       3.046  -1.751  -0.330  0.00  0.00    +0.226 C 
ATOM     13  O   UNL     1       3.867  -2.641  -0.255  0.00  0.00    -0.275 OA
ATOM     14  N   UNL     1       3.294  -0.444  -0.546  0.00  0.00    -0.285 N 
ATOM     15  H   UNL     1       0.977  -4.723  -0.388  0.00  0.00    -0.085 HD
ATOM     16  H   UNL     1       4.183  -0.075  -0.667  0.00  0.00    +0.155 HD
ATOM     17  H   UNL     1      -0.493  -4.263  -0.994  0.00  0.00    -0.085 HD
ENDROOT
BRANCH  11  18
ATOM     18  C   UNL     1       2.097  -3.394  -2.107  0.00  0.00    -0.060 A 
ATOM     19  C   UNL     1       2.880  -4.436  -1.645  0.00  0.00    +0.005 A 
ATOM     20  C   UNL     1       3.901  -4.936  -2.432  0.00  0.00    +0.046 A 
ATOM     21  C   UNL     1       4.139  -4.391  -3.685  0.00  0.00    +0.130 A 
ATOM     22  C   UNL     1       3.351  -3.346  -4.146  0.00  0.00    +0.046 A 
ATOM     23  C   UNL     1       2.329  -2.854  -3.358  0.00  0.00    +0.005 A 
BRANCH  21  24
ATOM     24  O   UNL     1       5.142  -4.880  -4.460  0.00  0.00    -0.437 OA
BRANCH  24  25
ATOM     25  C   UNL     1       4.937  -6.058  -5.098  0.00  0.00    +0.238 A 
ATOM     26  C   UNL     1       5.984  -6.652  -5.820  0.00  0.00    +0.114 A 
ATOM     27  C   UNL     1       5.748  -7.868  -6.471  0.00  0.00    +0.026 A 
ATOM     28  C   UNL     1       4.488  -8.433  -6.374  0.00  0.00    +0.021 A 
ATOM     29  C   UNL     1       3.508  -7.786  -5.644  0.00  0.00    +0.115 A 
ATOM     30  N   UNL     1       3.753  -6.642  -5.033  0.00  0.00    -0.220 NA
BRANCH  26  31
ATOM     31  C   UNL     1       7.269  -6.026  -5.889  0.00  0.00    +0.105 C 
ATOM     32  N   UNL     1       8.289  -5.528  -5.944  0.00  0.00    -0.191 NA
ENDBRANCH  26  31
ENDBRANCH  24  25
ENDBRANCH  21  24
ENDBRANCH  11  18
TORSDOF 4
