REMARK  Name = ZINC12384951
REMARK  7 active torsions:
REMARK  status: ('A' for Active; 'I' for Inactive)
REMARK    1  A    between atoms: C_1  and  C_2
REMARK    2  A    between atoms: C_4  and  O_25
REMARK    3  A    between atoms: C_6  and  O_24
REMARK    4  A    between atoms: C_8  and  O_23
REMARK    5  A    between atoms: C_10  and  N_13
REMARK    6  A    between atoms: N_13  and  C_14
REMARK    7  A    between atoms: C_18  and  N_20
REMARK                            x       y       z     vdW  Elec       q    Type
REMARK                         _______ _______ _______ _____ _____    ______ ____
ROOT
ATOM      1  C   UNL     1      -3.727   7.541  -3.386  0.00  0.00    +0.041 C 
ATOM      2  C   UNL     1      -3.246   7.265  -1.960  0.00  0.00    +0.149 C 
ATOM      3  C   UNL     1      -3.089   8.589  -1.208  0.00  0.00    +0.174 C 
ATOM      4  C   UNL     1      -2.666   8.300   0.235  0.00  0.00    +0.178 C 
ATOM      5  C   UNL     1      -3.705   7.381   0.886  0.00  0.00    +0.192 C 
ATOM      6  C   UNL     1      -3.838   6.104   0.053  0.00  0.00    +0.235 C 
ATOM      7  O   UNL     1      -4.203   6.446  -1.286  0.00  0.00    -0.351 OA
ENDROOT
BRANCH   6   8
ATOM      8  N   UNL     1      -2.558   5.391   0.043  0.00  0.00    -0.317 N 
ATOM      9  H   UNL     1      -1.726   5.889   0.043  0.00  0.00    +0.149 HD
BRANCH   8  10
ATOM     10  C   UNL     1      -2.537   3.995   0.036  0.00  0.00    +0.031 A 
ATOM     11  C   UNL     1      -3.728   3.280   0.037  0.00  0.00    +0.023 A 
ATOM     12  C   UNL     1      -3.703   1.899   0.029  0.00  0.00    +0.004 A 
ATOM     13  C   UNL     1      -2.494   1.228   0.021  0.00  0.00    +0.033 A 
ATOM     14  C   UNL     1      -1.306   1.936   0.019  0.00  0.00    +0.128 A 
ATOM     15  C   UNL     1      -1.324   3.317   0.032  0.00  0.00    +0.055 A 
BRANCH  14  16
ATOM     16  N   UNL     1      -0.014   1.214   0.009  0.00  0.00    +0.056 N 
ATOM     17  O   UNL     1       0.002  -0.004   0.002  0.00  0.00    -0.126 OA
ATOM     18  O   UNL     1       1.032   1.837   0.002  0.00  0.00    -0.126 OA
ENDBRANCH  14  16
ENDBRANCH   8  10
ENDBRANCH   6   8
BRANCH   5  19
ATOM     19  O   UNL     1      -3.284   7.046   2.210  0.00  0.00    -0.385 OA
ATOM     20  H   UNL     1      -3.893   6.462   2.680  0.00  0.00    +0.210 HD
ENDBRANCH   5  19
BRANCH   4  21
ATOM     21  O   UNL     1      -2.587   9.526   0.964  0.00  0.00    -0.386 OA
ATOM     22  H   UNL     1      -2.323   9.418   1.889  0.00  0.00    +0.210 HD
ENDBRANCH   4  21
BRANCH   3  23
ATOM     23  O   UNL     1      -4.335   9.289  -1.210  0.00  0.00    -0.387 OA
ATOM     24  H   UNL     1      -4.666   9.501  -2.094  0.00  0.00    +0.210 HD
ENDBRANCH   3  23
TORSDOF 6
