REMARK  Name = ZINC11308697
REMARK  7 active torsions:
REMARK  status: ('A' for Active; 'I' for Inactive)
REMARK    1  A    between atoms: C_1  and  C_2
REMARK    2  A    between atoms: C_5  and  C_8
REMARK    3  A    between atoms: C_11  and  S_14
REMARK    4  A    between atoms: N_12  and  N_13
REMARK    5  A    between atoms: S_14  and  C_15
REMARK    6  A    between atoms: C_15  and  C_16
REMARK    7  A    between atoms: C_22  and  C_25
REMARK                            x       y       z     vdW  Elec       q    Type
REMARK                         _______ _______ _______ _____ _____    ______ ____
ROOT
ATOM      1  C   UNL     1      -4.851  -4.643  -2.776  0.00  0.00    +0.182 A 
ATOM      2  N   UNL     1      -4.771  -3.808  -1.766  0.00  0.00    -0.127 NA
ATOM      3  N   UNL     1      -3.625  -3.228  -1.765  0.00  0.00    -0.121 NA
ATOM      4  C   UNL     1      -2.902  -3.656  -2.776  0.00  0.00    +0.209 A 
ATOM      5  N   UNL     1      -3.658  -4.567  -3.457  0.00  0.00    -0.224 N 
ENDROOT
BRANCH   1  10
ATOM      6  C   UNL     1      -9.348  -7.974  -4.116  0.00  0.00    +0.044 C 
ATOM      7  C   UNL     1      -8.170  -7.101  -3.765  0.00  0.00    -0.050 A 
ATOM      8  C   UNL     1      -8.329  -6.055  -2.874  0.00  0.00    +0.004 A 
ATOM      9  C   UNL     1      -7.255  -5.253  -2.548  0.00  0.00    +0.012 A 
ATOM     10  C   UNL     1      -6.006  -5.499  -3.120  0.00  0.00    +0.021 A 
ATOM     11  C   UNL     1      -5.854  -6.552  -4.023  0.00  0.00    +0.012 A 
ATOM     12  C   UNL     1      -6.935  -7.350  -4.336  0.00  0.00    +0.004 A 
ENDBRANCH   1  10
BRANCH   5  13
ATOM     13  N   UNL     1      -3.303  -5.259  -4.580  0.00  0.00    -0.295 N 
ATOM     14  H   UNL     1      -2.860  -6.134  -4.340  0.00  0.00    +0.163 HD
ATOM     15  H   UNL     1      -4.100  -5.410  -5.179  0.00  0.00    +0.163 HD
ENDBRANCH   5  13
BRANCH   4  16
ATOM     16  S   UNL     1      -1.265  -3.145  -3.180  0.00  0.00    -0.075 S 
BRANCH  16  17
ATOM     17  C   UNL     1      -0.971  -1.952  -1.851  0.00  0.00    +0.173 C 
BRANCH  17  18
ATOM     18  C   UNL     1       0.411  -1.368  -1.997  0.00  0.00    +0.226 C 
ATOM     19  O   UNL     1       1.126  -1.723  -2.910  0.00  0.00    -0.275 OA
ATOM     20  N   UNL     1       0.852  -0.451  -1.113  0.00  0.00    -0.296 N 
ATOM     21  C   UNL     1       0.002  -0.004   0.002  0.00  0.00    +0.136 C 
ATOM     22  C   UNL     1      -0.019   1.529   0.010  0.00  0.00    +0.179 C 
ATOM     23  O   UNL     1       1.325   2.018   0.000  0.00  0.00    -0.374 OA
ATOM     24  C   UNL     1       2.069   1.660  -1.167  0.00  0.00    +0.132 C 
ATOM     25  C   UNL     1       2.197   0.134  -1.235  0.00  0.00    +0.139 C 
ATOM     26  C   UNL     1       3.463   2.287  -1.096  0.00  0.00    +0.039 C 
ENDBRANCH  17  18
ENDBRANCH  16  17
ENDBRANCH   4  16
TORSDOF 5
