REMARK  Name = ZINC33704327
REMARK  13 active torsions:
REMARK  status: ('A' for Active; 'I' for Inactive)
REMARK    1  A    between atoms: C_1  and  C_2
REMARK    2  A    between atoms: C_2  and  C_3
REMARK    3  A    between atoms: C_3  and  C_4
REMARK    4  A    between atoms: C_3  and  C_5
REMARK    5  A    between atoms: C_3  and  C_6
REMARK    6  A    between atoms: C_9  and  O_12
REMARK    7  A    between atoms: O_12  and  C_13
REMARK    8  A    between atoms: C_13  and  C_14
REMARK    9  A    between atoms: N_16  and  C_17
REMARK   10  A    between atoms: C_17  and  C_19
REMARK   11  A    between atoms: C_17  and  C_27
REMARK   12  A    between atoms: C_19  and  C_20
REMARK   13  A    between atoms: C_23  and  O_26
REMARK                            x       y       z     vdW  Elec       q    Type
REMARK                         _______ _______ _______ _____ _____    ______ ____
ROOT
ATOM      1  C   UNL     1      -1.412  -0.526   0.013  0.00  0.00    +0.251 C 
ATOM      2  O   UNL     1      -2.344   0.250   0.026  0.00  0.00    -0.272 OA
ATOM      3  N   UNL     1      -1.640  -1.854   0.008  0.00  0.00    -0.301 N 
ATOM      4  H   UNL     1      -0.794  -2.557  -0.004  0.00  0.00    +0.150 HD
ENDROOT
BRANCH   1   5
ATOM      5  C   UNL     1       0.002  -0.004   0.002  0.00  0.00    +0.324 C 
BRANCH   5   6
ATOM      6  O   UNL     1      -0.017   1.425   0.010  0.00  0.00    -0.483 OA
BRANCH   6  10
ATOM      7  C   UNL     1       3.633   3.348  -0.015  0.00  0.00    -0.042 A 
ATOM      8  C   UNL     1       2.464   4.086   0.000  0.00  0.00    +0.008 A 
ATOM      9  C   UNL     1       1.240   3.444   0.009  0.00  0.00    +0.046 A 
ATOM     10  C   UNL     1       1.185   2.058   0.002  0.00  0.00    +0.121 A 
ATOM     11  C   UNL     1       2.359   1.320  -0.008  0.00  0.00    +0.046 A 
ATOM     12  C   UNL     1       3.580   1.966  -0.022  0.00  0.00    +0.008 A 
BRANCH   7  13
ATOM     13  C   UNL     1       4.966   4.050  -0.024  0.00  0.00    -0.010 C 
ATOM     14  C   UNL     1       5.069   4.932  -1.269  0.00  0.00    +0.016 C 
ATOM     15  C   UNL     1       5.093   4.919   1.229  0.00  0.00    +0.016 C 
BRANCH  13  17
ATOM     16  C   UNL     1       7.443   3.724  -0.049  0.00  0.00    +0.005 C 
ATOM     17  C   UNL     1       6.089   3.011  -0.040  0.00  0.00    +0.007 C 
ENDBRANCH  13  17
ENDBRANCH   7  13
ENDBRANCH   6  10
ENDBRANCH   5   6
ENDBRANCH   1   5
BRANCH   3  18
ATOM     18  C   UNL     1      -3.014  -2.361   0.018  0.00  0.00    +0.163 C 
BRANCH  18  19
ATOM     19  C   UNL     1      -3.515  -2.426   1.438  0.00  0.00    +0.231 C 
ATOM     20  O   UNL     1      -2.795  -2.083   2.351  0.00  0.00    -0.274 OA
ATOM     21  N   UNL     1      -4.763  -2.866   1.693  0.00  0.00    -0.328 N 
ATOM     22  H   UNL     1      -5.129  -2.914   2.729  0.00  0.00    +0.145 HD
ATOM     23  H   UNL     1      -5.417  -3.178   0.865  0.00  0.00    +0.145 HD
ENDBRANCH  18  19
BRANCH  18  24
ATOM     24  C   UNL     1      -3.046  -3.761  -0.599  0.00  0.00    +0.067 C 
BRANCH  24  25
ATOM     25  C   UNL     1      -2.663  -3.677  -2.054  0.00  0.00    -0.045 A 
ATOM     26  C   UNL     1      -3.639  -3.489  -3.015  0.00  0.00    +0.007 A 
ATOM     27  C   UNL     1      -3.290  -3.406  -4.349  0.00  0.00    +0.045 A 
ATOM     28  C   UNL     1      -1.960  -3.524  -4.725  0.00  0.00    +0.117 A 
ATOM     29  C   UNL     1      -0.983  -3.719  -3.759  0.00  0.00    +0.045 A 
ATOM     30  C   UNL     1      -1.337  -3.795  -2.426  0.00  0.00    +0.007 A 
BRANCH  28  31
ATOM     31  O   UNL     1      -1.614  -3.448  -6.037  0.00  0.00    -0.507 OA
ATOM     32  H   UNL     1      -0.559  -3.542  -6.334  0.00  0.00    +0.292 HD
ENDBRANCH  28  31
ENDBRANCH  24  25
ENDBRANCH  18  24
ENDBRANCH   3  18
TORSDOF 10
