REMARK  Name = ZINC20805378
REMARK  16 active torsions:
REMARK  status: ('A' for Active; 'I' for Inactive)
REMARK    1  A    between atoms: C_1  and  C_2
REMARK    2  A    between atoms: C_2  and  C_3
REMARK    3  A    between atoms: C_3  and  C_5
REMARK    4  A    between atoms: C_3  and  C_6
REMARK    5  A    between atoms: C_9  and  N_12
REMARK    6  A    between atoms: C_13  and  C_15
REMARK    7  A    between atoms: C_15  and  S_16
REMARK    8  A    between atoms: S_16  and  C_17
REMARK    9  A    between atoms: N_21  and  N_22
REMARK   10  A    between atoms: N_23  and  N_24
REMARK   11  A    between atoms: C_25  and  C_26
REMARK   12  A    between atoms: C_27  and  C_35
REMARK   13  A    between atoms: N_29  and  C_32
REMARK   14  A    between atoms: C_30  and  C_31
REMARK   15  A    between atoms: C_32  and  C_33
REMARK   16  A    between atoms: C_32  and  C_34
REMARK                            x       y       z     vdW  Elec       q    Type
REMARK                         _______ _______ _______ _____ _____    ______ ____
ROOT
ATOM      1  C   UNL     1       1.307  -0.408  -0.025  0.00  0.00    +0.210 A 
ATOM      2  N   UNL     1       2.064   0.663  -0.036  0.00  0.00    -0.119 NA
ATOM      3  N   UNL     1       1.225   1.786  -0.028  0.00  0.00    -0.109 NA
ATOM      4  C   UNL     1      -0.016   1.364  -0.013  0.00  0.00    +0.254 A 
ATOM      5  N   UNL     1       0.002  -0.003  -0.011  0.00  0.00    -0.211 N 
ATOM      6  N   UNL     1      -1.149   2.164  -0.007  0.00  0.00    -0.204 N 
ATOM      7  H   UNL     1      -2.148   1.703   0.001  0.00  0.00    +0.177 HD
ENDROOT
BRANCH   5   8
ATOM      8  N   UNL     1      -1.092  -0.821   0.004  0.00  0.00    -0.294 N 
ATOM      9  H   UNL     1      -2.103  -0.387   0.015  0.00  0.00    +0.163 HD
ATOM     10  H   UNL     1      -0.962  -1.913   0.005  0.00  0.00    +0.163 HD
ENDBRANCH   5   8
BRANCH   6  11
ATOM     11  N   UNL     1      -1.022   3.559  -0.010  0.00  0.00    -0.187 NA
ATOM     12  C   UNL     1      -2.082   4.308  -0.004  0.00  0.00    +0.141 C 
BRANCH  12  13
ATOM     13  C   UNL     1      -1.947   5.778  -0.007  0.00  0.00    +0.038 A 
ATOM     14  C   UNL     1      -0.739   6.507  -0.018  0.00  0.00    +0.069 A 
ATOM     15  N   UNL     1      -1.033   7.780  -0.018  0.00  0.00    -0.175 NA
ATOM     16  N   UNL     1      -2.425   7.922  -0.007  0.00  0.00    -0.265 N 
ATOM     17  C   UNL     1      -2.978   6.692  -0.007  0.00  0.00    +0.045 A 
ATOM     18  C   UNL     1      -4.451   6.376  -0.004  0.00  0.00    +0.066 C 
ATOM     19  C   UNL     1       0.649   5.920  -0.027  0.00  0.00    +0.068 C 
BRANCH  16  20
ATOM     20  C   UNL     1      -3.157   9.191  -0.004  0.00  0.00    +0.101 C 
ATOM     21  C   UNL     1      -2.777   9.995   1.241  0.00  0.00    +0.032 C 
ATOM     22  C   UNL     1      -2.797   9.992  -1.257  0.00  0.00    +0.032 C 
ENDBRANCH  16  20
ENDBRANCH  12  13
ENDBRANCH   6  11
BRANCH   1  23
ATOM     23  S   UNL     1       1.874  -2.076  -0.029  0.00  0.00    -0.075 S 
BRANCH  23  24
ATOM     24  C   UNL     1       3.682  -1.925  -0.050  0.00  0.00    +0.173 C 
BRANCH  24  26
ATOM     25  N   UNL     1       5.641  -3.435  -0.070  0.00  0.00    -0.285 N 
ATOM     26  C   UNL     1       4.301  -3.300  -0.055  0.00  0.00    +0.227 C 
ATOM     27  O   UNL     1       3.592  -4.284  -0.045  0.00  0.00    -0.275 OA
ATOM     28  H   UNL     1       6.283  -2.545  -0.156  0.00  0.00    +0.155 HD
BRANCH  25  32
ATOM     29  C   UNL     1       7.357  -7.221   0.208  0.00  0.00    -0.044 A 
ATOM     30  C   UNL     1       6.166  -7.052  -0.474  0.00  0.00    +0.006 A 
ATOM     31  C   UNL     1       5.594  -5.798  -0.568  0.00  0.00    +0.023 A 
ATOM     32  C   UNL     1       6.218  -4.706   0.023  0.00  0.00    +0.033 A 
ATOM     33  C   UNL     1       7.416  -4.879   0.702  0.00  0.00    +0.023 A 
ATOM     34  C   UNL     1       7.979  -6.137   0.798  0.00  0.00    +0.006 A 
BRANCH  29  35
ATOM     35  C   UNL     1       7.977  -8.591   0.308  0.00  0.00    +0.016 C 
ATOM     36  C   UNL     1       9.367  -8.569  -0.331  0.00  0.00    +0.012 C 
BRANCH  35  38
ATOM     37  C   UNL     1       8.612 -10.427   1.879  0.00  0.00    +0.004 C 
ATOM     38  C   UNL     1       8.098  -8.989   1.780  0.00  0.00    +0.004 C 
ENDBRANCH  35  38
ENDBRANCH  29  35
ENDBRANCH  25  32
ENDBRANCH  24  26
ENDBRANCH  23  24
ENDBRANCH   1  23
TORSDOF 10
