REMARK  Name = ZINC16021176
REMARK  6 active torsions:
REMARK  status: ('A' for Active; 'I' for Inactive)
REMARK    1  A    between atoms: C_1  and  C_2
REMARK    2  A    between atoms: C_16  and  C_19
REMARK    3  A    between atoms: C_19  and  C_20
REMARK    4  A    between atoms: C_20  and  C_21
REMARK    5  A    between atoms: N_26  and  C_29
REMARK    6  A    between atoms: C_29  and  C_30
REMARK                            x       y       z     vdW  Elec       q    Type
REMARK                         _______ _______ _______ _____ _____    ______ ____
ROOT
ATOM      1  C   UNL     1       0.186   1.554   0.111  0.00  0.00    +0.045 C 
ATOM      2  C   UNL     1       0.174   0.048   0.076  0.00  0.00    -0.029 A 
ATOM      3  C   UNL     1       0.197  -0.612  -1.136  0.00  0.00    +0.005 A 
ATOM      4  C   UNL     1       0.186  -1.994  -1.178  0.00  0.00    +0.001 A 
ATOM      5  C   UNL     1       0.153  -2.719   0.000  0.00  0.00    +0.008 A 
ATOM      6  C   UNL     1       0.130  -2.065   1.211  0.00  0.00    +0.004 A 
ATOM      7  C   UNL     1       0.146  -0.674   1.266  0.00  0.00    +0.042 A 
ATOM      8  N   UNL     1       0.125  -0.244   2.595  0.00  0.00    -0.283 N 
ATOM      9  C   UNL     1       0.098  -1.274   3.462  0.00  0.00    +0.243 C 
ATOM     10  O   UNL     1       0.074  -1.201   4.673  0.00  0.00    -0.273 OA
ATOM     11  C   UNL     1       0.092  -2.532   2.638  0.00  0.00    +0.136 C 
ATOM     12  C   UNL     1       1.302  -3.413   2.974  0.00  0.00    +0.122 C 
ATOM     13  C   UNL     1       0.748  -4.481   3.957  0.00  0.00    +0.107 C 
ATOM     14  C   UNL     1      -0.740  -4.117   4.141  0.00  0.00    +0.068 C 
ATOM     15  N   UNL     1      -1.099  -3.361   2.905  0.00  0.00    -0.295 NA
ATOM     16  C   UNL     1       0.870  -5.770   3.178  0.00  0.00    +0.227 C 
ATOM     17  O   UNL     1       0.535  -6.865   3.577  0.00  0.00    -0.275 OA
ATOM     18  N   UNL     1       1.406  -5.516   1.979  0.00  0.00    -0.237 N 
ATOM     19  C   UNL     1       1.700  -4.214   1.754  0.00  0.00    +0.229 C 
ATOM     20  O   UNL     1       2.196  -3.757   0.747  0.00  0.00    -0.275 OA
ATOM     21  H   UNL     1       0.130   0.689   2.862  0.00  0.00    +0.155 HD
ATOM     22  H   UNL     1      -1.912  -2.785   3.061  0.00  0.00    +0.123 HD
ENDROOT
BRANCH  14  23
ATOM     23  C   UNL     1      -1.590  -5.385   4.239  0.00  0.00    +0.028 C 
BRANCH  23  24
ATOM     24  C   UNL     1      -3.040  -5.005   4.545  0.00  0.00    +0.097 C 
BRANCH  24  25
ATOM     25  C   UNL     1      -3.877  -6.255   4.641  0.00  0.00    +0.211 C 
ATOM     26  O   UNL     1      -3.365  -7.342   4.480  0.00  0.00    -0.276 OA
ATOM     27  N   UNL     1      -5.196  -6.164   4.905  0.00  0.00    -0.329 N 
ATOM     28  H   UNL     1      -5.606  -5.294   5.034  0.00  0.00    +0.145 HD
ATOM     29  H   UNL     1      -5.735  -6.968   4.967  0.00  0.00    +0.145 HD
ENDBRANCH  24  25
ENDBRANCH  23  24
ENDBRANCH  14  23
BRANCH  18  30
ATOM     30  C   UNL     1       1.662  -6.563   0.987  0.00  0.00    +0.153 C 
BRANCH  30  31
ATOM     31  C   UNL     1       3.103  -6.996   1.075  0.00  0.00    -0.011 A 
ATOM     32  C   UNL     1       4.045  -6.439   0.231  0.00  0.00    +0.006 A 
ATOM     33  C   UNL     1       5.367  -6.836   0.311  0.00  0.00    +0.000 A 
ATOM     34  C   UNL     1       5.747  -7.792   1.235  0.00  0.00    +0.001 A 
ATOM     35  C   UNL     1       4.806  -8.350   2.079  0.00  0.00    +0.020 A 
ATOM     36  C   UNL     1       3.484  -7.948   2.003  0.00  0.00    +0.046 A 
ATOM     37 CL   UNL     1       2.302  -8.644   3.068  0.00  0.00    -0.083 Cl
ENDBRANCH  30  31
ENDBRANCH  18  30
TORSDOF 5
