REMARK  Name = ZINC00413930
REMARK  7 active torsions:
REMARK  status: ('A' for Active; 'I' for Inactive)
REMARK    1  A    between atoms: C_1  and  C_2
REMARK    2  A    between atoms: C_11  and  S_18
REMARK    3  A    between atoms: C_13  and  C_15
REMARK    4  A    between atoms: C_15  and  C_16
REMARK    5  A    between atoms: C_15  and  C_17
REMARK    6  A    between atoms: S_18  and  C_19
REMARK    7  A    between atoms: C_19  and  C_20
REMARK                            x       y       z     vdW  Elec       q    Type
REMARK                         _______ _______ _______ _____ _____    ______ ____
ROOT
ATOM      1  C   UNL     1      -1.395  -0.538   0.323  0.00  0.00    +0.008 C 
ATOM      2  C   UNL     1       0.002  -0.004   0.002  0.00  0.00    -0.009 C 
ATOM      3  C   UNL     1       0.996  -0.486   1.063  0.00  0.00    +0.008 C 
ATOM      4  C   UNL     1       2.424  -0.169   0.617  0.00  0.00    +0.037 C 
ATOM      5  C   UNL     1       2.514   1.312   0.261  0.00  0.00    -0.025 A 
ATOM      6  C   UNL     1       1.395   2.025  -0.000  0.00  0.00    -0.004 A 
ATOM      7  S   UNL     1       1.961   3.670  -0.358  0.00  0.00    -0.073 S 
ATOM      8  C   UNL     1       3.693   3.402  -0.160  0.00  0.00    +0.113 A 
ATOM      9  C   UNL     1       3.776   2.028   0.182  0.00  0.00    +0.043 A 
ATOM     10  C   UNL     1       5.081   1.500   0.409  0.00  0.00    +0.109 A 
ATOM     11  N   UNL     1       6.087   2.363   0.275  0.00  0.00    -0.225 NA
ATOM     12  C   UNL     1       5.932   3.631  -0.046  0.00  0.00    +0.134 A 
ATOM     13  N   UNL     1       4.746   4.186  -0.271  0.00  0.00    -0.225 NA
ATOM     14  C   UNL     1      -0.019   1.531   0.011  0.00  0.00    +0.046 C 
ENDROOT
BRANCH  12  15
ATOM     15  C   UNL     1       7.160   4.496  -0.164  0.00  0.00    +0.051 C 
ATOM     16  C   UNL     1       7.899   4.518   1.176  0.00  0.00    +0.015 C 
ATOM     17  C   UNL     1       8.082   3.928  -1.245  0.00  0.00    +0.015 C 
ENDBRANCH  12  15
BRANCH  10  18
ATOM     18  S   UNL     1       5.346  -0.188   0.840  0.00  0.00    -0.096 S 
BRANCH  18  19
ATOM     19  C   UNL     1       7.150  -0.197   0.979  0.00  0.00    +0.171 C 
BRANCH  19  20
ATOM     20  C   UNL     1       7.618  -1.580   1.351  0.00  0.00    +0.221 C 
ATOM     21  O   UNL     1       6.811  -2.472   1.507  0.00  0.00    -0.275 OA
ATOM     22  N   UNL     1       8.934  -1.827   1.510  0.00  0.00    -0.329 N 
ATOM     23  H   UNL     1       9.579  -1.113   1.386  0.00  0.00    +0.145 HD
ATOM     24  H   UNL     1       9.235  -2.717   1.750  0.00  0.00    +0.145 HD
ENDBRANCH  19  20
ENDBRANCH  18  19
ENDBRANCH  10  18
TORSDOF 4
