REMARK  Name = ZINC43925903
REMARK  10 active torsions:
REMARK  status: ('A' for Active; 'I' for Inactive)
REMARK    1  A    between atoms: C_1  and  C_2
REMARK    2  A    between atoms: C_4  and  C_21
REMARK    3  A    between atoms: C_10  and  S_13
REMARK    4  A    between atoms: N_11  and  N_12
REMARK    5  A    between atoms: S_13  and  C_14
REMARK    6  A    between atoms: C_14  and  C_15
REMARK    7  A    between atoms: C_15  and  C_17
REMARK    8  A    between atoms: C_17  and  C_18
REMARK    9  A    between atoms: C_17  and  C_19
REMARK   10  A    between atoms: C_17  and  C_20
REMARK                            x       y       z     vdW  Elec       q    Type
REMARK                         _______ _______ _______ _____ _____    ______ ____
ROOT
ATOM      1  C   UNL     1      -0.018   1.503   0.010  0.00  0.00    +0.067 C 
ATOM      2  C   UNL     1       0.002  -0.004   0.002  0.00  0.00    +0.061 A 
ATOM      3  C   UNL     1       0.008  -0.817  -1.137  0.00  0.00    +0.048 A 
ATOM      4  C   UNL     1       0.027  -2.107  -0.729  0.00  0.00    +0.045 A 
ATOM      5  N   UNL     1       0.034  -2.109   0.629  0.00  0.00    -0.201 N 
ATOM      6  N   UNL     1       0.023  -0.775   1.059  0.00  0.00    -0.169 NA
ATOM      7  C   UNL     1       0.052  -3.237   1.449  0.00  0.00    +0.270 A 
ATOM      8  N   UNL     1       0.073  -4.484   1.054  0.00  0.00    -0.106 NA
ATOM      9  N   UNL     1       0.086  -5.269   2.072  0.00  0.00    -0.119 NA
ATOM     10  C   UNL     1       0.074  -4.566   3.180  0.00  0.00    +0.210 A 
ATOM     11  N   UNL     1       0.059  -3.246   2.820  0.00  0.00    -0.208 N 
ATOM     12  C   UNL     1       0.039  -3.322  -1.621  0.00  0.00    +0.066 C 
ENDROOT
BRANCH  11  13
ATOM     13  N   UNL     1       0.048  -2.164   3.653  0.00  0.00    -0.293 N 
ATOM     14  H   UNL     1      -0.897  -1.889   3.878  0.00  0.00    +0.163 HD
ATOM     15  H   UNL     1       0.580  -2.346   4.490  0.00  0.00    +0.163 HD
ENDBRANCH  11  13
BRANCH  10  16
ATOM     16  S   UNL     1       0.085  -5.203   4.823  0.00  0.00    -0.077 S 
BRANCH  16  17
ATOM     17  C   UNL     1       0.115  -7.002   4.596  0.00  0.00    +0.152 C 
BRANCH  17  18
ATOM     18  C   UNL     1       0.126  -7.678   5.943  0.00  0.00    +0.149 C 
ATOM     19  O   UNL     1       0.115  -7.014   6.952  0.00  0.00    -0.296 OA
BRANCH  18  20
ATOM     20  C   UNL     1       0.152  -9.182   6.031  0.00  0.00    +0.021 C 
ATOM     21  C   UNL     1       0.159  -9.607   7.501  0.00  0.00    +0.018 C 
ATOM     22  C   UNL     1      -1.088  -9.754   5.341  0.00  0.00    +0.018 C 
ATOM     23  C   UNL     1       1.410  -9.712   5.341  0.00  0.00    +0.018 C 
ENDBRANCH  18  20
ENDBRANCH  17  18
ENDBRANCH  16  17
ENDBRANCH  10  16
TORSDOF 5
