REMARK  Name = ZINC39943320
REMARK  6 active torsions:
REMARK  status: ('A' for Active; 'I' for Inactive)
REMARK    1  A    between atoms: C_1  and  C_2
REMARK    2  A    between atoms: C_4  and  C_18
REMARK    3  A    between atoms: C_6  and  C_14
REMARK    4  A    between atoms: C_7  and  N_13
REMARK    5  A    between atoms: C_14  and  O_16
REMARK    6  A    between atoms: O_16  and  C_17
REMARK                            x       y       z     vdW  Elec       q    Type
REMARK                         _______ _______ _______ _____ _____    ______ ____
ROOT
ATOM      1  C   UNL     1      -0.017   1.521   0.133  0.00  0.00    +0.067 C 
ATOM      2  C   UNL     1      -0.007   0.017   0.039  0.00  0.00    +0.066 C 
ATOM      3  C   UNL     1      -1.078  -0.740   0.034  0.00  0.00    +0.029 C 
ATOM      4  C   UNL     1      -2.542  -0.466   0.243  0.00  0.00    +0.094 C 
ATOM      5  C   UNL     1      -3.047  -1.597   1.119  0.00  0.00    +0.105 C 
ATOM      6  C   UNL     1      -2.278  -2.674   1.401  0.00  0.00    +0.191 C 
ATOM      7  O   UNL     1      -1.013  -2.884   0.999  0.00  0.00    -0.449 OA
ATOM      8  C   UNL     1      -0.557  -2.166  -0.150  0.00  0.00    +0.343 C 
ATOM      9  N   UNL     1       0.895  -1.963  -0.136  0.00  0.00    -0.138 NA
ATOM     10  N   UNL     1       1.111  -0.747  -0.059  0.00  0.00    -0.155 NA
ENDROOT
BRANCH   4  11
ATOM     11  C   UNL     1      -2.730   0.858   0.938  0.00  0.00    -0.035 A 
ATOM     12  C   UNL     1      -2.176   1.068   2.187  0.00  0.00    +0.005 A 
ATOM     13  C   UNL     1      -2.348   2.283   2.824  0.00  0.00    +0.015 A 
ATOM     14  C   UNL     1      -3.075   3.288   2.212  0.00  0.00    +0.018 A 
ATOM     15  C   UNL     1      -3.629   3.078   0.962  0.00  0.00    +0.015 A 
ATOM     16  C   UNL     1      -3.452   1.865   0.323  0.00  0.00    +0.005 A 
ATOM     17 BR   UNL     1      -3.311   4.949   3.084  0.00  0.00    -0.050 Br
ENDBRANCH   4  11
BRANCH   6  18
ATOM     18  N   UNL     1      -2.846  -3.648   2.176  0.00  0.00    -0.329 N 
ATOM     19  H   UNL     1      -3.785  -3.594   2.413  0.00  0.00    +0.145 HD
ATOM     20  H   UNL     1      -2.310  -4.393   2.490  0.00  0.00    +0.145 HD
ENDBRANCH   6  18
BRANCH   5  21
ATOM     21  C   UNL     1      -4.343  -1.525   1.649  0.00  0.00    +0.341 C 
ATOM     22  O   UNL     1      -5.305  -1.767   0.941  0.00  0.00    -0.245 OA
BRANCH  21  23
ATOM     23  O   UNL     1      -4.525  -1.188   2.944  0.00  0.00    -0.465 OA
ATOM     24  C   UNL     1      -5.873  -1.133   3.417  0.00  0.00    +0.280 C 
ENDBRANCH  21  23
ENDBRANCH   5  21
TORSDOF 4
