REMARK  Name = ZINC66741118
REMARK  4 active torsions:
REMARK  status: ('A' for Active; 'I' for Inactive)
REMARK    1  A    between atoms: C_1  and  C_2
REMARK    2  A    between atoms: C_11  and  C_14
REMARK    3  A    between atoms: C_17  and  O_21
REMARK    4  A    between atoms: O_21  and  C_22
REMARK                            x       y       z     vdW  Elec       q    Type
REMARK                         _______ _______ _______ _____ _____    ______ ____
ROOT
ATOM      1  C   UNL     1      -2.054  -1.612  -3.300  0.00  0.00    -0.007 A 
ATOM      2  C   UNL     1      -2.670  -0.396  -3.069  0.00  0.00    +0.011 A 
ATOM      3  C   UNL     1      -4.049  -0.310  -3.054  0.00  0.00    +0.049 A 
ATOM      4  C   UNL     1      -4.817  -1.444  -3.272  0.00  0.00    +0.164 A 
ATOM      5  C   UNL     1      -4.196  -2.666  -3.505  0.00  0.00    +0.166 A 
ATOM      6  C   UNL     1      -2.815  -2.745  -3.524  0.00  0.00    +0.049 A 
ATOM      7  F   UNL     1      -4.940  -3.773  -3.717  0.00  0.00    -0.202 F 
ENDROOT
BRANCH   1  18
ATOM      8  C   UNL     1       0.012   1.385   0.053  0.00  0.00    +0.067 C 
ATOM      9  C   UNL     1       0.020  -0.121   0.015  0.00  0.00    +0.055 A 
ATOM     10  C   UNL     1       0.017  -0.891  -1.077  0.00  0.00    +0.082 A 
ATOM     11  C   UNL     1       0.034  -2.243  -0.602  0.00  0.00    +0.168 A 
ATOM     12  N   UNL     1       0.037  -2.193   0.696  0.00  0.00    -0.167 NA
ATOM     13  N   UNL     1       0.037  -0.963   1.091  0.00  0.00    -0.279 N 
ATOM     14  H   UNL     1       0.044  -0.678   2.018  0.00  0.00    +0.189 HD
ATOM     15  C   UNL     1       0.052  -3.354  -1.574  0.00  0.00    +0.268 C 
ATOM     16  O   UNL     1       0.240  -4.503  -1.224  0.00  0.00    -0.268 OA
ATOM     17  N   UNL     1      -0.151  -3.033  -2.873  0.00  0.00    -0.288 N 
ATOM     18  C   UNL     1      -0.550  -1.702  -3.316  0.00  0.00    +0.190 C 
ATOM     19  N   UNL     1      -0.002  -0.640  -2.456  0.00  0.00    -0.319 N 
ATOM     20  H   UNL     1      -0.025  -3.722  -3.543  0.00  0.00    +0.151 HD
ATOM     21  H   UNL     1       0.330   0.193  -2.826  0.00  0.00    +0.148 HD
ENDBRANCH   1  18
BRANCH   4  22
ATOM     22  O   UNL     1      -6.173  -1.362  -3.258  0.00  0.00    -0.450 OA
BRANCH  22  23
ATOM     23  C   UNL     1      -6.823  -1.733  -2.123  0.00  0.00    +0.164 A 
ATOM     24  C   UNL     1      -6.102  -2.069  -0.987  0.00  0.00    +0.049 A 
ATOM     25  C   UNL     1      -6.764  -2.446   0.165  0.00  0.00    +0.004 A 
ATOM     26  C   UNL     1      -8.146  -2.489   0.188  0.00  0.00    +0.003 A 
ATOM     27  C   UNL     1      -8.870  -2.155  -0.942  0.00  0.00    +0.042 A 
ATOM     28  C   UNL     1      -8.212  -1.772  -2.097  0.00  0.00    +0.165 A 
ATOM     29  F   UNL     1      -8.919  -1.440  -3.200  0.00  0.00    -0.202 F 
ENDBRANCH  22  23
ENDBRANCH   4  22
TORSDOF 3
