REMARK  Name = ZINC25526422
REMARK  8 active torsions:
REMARK  status: ('A' for Active; 'I' for Inactive)
REMARK    1  A    between atoms: C_1  and  C_2
REMARK    2  A    between atoms: C_7  and  C_9
REMARK    3  A    between atoms: C_7  and  C_10
REMARK    4  A    between atoms: N_13  and  C_17
REMARK    5  A    between atoms: C_17  and  C_18
REMARK    6  A    between atoms: N_20  and  C_21
REMARK    7  A    between atoms: C_21  and  C_22
REMARK    8  A    between atoms: C_22  and  C_23
REMARK                            x       y       z     vdW  Elec       q    Type
REMARK                         _______ _______ _______ _____ _____    ______ ____
ROOT
ATOM      1  C   UNL     1      -2.031  -4.134  -3.043  0.00  0.00    +0.213 C 
ENDROOT
BRANCH   1  13
ATOM      2  C   UNL     1      -0.019   1.528   0.010  0.00  0.00    +0.007 C 
ATOM      3  C   UNL     1       0.002  -0.004   0.002  0.00  0.00    -0.011 C 
ATOM      4  C   UNL     1      -1.435  -0.529   0.021  0.00  0.00    +0.038 C 
ATOM      5  C   UNL     1      -1.427  -2.050  -0.036  0.00  0.00    +0.113 C 
ATOM      6  C   UNL     1      -0.575  -2.676   1.049  0.00  0.00    +0.041 C 
ATOM      7  C   UNL     1       0.782  -2.031   1.270  0.00  0.00    -0.032 C 
ATOM      8  C   UNL     1       0.719  -0.508   1.253  0.00  0.00    +0.009 C 
ATOM      9  C   UNL     1       1.296  -2.464   2.661  0.00  0.00    +0.011 C 
ATOM     10  C   UNL     1       1.795  -2.526   0.234  0.00  0.00    +0.011 C 
ATOM     11  C   UNL     1      -1.044  -2.534  -1.413  0.00  0.00    +0.247 C 
ATOM     12  O   UNL     1      -0.058  -2.253  -2.060  0.00  0.00    -0.273 OA
ATOM     13  N   UNL     1      -2.050  -3.344  -1.810  0.00  0.00    -0.215 N 
ATOM     14  C   UNL     1      -3.063  -3.331  -0.937  0.00  0.00    +0.310 C 
ATOM     15  O   UNL     1      -4.088  -3.969  -1.082  0.00  0.00    -0.252 OA
ATOM     16  N   UNL     1      -2.817  -2.537   0.119  0.00  0.00    -0.285 N 
ATOM     17  H   UNL     1      -3.418  -2.318   0.845  0.00  0.00    +0.151 HD
ENDBRANCH   1  13
BRANCH   1  18
ATOM     18  C   UNL     1      -1.431  -5.488  -2.763  0.00  0.00    +0.231 C 
ATOM     19  O   UNL     1      -1.057  -5.765  -1.643  0.00  0.00    -0.274 OA
ATOM     20  N   UNL     1      -1.311  -6.390  -3.757  0.00  0.00    -0.314 N 
ATOM     21  H   UNL     1      -1.611  -6.169  -4.652  0.00  0.00    +0.149 HD
BRANCH  20  22
ATOM     22  C   UNL     1      -0.728  -7.706  -3.484  0.00  0.00    +0.110 C 
BRANCH  22  23
ATOM     23  C   UNL     1      -0.708  -8.532  -4.772  0.00  0.00    +0.073 C 
BRANCH  23  24
ATOM     24  C   UNL     1      -0.108  -9.886  -4.492  0.00  0.00    +0.036 A 
ATOM     25  C   UNL     1       1.211 -10.177  -4.483  0.00  0.00    +0.113 A 
ATOM     26  N   UNL     1       1.330 -11.507  -4.187  0.00  0.00    -0.308 N 
ATOM     27  C   UNL     1       2.410 -12.329  -4.047  0.00  0.00    +0.092 A 
ATOM     28  C   UNL     1       2.247 -13.634  -3.743  0.00  0.00    +0.018 A 
ATOM     29  C   UNL     1       0.958 -14.164  -3.567  0.00  0.00    +0.005 A 
ATOM     30  C   UNL     1      -0.128 -13.356  -3.704  0.00  0.00    +0.045 A 
ATOM     31  C   UNL     1       0.060 -11.995  -4.021  0.00  0.00    +0.115 A 
ATOM     32  N   UNL     1      -0.791 -10.996  -4.205  0.00  0.00    -0.343 N 
ATOM     33  H   UNL     1      -1.757 -11.062  -4.144  0.00  0.00    +0.167 HD
ENDBRANCH  23  24
ENDBRANCH  22  23
ENDBRANCH  20  22
ENDBRANCH   1  18
TORSDOF 5
