REMARK  Name = ZINC39573262
REMARK  9 active torsions:
REMARK  status: ('A' for Active; 'I' for Inactive)
REMARK    1  A    between atoms: C_1  and  C_2
REMARK    2  A    between atoms: C_2  and  C_4
REMARK    3  A    between atoms: C_2  and  S_15
REMARK    4  A    between atoms: N_6  and  C_7
REMARK    5  A    between atoms: C_7  and  C_13
REMARK    6  A    between atoms: S_15  and  C_16
REMARK    7  A    between atoms: C_19  and  C_27
REMARK    8  A    between atoms: N_20  and  C_21
REMARK    9  A    between atoms: C_27  and  N_28
REMARK                            x       y       z     vdW  Elec       q    Type
REMARK                         _______ _______ _______ _____ _____    ______ ____
ROOT
ATOM      1  C   UNL     1      -0.311   0.138   2.755  0.00  0.00    +0.197 A 
ATOM      2  N   UNL     1      -1.484   0.727   2.765  0.00  0.00    -0.122 NA
ATOM      3  N   UNL     1      -1.923   0.810   3.970  0.00  0.00    -0.135 NA
ATOM      4  C   UNL     1      -1.064   0.284   4.797  0.00  0.00    +0.122 A 
ATOM      5  N   UNL     1      -0.007  -0.169   4.053  0.00  0.00    -0.276 N 
ENDROOT
BRANCH   5   6
ATOM      6  C   UNL     1       1.147  -0.812   4.524  0.00  0.00    +0.050 A 
ATOM      7  C   UNL     1       1.059  -2.081   5.079  0.00  0.00    +0.026 A 
ATOM      8  C   UNL     1       2.197  -2.712   5.542  0.00  0.00    +0.002 A 
ATOM      9  C   UNL     1       3.424  -2.080   5.453  0.00  0.00    +0.000 A 
ATOM     10  C   UNL     1       3.515  -0.815   4.900  0.00  0.00    +0.002 A 
ATOM     11  C   UNL     1       2.381  -0.182   4.431  0.00  0.00    +0.026 A 
ENDBRANCH   5   6
BRANCH   1  12
ATOM     12  S   UNL     1       0.681  -0.199   1.339  0.00  0.00    -0.073 S 
BRANCH  12  14
ATOM     13  C   UNL     1      -0.411   1.978   0.092  0.00  0.00    +0.029 C 
ATOM     14  C   UNL     1      -0.291   0.458  -0.044  0.00  0.00    +0.137 C 
BRANCH  14  15
ATOM     15  C   UNL     1       0.394   0.124  -1.344  0.00  0.00    +0.227 C 
ATOM     16  O   UNL     1       1.573  -0.160  -1.353  0.00  0.00    -0.275 OA
ATOM     17  N   UNL     1      -0.303   0.139  -2.497  0.00  0.00    -0.296 N 
ATOM     18  H   UNL     1      -1.247   0.366  -2.491  0.00  0.00    +0.150 HD
BRANCH  17  19
ATOM     19  C   UNL     1       0.363  -0.186  -3.761  0.00  0.00    +0.121 C 
ATOM     20  C   UNL     1       0.927  -1.607  -3.689  0.00  0.00    +0.041 C 
ATOM     21  C   UNL     1       1.623  -1.946  -5.009  0.00  0.00    +0.003 C 
ATOM     22  C   UNL     1       0.614  -1.856  -6.155  0.00  0.00    +0.000 C 
ATOM     23  C   UNL     1       0.050  -0.435  -6.227  0.00  0.00    +0.003 C 
ATOM     24  C   UNL     1      -0.646  -0.096  -4.908  0.00  0.00    +0.041 C 
BRANCH  19  25
ATOM     25  C   UNL     1       1.460   0.766  -3.996  0.00  0.00    +0.088 C 
ATOM     26  N   UNL     1       2.307   1.501  -4.178  0.00  0.00    -0.194 NA
ENDBRANCH  19  25
ENDBRANCH  17  19
ENDBRANCH  14  15
ENDBRANCH  12  14
ENDBRANCH   1  12
BRANCH   4  27
ATOM     27  C   UNL     1      -1.210   0.187   6.294  0.00  0.00    -0.001 C 
BRANCH  27  28
ATOM     28  N   UNL     1      -0.528   1.323   6.927  0.00  0.00    +0.384 N 
ATOM     29  C   UNL     1      -1.257   2.585   6.638  0.00  0.00    -0.078 C 
ATOM     30  C   UNL     1      -0.792   3.531   7.773  0.00  0.00    -0.020 C 
ATOM     31  C   UNL     1      -0.697   2.587   8.993  0.00  0.00    -0.020 C 
ATOM     32  C   UNL     1      -0.547   1.175   8.398  0.00  0.00    -0.078 C 
ATOM     33  H   UNL     1       0.423   1.387   6.596  0.00  0.00    -0.081 HD
ENDBRANCH  27  28
ENDBRANCH   4  27
TORSDOF 8
