REMARK  Name = ZINC20984961
REMARK  7 active torsions:
REMARK  status: ('A' for Active; 'I' for Inactive)
REMARK    1  A    between atoms: C_6  and  C_7
REMARK    2  A    between atoms: C_7  and  N_8
REMARK    3  A    between atoms: C_11  and  C_14
REMARK    4  A    between atoms: C_14  and  N_15
REMARK    5  A    between atoms: N_15  and  S_16
REMARK    6  A    between atoms: S_16  and  C_19
REMARK    7  A    between atoms: C_22  and  C_24
REMARK                            x       y       z     vdW  Elec       q    Type
REMARK                         _______ _______ _______ _____ _____    ______ ____
ROOT
ATOM      1  N   UNL     1      -0.844   5.740   5.860  0.00  0.00    -0.189 NA
ATOM      2  H   UNL     1      -1.796   5.739   5.310  0.00  0.00    +0.148 HD
ENDROOT
BRANCH   1   3
ATOM      3  S   UNL     1      -0.865   5.709   7.516  0.00  0.00    +0.065 S 
ATOM      4  O   UNL     1      -2.213   5.479   7.900  0.00  0.00    -0.153 OA
ATOM      5  O   UNL     1       0.198   4.857   7.920  0.00  0.00    -0.153 OA
BRANCH   3   6
ATOM      6  C   UNL     1      -0.452   7.329   8.072  0.00  0.00    +0.143 A 
ATOM      7  C   UNL     1      -1.274   8.379   8.328  0.00  0.00    +0.037 A 
ATOM      8  C   UNL     1      -0.729   9.568   8.763  0.00  0.00    +0.020 A 
ATOM      9  C   UNL     1       0.630   9.653   8.913  0.00  0.00    +0.041 A 
ATOM     10  S   UNL     1       1.156   8.014   8.437  0.00  0.00    -0.067 S 
BRANCH   9  11
ATOM     11  C   UNL     1       1.447  10.802   9.354  0.00  0.00    +0.098 A 
ATOM     12  C   UNL     1       2.855  10.675   9.441  0.00  0.00    +0.036 A 
ATOM     13  C   UNL     1       3.576  11.756   9.851  0.00  0.00    +0.073 A 
ATOM     14  C   UNL     1       2.873  12.940  10.166  0.00  0.00    +0.265 A 
ATOM     15  O   UNL     1       3.477  13.933  10.538  0.00  0.00    -0.266 OA
ATOM     16  N   UNL     1       1.532  12.966  10.053  0.00  0.00    -0.243 N 
ATOM     17  H   UNL     1       0.976  13.882  10.300  0.00  0.00    +0.192 HD
ATOM     18  N   UNL     1       0.866  11.940   9.659  0.00  0.00    -0.170 NA
ENDBRANCH   9  11
ENDBRANCH   3   6
ENDBRANCH   1   3
BRANCH   1  19
ATOM     19  C   UNL     1       0.413   5.985   5.148  0.00  0.00    +0.109 C 
BRANCH  19  23
ATOM     20  N   UNL     1       1.156   4.075   1.397  0.00  0.00    +0.382 N 
ATOM     21  C   UNL     1      -0.083   3.700   2.091  0.00  0.00    -0.078 C 
ATOM     22  C   UNL     1       0.019   4.089   3.567  0.00  0.00    -0.014 C 
ATOM     23  C   UNL     1       0.250   5.599   3.677  0.00  0.00    +0.001 C 
ATOM     24  C   UNL     1       1.519   5.970   2.906  0.00  0.00    -0.014 C 
ATOM     25  C   UNL     1       1.374   5.526   1.449  0.00  0.00    -0.078 C 
ATOM     26  H   UNL     1       1.993   3.591   1.921  0.00  0.00    -0.081 HD
BRANCH  20  27
ATOM     27  C   UNL     1       1.150   3.592   0.010  0.00  0.00    -0.043 C 
BRANCH  27  33
ATOM     28  C   UNL     1      -0.017   1.378   0.010  0.00  0.00    +0.003 A 
ATOM     29  C   UNL     1       0.002  -0.004   0.002  0.00  0.00    +0.020 A 
ATOM     30  C   UNL     1       1.210  -0.679  -0.013  0.00  0.00    +0.041 A 
ATOM     31  C   UNL     1       2.398   0.030  -0.021  0.00  0.00    +0.020 A 
ATOM     32  C   UNL     1       2.378   1.412  -0.013  0.00  0.00    +0.003 A 
ATOM     33  C   UNL     1       1.171   2.086   0.002  0.00  0.00    -0.064 A 
ATOM     34 CL   UNL     1       1.234  -2.415  -0.022  0.00  0.00    -0.084 Cl
ENDBRANCH  27  33
ENDBRANCH  20  27
ENDBRANCH  19  23
ENDBRANCH   1  19
TORSDOF 7
