REMARK  Name = ZINC35908894
REMARK  6 active torsions:
REMARK  status: ('A' for Active; 'I' for Inactive)
REMARK    1  A    between atoms: C_1  and  C_2
REMARK    2  A    between atoms: C_2  and  C_3
REMARK    3  A    between atoms: N_7  and  C_17
REMARK    4  A    between atoms: C_11  and  N_16
REMARK    5  A    between atoms: C_17  and  C_19
REMARK    6  A    between atoms: C_17  and  C_20
REMARK                            x       y       z     vdW  Elec       q    Type
REMARK                         _______ _______ _______ _____ _____    ______ ____
ROOT
ATOM      1  C   UNL     1       0.344  -0.590  -1.773  0.00  0.00    +0.259 C 
ATOM      2  C   UNL     1       0.383  -2.081  -1.634  0.00  0.00    +0.257 C 
ATOM      3  O   UNL     1      -0.420  -2.655  -2.339  0.00  0.00    -0.272 OA
ATOM      4  N   UNL     1       1.089  -2.865  -0.926  0.00  0.00    -0.287 N 
ATOM      5  C   UNL     1       2.277  -2.679  -0.161  0.00  0.00    +0.147 C 
ATOM      6  C   UNL     1       2.944  -1.339  -0.168  0.00  0.00    +0.013 A 
ATOM      7  C   UNL     1       4.061  -1.281   0.680  0.00  0.00    +0.031 A 
ATOM      8  C   UNL     1       4.776  -0.112   0.849  0.00  0.00    +0.025 A 
ATOM      9  C   UNL     1       4.366   1.028   0.170  0.00  0.00    +0.026 A 
ATOM     10  C   UNL     1       3.286   0.956  -0.670  0.00  0.00    +0.048 A 
ATOM     11  C   UNL     1       2.575  -0.252  -0.873  0.00  0.00    +0.126 A 
ATOM     12  O   UNL     1       1.653  -0.065  -1.863  0.00  0.00    -0.479 OA
ENDROOT
BRANCH   8  13
ATOM     13  N   UNL     1       5.893  -0.077   1.691  0.00  0.00    -0.358 N 
ATOM     14  H   UNL     1       6.172  -0.878   2.162  0.00  0.00    +0.142 HD
ATOM     15  H   UNL     1       6.389   0.749   1.804  0.00  0.00    +0.142 HD
ENDBRANCH   8  13
BRANCH   1  17
ATOM     16  C   UNL     1      -0.524   1.520  -0.754  0.00  0.00    +0.008 C 
ATOM     17  C   UNL     1      -0.358   0.012  -0.554  0.00  0.00    +0.051 C 
ENDBRANCH   1  17
BRANCH   4  18
ATOM     18  C   UNL     1       0.578  -4.237  -0.888  0.00  0.00    +0.104 C 
ATOM     19  C   UNL     1       1.577  -5.133  -0.153  0.00  0.00    +0.033 C 
BRANCH  18  20
ATOM     20  C   UNL     1      -0.744  -4.261  -0.166  0.00  0.00    -0.027 A 
ATOM     21  C   UNL     1      -0.895  -3.572   1.023  0.00  0.00    +0.005 A 
ATOM     22  C   UNL     1      -2.108  -3.594   1.685  0.00  0.00    +0.000 A 
ATOM     23  C   UNL     1      -3.171  -4.305   1.158  0.00  0.00    +0.000 A 
ATOM     24  C   UNL     1      -3.020  -4.993  -0.031  0.00  0.00    +0.000 A 
ATOM     25  C   UNL     1      -1.808  -4.968  -0.696  0.00  0.00    +0.005 A 
ENDBRANCH  18  20
ENDBRANCH   4  18
TORSDOF 4
