REMARK  Name = ZINC59110221
REMARK  16 active torsions:
REMARK  status: ('A' for Active; 'I' for Inactive)
REMARK    1  A    between atoms: C_1  and  C_2
REMARK    2  A    between atoms: C_2  and  C_23
REMARK    3  A    between atoms: C_4  and  N_11
REMARK    4  A    between atoms: C_7  and  C_9
REMARK    5  A    between atoms: C_7  and  C_10
REMARK    6  A    between atoms: N_11  and  C_12
REMARK    7  A    between atoms: C_12  and  N_14
REMARK    8  A    between atoms: N_14  and  C_15
REMARK    9  A    between atoms: C_20  and  O_21
REMARK   10  A    between atoms: O_21  and  C_22
REMARK   11  A    between atoms: C_23  and  N_24
REMARK   12  A    between atoms: N_24  and  C_25
REMARK   13  A    between atoms: C_25  and  N_27
REMARK   14  A    between atoms: N_27  and  C_28
REMARK   15  A    between atoms: C_33  and  O_34
REMARK   16  A    between atoms: O_34  and  C_35
REMARK                            x       y       z     vdW  Elec       q    Type
REMARK                         _______ _______ _______ _____ _____    ______ ____
ROOT
ATOM      1  C   UNL     1       0.131   1.219   0.475  0.00  0.00    +0.013 C 
ATOM      2  C   UNL     1       0.240  -0.308   0.470  0.00  0.00    -0.014 C 
ATOM      3  C   UNL     1      -1.126  -0.928   0.197  0.00  0.00    +0.030 C 
ATOM      4  C   UNL     1      -2.041  -0.778   1.411  0.00  0.00    +0.073 C 
ATOM      5  C   UNL     1      -1.418  -1.518   2.592  0.00  0.00    +0.028 C 
ATOM      6  C   UNL     1      -0.063  -0.920   2.952  0.00  0.00    -0.033 C 
ATOM      7  C   UNL     1       0.865  -0.816   1.756  0.00  0.00    +0.014 C 
ATOM      8  C   UNL     1       0.600  -1.854   3.989  0.00  0.00    +0.011 C 
ATOM      9  C   UNL     1      -0.254   0.443   3.623  0.00  0.00    +0.011 C 
ENDROOT
BRANCH   4  10
ATOM     10  N   UNL     1      -3.347  -1.376   1.104  0.00  0.00    -0.323 N 
ATOM     11  H   UNL     1      -3.416  -2.072   0.432  0.00  0.00    +0.148 HD
BRANCH  10  12
ATOM     12  C   UNL     1      -4.450  -0.958   1.756  0.00  0.00    +0.135 C 
ATOM     13  S   UNL     1      -4.328   0.270   2.943  0.00  0.00    -0.019 S 
BRANCH  12  14
ATOM     14  N   UNL     1      -5.648  -1.507   1.475  0.00  0.00    -0.294 N 
ATOM     15  H   UNL     1      -5.729  -2.151   0.755  0.00  0.00    +0.154 HD
BRANCH  14  16
ATOM     16  C   UNL     1      -6.777  -1.145   2.223  0.00  0.00    +0.075 A 
ATOM     17  C   UNL     1      -7.025   0.190   2.506  0.00  0.00    +0.027 A 
ATOM     18  C   UNL     1      -8.139   0.543   3.244  0.00  0.00    +0.002 A 
ATOM     19  C   UNL     1      -9.009  -0.430   3.699  0.00  0.00    +0.004 A 
ATOM     20  C   UNL     1      -8.768  -1.763   3.420  0.00  0.00    +0.047 A 
ATOM     21  C   UNL     1      -7.656  -2.126   2.678  0.00  0.00    +0.141 A 
BRANCH  21  22
ATOM     22  O   UNL     1      -7.421  -3.435   2.398  0.00  0.00    -0.493 OA
ATOM     23  C   UNL     1      -8.365  -4.385   2.897  0.00  0.00    +0.277 C 
ENDBRANCH  21  22
ENDBRANCH  14  16
ENDBRANCH  12  14
ENDBRANCH  10  12
ENDBRANCH   4  10
BRANCH   2  24
ATOM     24  C   UNL     1       1.172  -0.698  -0.699  0.00  0.00    +0.110 C 
BRANCH  24  25
ATOM     25  N   UNL     1       0.601  -0.219  -1.960  0.00  0.00    -0.326 N 
ATOM     26  H   UNL     1      -0.242   0.262  -1.959  0.00  0.00    +0.148 HD
BRANCH  25  27
ATOM     27  C   UNL     1       1.245  -0.446  -3.121  0.00  0.00    +0.135 C 
ATOM     28  S   UNL     1       2.733  -1.294  -3.123  0.00  0.00    -0.019 S 
BRANCH  27  29
ATOM     29  N   UNL     1       0.720  -0.005  -4.281  0.00  0.00    -0.294 N 
ATOM     30  H   UNL     1      -0.098   0.518  -4.276  0.00  0.00    +0.154 HD
BRANCH  29  31
ATOM     31  C   UNL     1       1.353  -0.302  -5.495  0.00  0.00    +0.075 A 
ATOM     32  C   UNL     1       1.942  -1.543  -5.687  0.00  0.00    +0.027 A 
ATOM     33  C   UNL     1       2.566  -1.834  -6.885  0.00  0.00    +0.002 A 
ATOM     34  C   UNL     1       2.605  -0.890  -7.895  0.00  0.00    +0.004 A 
ATOM     35  C   UNL     1       2.020   0.349  -7.711  0.00  0.00    +0.047 A 
ATOM     36  C   UNL     1       1.388   0.646  -6.515  0.00  0.00    +0.141 A 
BRANCH  36  37
ATOM     37  O   UNL     1       0.808   1.863  -6.335  0.00  0.00    -0.493 OA
ATOM     38  C   UNL     1       0.883   2.785  -7.423  0.00  0.00    +0.277 C 
ENDBRANCH  36  37
ENDBRANCH  29  31
ENDBRANCH  27  29
ENDBRANCH  25  27
ENDBRANCH  24  25
ENDBRANCH   2  24
TORSDOF 11
