REMARK  Name = ZINC45697110
REMARK  6 active torsions:
REMARK  status: ('A' for Active; 'I' for Inactive)
REMARK    1  A    between atoms: C_3  and  O_20
REMARK    2  A    between atoms: C_6  and  N_7
REMARK    3  A    between atoms: N_10  and  C_11
REMARK    4  A    between atoms: C_11  and  C_12
REMARK    5  A    between atoms: O_20  and  C_21
REMARK    6  A    between atoms: C_21  and  C_22
REMARK                            x       y       z     vdW  Elec       q    Type
REMARK                         _______ _______ _______ _____ _____    ______ ____
ROOT
ATOM      1  N   UNL     1      -1.202  -0.722   0.010  0.00  0.00    -0.269 N 
ATOM      2  C   UNL     1      -1.187  -2.065  -0.099  0.00  0.00    +0.304 C 
ATOM      3  O   UNL     1      -0.127  -2.662  -0.113  0.00  0.00    -0.252 OA
ATOM      4  N   UNL     1      -2.345  -2.747  -0.193  0.00  0.00    -0.295 N 
ATOM      5  H   UNL     1      -2.046  -0.252   0.099  0.00  0.00    +0.156 HD
ATOM      6  H   UNL     1      -3.190  -2.271  -0.182  0.00  0.00    +0.151 HD
ENDROOT
BRANCH   1  12
ATOM      7  C   UNL     1       1.070  -0.455  -0.768  0.00  0.00    +0.027 A 
ATOM      8  C   UNL     1       2.256   0.254  -0.782  0.00  0.00    +0.047 A 
ATOM      9  C   UNL     1       2.379   1.415  -0.034  0.00  0.00    +0.121 A 
ATOM     10  C   UNL     1       1.312   1.867   0.728  0.00  0.00    +0.047 A 
ATOM     11  C   UNL     1       0.126   1.159   0.744  0.00  0.00    +0.027 A 
ATOM     12  C   UNL     1       0.002  -0.004  -0.005  0.00  0.00    +0.035 A 
BRANCH   9  13
ATOM     13  O   UNL     1       3.546   2.112  -0.049  0.00  0.00    -0.483 OA
BRANCH  13  14
ATOM     14  C   UNL     1       3.603   3.300   0.744  0.00  0.00    +0.324 C 
BRANCH  14  15
ATOM     15  C   UNL     1       4.964   3.933   0.604  0.00  0.00    +0.248 C 
ATOM     16  O   UNL     1       5.802   3.418  -0.105  0.00  0.00    -0.272 OA
ATOM     17  N   UNL     1       5.249   5.071   1.267  0.00  0.00    -0.327 N 
ATOM     18  H   UNL     1       4.578   5.483   1.834  0.00  0.00    +0.145 HD
ATOM     19  H   UNL     1       6.124   5.479   1.177  0.00  0.00    +0.145 HD
ENDBRANCH  14  15
ENDBRANCH  13  14
ENDBRANCH   9  13
ENDBRANCH   1  12
BRANCH   4  20
ATOM     20  C   UNL     1      -2.329  -4.207  -0.311  0.00  0.00    +0.144 C 
BRANCH  20  21
ATOM     21  C   UNL     1      -3.743  -4.720  -0.400  0.00  0.00    +0.006 A 
ATOM     22  C   UNL     1      -4.361  -5.240   0.722  0.00  0.00    +0.023 A 
ATOM     23  C   UNL     1      -5.659  -5.711   0.641  0.00  0.00    +0.018 A 
ATOM     24  C   UNL     1      -6.340  -5.661  -0.562  0.00  0.00    +0.018 A 
ATOM     25  C   UNL     1      -5.723  -5.141  -1.684  0.00  0.00    +0.040 A 
ATOM     26  C   UNL     1      -4.426  -4.664  -1.603  0.00  0.00    +0.128 A 
ATOM     27  F   UNL     1      -3.824  -4.151  -2.698  0.00  0.00    -0.205 F 
ATOM     28 BR   UNL     1      -6.503  -6.424   2.176  0.00  0.00    -0.050 Br
ENDBRANCH  20  21
ENDBRANCH   4  20
TORSDOF 6
