REMARK  Name = ZINC67186465
REMARK  13 active torsions:
REMARK  status: ('A' for Active; 'I' for Inactive)
REMARK    1  A    between atoms: C_1  and  C_2
REMARK    2  A    between atoms: C_2  and  C_3
REMARK    3  A    between atoms: C_2  and  C_4
REMARK    4  A    between atoms: C_2  and  C_5
REMARK    5  A    between atoms: C_11  and  N_13
REMARK    6  A    between atoms: N_13  and  C_14
REMARK    7  A    between atoms: C_14  and  C_15
REMARK    8  A    between atoms: C_18  and  O_23
REMARK    9  A    between atoms: C_19  and  O_21
REMARK   10  A    between atoms: O_21  and  C_22
REMARK   11  A    between atoms: O_23  and  C_24
REMARK   12  A    between atoms: C_24  and  C_25
REMARK   13  A    between atoms: N_27  and  C_28
REMARK                            x       y       z     vdW  Elec       q    Type
REMARK                         _______ _______ _______ _____ _____    ______ ____
ROOT
ATOM      1  C   UNL     1       3.787   3.097  -1.235  0.00  0.00    -0.061 A 
ATOM      2  C   UNL     1       3.995   3.749  -2.436  0.00  0.00    +0.005 A 
ATOM      3  C   UNL     1       4.128   5.124  -2.466  0.00  0.00    +0.049 A 
ATOM      4  C   UNL     1       4.051   5.853  -1.290  0.00  0.00    +0.163 A 
ATOM      5  C   UNL     1       3.841   5.197  -0.081  0.00  0.00    +0.162 A 
ATOM      6  C   UNL     1       3.704   3.818  -0.059  0.00  0.00    +0.051 A 
ENDROOT
BRANCH   5   7
ATOM      7  O   UNL     1       3.765   5.908   1.076  0.00  0.00    -0.491 OA
ATOM      8  C   UNL     1       3.548   5.168   2.279  0.00  0.00    +0.277 C 
ENDBRANCH   5   7
BRANCH   1   9
ATOM      9  C   UNL     1       3.644   1.597  -1.208  0.00  0.00    -0.046 C 
BRANCH   9  10
ATOM     10  N   UNL     1       2.229   1.237  -1.374  0.00  0.00    +0.384 N 
ATOM     11  H   UNL     1       1.893   1.592  -2.257  0.00  0.00    -0.085 HD
ATOM     12  H   UNL     1       1.689   1.640  -0.623  0.00  0.00    -0.085 HD
BRANCH  10  18
ATOM     13  C   UNL     1       0.618  -0.600  -1.541  0.00  0.00    -0.020 C 
ATOM     14  C   UNL     1       0.473  -2.123  -1.514  0.00  0.00    +0.002 C 
ATOM     15  C   UNL     1       1.307  -2.735  -2.641  0.00  0.00    +0.000 C 
ATOM     16  C   UNL     1       2.777  -2.360  -2.449  0.00  0.00    -0.002 C 
ATOM     17  C   UNL     1       2.923  -0.837  -2.476  0.00  0.00    -0.015 C 
ATOM     18  C   UNL     1       2.089  -0.225  -1.349  0.00  0.00    -0.068 C 
BRANCH  13  20
ATOM     19  C   UNL     1      -0.605   1.444  -0.787  0.00  0.00    +0.011 C 
ATOM     20  C   UNL     1      -0.216   0.012  -0.413  0.00  0.00    -0.036 C 
ATOM     21  C   UNL     1       0.605   0.027   0.878  0.00  0.00    +0.011 C 
ATOM     22  C   UNL     1      -1.481  -0.822  -0.204  0.00  0.00    +0.011 C 
ENDBRANCH  13  20
ENDBRANCH  10  18
ENDBRANCH   9  10
ENDBRANCH   1   9
BRANCH   4  23
ATOM     23  O   UNL     1       4.181   7.207  -1.317  0.00  0.00    -0.479 OA
BRANCH  23  24
ATOM     24  C   UNL     1       4.396   7.812  -2.594  0.00  0.00    +0.324 C 
BRANCH  24  25
ATOM     25  C   UNL     1       4.515   9.305  -2.428  0.00  0.00    +0.250 C 
ATOM     26  O   UNL     1       4.426   9.802  -1.325  0.00  0.00    -0.272 OA
ATOM     27  N   UNL     1       4.721  10.088  -3.505  0.00  0.00    -0.316 N 
ATOM     28  C   UNL     1       4.838  11.540  -3.344  0.00  0.00    +0.128 C 
ATOM     29  H   UNL     1       4.793   9.691  -4.387  0.00  0.00    +0.148 HD
ENDBRANCH  24  25
ENDBRANCH  23  24
ENDBRANCH   4  23
TORSDOF 8
