REMARK  Name = ZINC39590154
REMARK  4 active torsions:
REMARK  status: ('A' for Active; 'I' for Inactive)
REMARK    1  A    between atoms: C_4  and  N_7
REMARK    2  A    between atoms: C_13  and  C_15
REMARK    3  A    between atoms: C_18  and  N_22
REMARK    4  A    between atoms: C_23  and  C_25
REMARK                            x       y       z     vdW  Elec       q    Type
REMARK                         _______ _______ _______ _____ _____    ______ ____
ROOT
ATOM      1  C   UNL     1       6.947  -3.912   1.095  0.00  0.00    +0.086 C 
ATOM      2  C   UNL     1       8.104  -4.600   1.188  0.00  0.00    +0.021 C 
ATOM      3  N   UNL     1       9.299  -3.974   1.192  0.00  0.00    -0.320 N 
ATOM      4  C   UNL     1      10.430  -4.697   1.816  0.00  0.00    +0.219 C 
ATOM      5  S   UNL     1       9.924  -6.443   1.501  0.00  0.00    -0.114 S 
ATOM      6  C   UNL     1       8.121  -6.116   1.298  0.00  0.00    +0.123 C 
ATOM      7  H   UNL     1       9.412  -3.093   0.803  0.00  0.00    +0.148 HD
ENDROOT
BRANCH   1  14
ATOM      8  N   UNL     1       3.724  -0.507   2.359  0.00  0.00    -0.327 N 
ATOM      9  C   UNL     1       3.728  -1.975   2.431  0.00  0.00    +0.124 C 
ATOM     10  C   UNL     1       4.513  -2.523   1.233  0.00  0.00    +0.127 C 
ATOM     11  N   UNL     1       5.798  -1.814   1.151  0.00  0.00    -0.295 N 
ATOM     12  C   UNL     1       5.795  -0.346   1.078  0.00  0.00    +0.127 C 
ATOM     13  C   UNL     1       5.009   0.201   2.271  0.00  0.00    +0.124 C 
ATOM     14  C   UNL     1       6.960  -2.498   1.142  0.00  0.00    +0.241 C 
ATOM     15  O   UNL     1       8.019  -1.899   1.174  0.00  0.00    -0.271 OA
BRANCH   8  19
ATOM     16  C   UNL     1       0.137   1.607   2.385  0.00  0.00    +0.000 A 
ATOM     17  C   UNL     1       1.339   2.288   2.424  0.00  0.00    +0.002 A 
ATOM     18  C   UNL     1       2.531   1.590   2.416  0.00  0.00    +0.023 A 
ATOM     19  C   UNL     1       2.521   0.202   2.368  0.00  0.00    +0.030 A 
ATOM     20  C   UNL     1       1.311  -0.480   2.329  0.00  0.00    +0.023 A 
ATOM     21  C   UNL     1       0.123   0.225   2.338  0.00  0.00    +0.002 A 
ENDBRANCH   8  19
ENDBRANCH   1  14
BRANCH   4  22
ATOM     22  N   UNL     1      10.509  -4.417   3.252  0.00  0.00    -0.284 N 
ATOM     23  C   UNL     1      11.627  -4.728   3.938  0.00  0.00    +0.251 C 
ATOM     24  O   UNL     1      12.605  -5.149   3.349  0.00  0.00    -0.270 OA
ATOM     25  H   UNL     1       9.758  -4.009   3.709  0.00  0.00    +0.152 HD
BRANCH  23  26
ATOM     26  C   UNL     1      11.665  -4.556   5.398  0.00  0.00    +0.101 A 
ATOM     27  C   UNL     1      12.852  -4.747   6.104  0.00  0.00    +0.020 A 
ATOM     28  C   UNL     1      12.850  -4.576   7.488  0.00  0.00    +0.018 A 
ATOM     29  C   UNL     1      11.705  -4.229   8.129  0.00  0.00    +0.086 A 
ATOM     30  N   UNL     1      10.548  -4.042   7.450  0.00  0.00    -0.328 N 
ATOM     31  C   UNL     1      10.496  -4.189   6.113  0.00  0.00    +0.261 A 
ATOM     32  O   UNL     1       9.447  -4.011   5.518  0.00  0.00    -0.267 OA
ATOM     33  H   UNL     1       9.745  -3.795   7.935  0.00  0.00    +0.168 HD
ENDBRANCH  23  26
ENDBRANCH   4  22
TORSDOF 4
