REMARK  Name = ZINC23761805
REMARK  7 active torsions:
REMARK  status: ('A' for Active; 'I' for Inactive)
REMARK    1  A    between atoms: C_1  and  C_2
REMARK    2  A    between atoms: C_2  and  N_3
REMARK    3  A    between atoms: N_3  and  C_4
REMARK    4  A    between atoms: C_5  and  N_20
REMARK    5  A    between atoms: N_6  and  C_13
REMARK    6  A    between atoms: C_13  and  C_14
REMARK    7  A    between atoms: C_21  and  C_23
REMARK                            x       y       z     vdW  Elec       q    Type
REMARK                         _______ _______ _______ _____ _____    ______ ____
ROOT
ATOM      1  C   UNL     1       1.386   6.840  -0.432  0.00  0.00    +0.140 A 
ATOM      2  C   UNL     1       2.756   7.003  -0.390  0.00  0.00    +0.128 A 
ATOM      3  N   UNL     1       3.299   8.214  -0.754  0.00  0.00    -0.276 N 
ATOM      4  C   UNL     1       2.505   9.229  -1.136  0.00  0.00    +0.331 A 
ATOM      5  O   UNL     1       3.004  10.293  -1.450  0.00  0.00    -0.246 OA
ATOM      6  N   UNL     1       1.167   9.091  -1.177  0.00  0.00    -0.273 N 
ATOM      7  H   UNL     1       0.536   9.935  -1.493  0.00  0.00    +0.173 HD
ATOM      8  C   UNL     1       0.585   7.925  -0.836  0.00  0.00    +0.277 A 
ATOM      9  O   UNL     1      -0.628   7.810  -0.877  0.00  0.00    -0.266 OA
ENDROOT
BRANCH   1  10
ATOM     10  N   UNL     1       0.799   5.610  -0.070  0.00  0.00    -0.258 N 
ATOM     11  C   UNL     1       1.024   4.511  -0.816  0.00  0.00    +0.286 C 
ATOM     12  O   UNL     1       1.789   4.563  -1.762  0.00  0.00    -0.266 OA
BRANCH  11  13
ATOM     13  C   UNL     1       0.347   3.252  -0.490  0.00  0.00    +0.192 A 
ATOM     14  C   UNL     1       0.387   2.105  -1.229  0.00  0.00    +0.056 A 
ATOM     15  C   UNL     1      -0.396   1.159  -0.550  0.00  0.00    +0.063 A 
ATOM     16  C   UNL     1      -0.879   1.766   0.560  0.00  0.00    +0.195 A 
ATOM     17  O   UNL     1      -0.424   3.025   0.595  0.00  0.00    -0.439 OA
ATOM     18 CL   UNL     1      -1.915   1.031   1.744  0.00  0.00    -0.043 Cl
ENDBRANCH  11  13
BRANCH  10  20
ATOM     19  C   UNL     1       0.767   5.020   2.304  0.00  0.00    +0.025 C 
ATOM     20  C   UNL     1      -0.055   5.527   1.118  0.00  0.00    +0.111 C 
ENDBRANCH  10  20
ENDBRANCH   1  10
BRANCH   2  21
ATOM     21  N   UNL     1       3.568   5.967   0.006  0.00  0.00    -0.343 N 
ATOM     22  H   UNL     1       4.659   6.104   0.037  0.00  0.00    +0.144 HD
ATOM     23  H   UNL     1       3.126   5.001   0.292  0.00  0.00    +0.144 HD
ENDBRANCH   2  21
BRANCH   3  24
ATOM     24  C   UNL     1       4.752   8.399  -0.720  0.00  0.00    +0.163 C 
BRANCH  24  25
ATOM     25  C   UNL     1       5.163   8.901   0.640  0.00  0.00    -0.028 A 
ATOM     26  C   UNL     1       5.221  10.260   0.887  0.00  0.00    +0.005 A 
ATOM     27  C   UNL     1       5.593  10.721   2.136  0.00  0.00    +0.000 A 
ATOM     28  C   UNL     1       5.917   9.823   3.136  0.00  0.00    +0.000 A 
ATOM     29  C   UNL     1       5.863   8.464   2.888  0.00  0.00    +0.000 A 
ATOM     30  C   UNL     1       5.486   8.003   1.640  0.00  0.00    +0.005 A 
ENDBRANCH  24  25
ENDBRANCH   3  24
TORSDOF 6
