REMARK  Name = ZINC53778494
REMARK  2 active torsions:
REMARK  status: ('A' for Active; 'I' for Inactive)
REMARK    1  A    between atoms: N_10  and  C_13
REMARK    2  A    between atoms: C_13  and  C_14
REMARK                            x       y       z     vdW  Elec       q    Type
REMARK                         _______ _______ _______ _____ _____    ______ ____
ROOT
ATOM      1  C   UNL     1       0.105  -6.732  -1.556  0.00  0.00    +0.146 A 
ATOM      2  N   UNL     1       0.430  -7.730  -0.753  0.00  0.00    -0.216 NA
ATOM      3  C   UNL     1      -0.455  -8.628  -0.352  0.00  0.00    +0.128 A 
ATOM      4  C   UNL     1      -1.802  -8.519  -0.798  0.00  0.00    +0.051 A 
ATOM      5  C   UNL     1      -2.941  -9.389  -0.485  0.00  0.00    -0.025 A 
ATOM      6  C   UNL     1      -4.122  -9.065  -1.047  0.00  0.00    -0.004 A 
ATOM      7  S   UNL     1      -3.801  -7.603  -1.999  0.00  0.00    -0.073 S 
ATOM      8  C   UNL     1      -2.071  -7.431  -1.650  0.00  0.00    +0.114 A 
ATOM      9  N   UNL     1      -1.128  -6.577  -1.998  0.00  0.00    -0.223 NA
ATOM     10  C   UNL     1      -5.430  -9.783  -0.914  0.00  0.00    +0.043 C 
ATOM     11  C   UNL     1      -5.710 -10.057   0.569  0.00  0.00    +0.005 C 
ATOM     12  C   UNL     1      -5.102 -11.408   0.931  0.00  0.00    +0.001 C 
ATOM     13  C   UNL     1      -3.833 -11.646   0.115  0.00  0.00    +0.005 C 
ATOM     14  C   UNL     1      -2.782 -10.592   0.441  0.00  0.00    +0.037 C 
ATOM     15  N   UNL     1      -0.076  -9.659   0.489  0.00  0.00    -0.343 N 
ATOM     16  H   UNL     1      -0.732 -10.079   1.067  0.00  0.00    +0.144 HD
ATOM     17  H   UNL     1       0.845  -9.961   0.501  0.00  0.00    +0.144 HD
ENDROOT
BRANCH   1  18
ATOM     18  C   UNL     1       1.166  -5.746  -1.972  0.00  0.00    +0.160 C 
BRANCH  18  28
ATOM     19  C   UNL     1      -0.074   1.380   0.014  0.00  0.00    +0.005 A 
ATOM     20  C   UNL     1       1.133   2.066   0.040  0.00  0.00    +0.018 A 
ATOM     21  C   UNL     1       2.315   1.354   0.054  0.00  0.00    +0.084 A 
ATOM     22  N   UNL     1       2.310   0.034   0.043  0.00  0.00    -0.350 N 
ATOM     23  C   UNL     1       1.180  -0.656   0.018  0.00  0.00    +0.099 A 
ATOM     24  C   UNL     1      -0.048  -0.002   0.002  0.00  0.00    +0.042 A 
ATOM     25  N   UNL     1       1.222  -2.045   0.006  0.00  0.00    -0.314 N 
ATOM     26  C   UNL     1       2.501  -2.761  -0.107  0.00  0.00    +0.122 C 
ATOM     27  C   UNL     1       2.386  -3.787  -1.239  0.00  0.00    +0.104 C 
ATOM     28  N   UNL     1       1.215  -4.642  -1.005  0.00  0.00    -0.292 NA
ATOM     29  C   UNL     1      -0.029  -3.861  -1.034  0.00  0.00    +0.104 C 
ATOM     30  C   UNL     1      -0.012  -2.838   0.113  0.00  0.00    +0.122 C 
ATOM     31  H   UNL     1       3.155  -0.442   0.054  0.00  0.00    +0.166 HD
ENDBRANCH  18  28
ENDBRANCH   1  18
TORSDOF 2
