REMARK  Name = ZINC01326491
REMARK  6 active torsions:
REMARK  status: ('A' for Active; 'I' for Inactive)
REMARK    1  A    between atoms: C_1  and  C_2
REMARK    2  A    between atoms: C_3  and  C_30
REMARK    3  A    between atoms: N_7  and  C_8
REMARK    4  A    between atoms: C_8  and  C_10
REMARK    5  A    between atoms: C_14  and  C_25
REMARK    6  A    between atoms: C_17  and  C_21
REMARK                            x       y       z     vdW  Elec       q    Type
REMARK                         _______ _______ _______ _____ _____    ______ ____
ROOT
ATOM      1  C   UNL     1       3.047  -5.181  -0.042  0.00  0.00    +0.112 C 
ATOM      2  C   UNL     1       4.361  -4.843  -0.040  0.00  0.00    +0.072 C 
ATOM      3  C   UNL     1       5.129  -6.084  -0.054  0.00  0.00    +0.114 C 
ATOM      4  N   UNL     1       6.419  -6.270  -0.068  0.00  0.00    -0.362 N 
ATOM      5  C   UNL     1       6.942  -7.641  -0.118  0.00  0.00    +0.149 C 
ATOM      6  C   UNL     1       6.003  -8.601   0.613  0.00  0.00    +0.065 C 
ATOM      7  C   UNL     1       4.601  -8.534  -0.014  0.00  0.00    +0.202 C 
ATOM      8  N   UNL     1       4.205  -7.123  -0.042  0.00  0.00    -0.226 N 
ATOM      9  N   UNL     1       2.933  -6.561  -0.049  0.00  0.00    -0.258 N 
ATOM     10  H   UNL     1       2.099  -7.056  -0.060  0.00  0.00    +0.170 HD
ATOM     11  H   UNL     1       7.026  -5.513  -0.045  0.00  0.00    +0.162 HD
ENDROOT
BRANCH   5  12
ATOM     12  C   UNL     1       7.069  -8.071  -1.557  0.00  0.00    +0.127 A 
ATOM     13  C   UNL     1       8.079  -8.794  -2.075  0.00  0.00    +0.047 A 
ATOM     14  C   UNL     1       7.796  -8.966  -3.450  0.00  0.00    +0.041 A 
ATOM     15  C   UNL     1       6.630  -8.339  -3.689  0.00  0.00    +0.195 A 
ATOM     16  O   UNL     1       6.192  -7.803  -2.538  0.00  0.00    -0.466 OA
ENDBRANCH   5  12
BRANCH   7  17
ATOM     17  C   UNL     1       3.612  -9.338   0.833  0.00  0.00    +0.410 C 
ATOM     18  F   UNL     1       3.565  -8.806   2.126  0.00  0.00    -0.169 F 
ATOM     19  F   UNL     1       2.341  -9.271   0.254  0.00  0.00    -0.169 F 
ATOM     20  F   UNL     1       4.028 -10.673   0.893  0.00  0.00    -0.169 F 
ENDBRANCH   7  17
BRANCH   1  21
ATOM     21  C   UNL     1       1.915  -4.227  -0.031  0.00  0.00    +0.285 C 
ATOM     22  O   UNL     1       0.768  -4.642  -0.028  0.00  0.00    -0.267 OA
BRANCH  21  29
ATOM     23  C   UNL     1      -0.018   1.503   0.010  0.00  0.00    +0.064 C 
ATOM     24  C   UNL     1       0.002  -0.004   0.002  0.00  0.00    +0.024 A 
ATOM     25  C   UNL     1      -1.131  -0.716   0.004  0.00  0.00    +0.009 A 
ATOM     26  S   UNL     1      -0.517  -2.390  -0.008  0.00  0.00    -0.057 S 
ATOM     27  C   UNL     1       1.131  -2.055  -0.015  0.00  0.00    +0.164 A 
ATOM     28  N   UNL     1       1.172  -0.695  -0.013  0.00  0.00    -0.339 N 
ATOM     29  N   UNL     1       2.150  -2.914  -0.025  0.00  0.00    -0.151 NA
ATOM     30  C   UNL     1      -2.558  -0.229   0.014  0.00  0.00    +0.053 C 
ATOM     31  H   UNL     1       2.022  -0.227  -0.020  0.00  0.00    +0.167 HD
ENDBRANCH  21  29
ENDBRANCH   1  21
TORSDOF 4
