REMARK  Name = ZINC10715875
REMARK  3 active torsions:
REMARK  status: ('A' for Active; 'I' for Inactive)
REMARK    1  A    between atoms: C_11  and  C_13
REMARK    2  A    between atoms: C_13  and  S_14
REMARK    3  A    between atoms: S_14  and  C_15
REMARK                            x       y       z     vdW  Elec       q    Type
REMARK                         _______ _______ _______ _____ _____    ______ ____
ROOT
ATOM      1  C   UNL     1      -0.017   1.373   0.010  0.00  0.00    +0.001 A 
ATOM      2  C   UNL     1       1.169   2.096   0.002  0.00  0.00    +0.002 A 
ATOM      3  C   UNL     1       2.387   1.453  -0.013  0.00  0.00    +0.028 A 
ATOM      4  C   UNL     1       2.432   0.058  -0.021  0.00  0.00    +0.078 A 
ATOM      5  C   UNL     1       1.224  -0.674  -0.013  0.00  0.00    +0.065 A 
ATOM      6  C   UNL     1       0.002  -0.004   0.002  0.00  0.00    +0.015 A 
ATOM      7  C   UNL     1       1.306  -2.142  -0.022  0.00  0.00    +0.259 A 
ATOM      8  O   UNL     1       0.302  -2.832  -0.017  0.00  0.00    -0.267 OA
ATOM      9  N   UNL     1       2.540  -2.697  -0.038  0.00  0.00    -0.310 N 
ATOM     10  H   UNL     1       2.633  -3.663  -0.045  0.00  0.00    +0.170 HD
ATOM     11  C   UNL     1       3.650  -1.914  -0.045  0.00  0.00    +0.121 A 
ATOM     12  N   UNL     1       3.609  -0.616  -0.037  0.00  0.00    -0.233 NA
ENDROOT
BRANCH  11  13
ATOM     13  C   UNL     1       4.999  -2.586  -0.063  0.00  0.00    +0.151 C 
BRANCH  13  14
ATOM     14  S   UNL     1       6.303  -1.325  -0.070  0.00  0.00    -0.077 S 
BRANCH  14  15
ATOM     15  C   UNL     1       7.798  -2.258  -0.091  0.00  0.00    +0.210 A 
ATOM     16  N   UNL     1       9.034  -1.746  -0.096  0.00  0.00    -0.188 NA
ATOM     17  C   UNL     1       9.917  -2.722  -0.112  0.00  0.00    +0.209 A 
ATOM     18  N   UNL     1       9.245  -3.892  -0.118  0.00  0.00    -0.246 N 
ATOM     19  H   UNL     1       9.630  -4.782  -0.129  0.00  0.00    +0.192 HD
ATOM     20  N   UNL     1       7.879  -3.567  -0.099  0.00  0.00    -0.144 NA
ATOM     21  N   UNL     1      11.292  -2.574  -0.122  0.00  0.00    -0.328 N 
ATOM     22  H   UNL     1      11.684  -1.686  -0.116  0.00  0.00    +0.145 HD
ATOM     23  H   UNL     1      11.864  -3.357  -0.134  0.00  0.00    +0.145 HD
ENDBRANCH  14  15
ENDBRANCH  13  14
ENDBRANCH  11  13
TORSDOF 3
