REMARK  Name = ZINC34898314
REMARK  12 active torsions:
REMARK  status: ('A' for Active; 'I' for Inactive)
REMARK    1  A    between atoms: C_6  and  O_7
REMARK    2  A    between atoms: O_7  and  C_8
REMARK    3  A    between atoms: C_8  and  C_9
REMARK    4  A    between atoms: C_9  and  C_11
REMARK    5  A    between atoms: C_14  and  O_18
REMARK    6  A    between atoms: C_16  and  O_17
REMARK    7  A    between atoms: O_18  and  C_19
REMARK    8  A    between atoms: C_21  and  O_34
REMARK    9  A    between atoms: C_23  and  O_33
REMARK   10  A    between atoms: C_25  and  O_32
REMARK   11  A    between atoms: C_27  and  C_30
REMARK   12  A    between atoms: C_30  and  O_31
REMARK                            x       y       z     vdW  Elec       q    Type
REMARK                         _______ _______ _______ _____ _____    ______ ____
ROOT
ATOM      1  C   UNL     1      -2.626  -4.177   0.006  0.00  0.00    +0.062 A 
ATOM      2  C   UNL     1      -1.505  -5.018  -0.004  0.00  0.00    +0.019 A 
ATOM      3  C   UNL     1      -1.667  -6.372  -0.010  0.00  0.00    +0.046 A 
ATOM      4  C   UNL     1      -2.944  -6.930  -0.006  0.00  0.00    +0.128 A 
ATOM      5  C   UNL     1      -4.065  -6.112   0.004  0.00  0.00    +0.091 A 
ATOM      6  C   UNL     1      -3.917  -4.736   0.015  0.00  0.00    +0.131 A 
ENDROOT
BRANCH   1   7
ATOM      7  C   UNL     1      -2.455  -2.722   0.012  0.00  0.00    +0.204 C 
ATOM      8  O   UNL     1      -3.427  -1.996   0.025  0.00  0.00    -0.288 OA
BRANCH   7   9
ATOM      9  C   UNL     1      -1.071  -2.126   0.001  0.00  0.00    +0.308 C 
BRANCH   9  10
ATOM     10  O   UNL     1      -1.165  -0.700   0.010  0.00  0.00    -0.484 OA
BRANCH  10  16
ATOM     11  C   UNL     1      -0.017   1.383   0.010  0.00  0.00    +0.048 A 
ATOM     12  C   UNL     1       1.171   2.089   0.002  0.00  0.00    +0.042 A 
ATOM     13  C   UNL     1       2.379   1.413  -0.013  0.00  0.00    +0.124 A 
ATOM     14  C   UNL     1       2.399   0.029  -0.021  0.00  0.00    +0.042 A 
ATOM     15  C   UNL     1       1.213  -0.680  -0.014  0.00  0.00    +0.048 A 
ATOM     16  C   UNL     1       0.002  -0.004   0.002  0.00  0.00    +0.121 A 
ATOM     17  F   UNL     1       3.539   2.105  -0.020  0.00  0.00    -0.205 F 
ENDBRANCH  10  16
ENDBRANCH   9  10
ENDBRANCH   7   9
ENDBRANCH   1   7
BRANCH   6  18
ATOM     18  O   UNL     1      -5.009  -3.933   0.031  0.00  0.00    -0.506 OA
ATOM     19  H   UNL     1      -5.334  -3.695  -0.848  0.00  0.00    +0.292 HD
ENDBRANCH   6  18
BRANCH   4  20
ATOM     20  O   UNL     1      -3.092  -8.278  -0.012  0.00  0.00    -0.461 OA
BRANCH  20  21
ATOM     21  C   UNL     1      -1.897  -9.062  -0.023  0.00  0.00    +0.339 C 
ATOM     22  C   UNL     1      -2.258 -10.545   0.096  0.00  0.00    +0.214 C 
ATOM     23  C   UNL     1      -3.095 -10.958  -1.119  0.00  0.00    +0.180 C 
ATOM     24  C   UNL     1      -2.307 -10.652  -2.396  0.00  0.00    +0.177 C 
ATOM     25  C   UNL     1      -1.944  -9.165  -2.419  0.00  0.00    +0.179 C 
ATOM     26  O   UNL     1      -1.193  -8.841  -1.247  0.00  0.00    -0.331 OA
BRANCH  24  27
ATOM     27  O   UNL     1      -1.113 -11.436  -2.420  0.00  0.00    -0.386 OA
ATOM     28  H   UNL     1      -1.269 -12.390  -2.403  0.00  0.00    +0.210 HD
ENDBRANCH  24  27
BRANCH  23  29
ATOM     29  O   UNL     1      -3.376 -12.357  -1.052  0.00  0.00    -0.386 OA
ATOM     30  H   UNL     1      -3.869 -12.622  -0.263  0.00  0.00    +0.210 HD
ENDBRANCH  23  29
BRANCH  22  31
ATOM     31  O   UNL     1      -1.061 -11.325   0.140  0.00  0.00    -0.383 OA
ATOM     32  H   UNL     1      -0.480 -11.113   0.883  0.00  0.00    +0.210 HD
ENDBRANCH  22  31
BRANCH  25  33
ATOM     33  C   UNL     1      -1.106  -8.863  -3.663  0.00  0.00    +0.190 C 
BRANCH  33  34
ATOM     34  O   UNL     1      -0.866  -7.457  -3.745  0.00  0.00    -0.392 OA
ATOM     35  H   UNL     1      -0.339  -7.192  -4.512  0.00  0.00    +0.210 HD
ENDBRANCH  33  34
ENDBRANCH  25  33
ENDBRANCH  20  21
ENDBRANCH   4  20
TORSDOF 12
