REMARK  Name = ZINC59039727
REMARK  12 active torsions:
REMARK  status: ('A' for Active; 'I' for Inactive)
REMARK    1  A    between atoms: C_1  and  C_2
REMARK    2  A    between atoms: C_2  and  O_3
REMARK    3  A    between atoms: O_3  and  C_4
REMARK    4  A    between atoms: C_6  and  C_11
REMARK    5  A    between atoms: C_9  and  O_10
REMARK    6  A    between atoms: N_12  and  N_13
REMARK    7  A    between atoms: C_16  and  S_19
REMARK    8  A    between atoms: S_19  and  C_20
REMARK    9  A    between atoms: C_20  and  C_21
REMARK   10  A    between atoms: N_23  and  C_24
REMARK   11  A    between atoms: C_27  and  C_31
REMARK   12  A    between atoms: C_29  and  C_30
REMARK                            x       y       z     vdW  Elec       q    Type
REMARK                         _______ _______ _______ _____ _____    ______ ____
ROOT
ATOM      1  N   UNL     1      -0.594  -7.104  -1.350  0.00  0.00    -0.205 N 
ATOM      2  C   UNL     1      -0.487  -8.474  -1.193  0.00  0.00    +0.232 A 
ATOM      3  N   UNL     1       0.093  -9.095  -0.186  0.00  0.00    -0.186 NA
ATOM      4  C   UNL     1       0.008 -10.417  -0.365  0.00  0.00    +0.211 A 
ATOM      5  N   UNL     1      -0.627 -10.656  -1.487  0.00  0.00    -0.144 NA
ATOM      6  N   UNL     1      -0.964  -9.410  -2.040  0.00  0.00    -0.245 N 
ATOM      7  H   UNL     1      -1.046  -6.739  -2.127  0.00  0.00    +0.177 HD
ATOM      8  H   UNL     1      -1.443  -9.253  -2.869  0.00  0.00    +0.192 HD
ENDROOT
BRANCH   1  10
ATOM      9  C   UNL     1      -0.150  -4.958  -0.536  0.00  0.00    +0.138 C 
ATOM     10  N   UNL     1      -0.050  -6.244  -0.388  0.00  0.00    -0.188 NA
BRANCH   9  13
ATOM     11  C   UNL     1       0.853  -1.824   1.273  0.00  0.00    +0.162 A 
ATOM     12  C   UNL     1       0.315  -2.669   0.320  0.00  0.00    +0.059 A 
ATOM     13  C   UNL     1       0.422  -4.053   0.477  0.00  0.00    -0.002 A 
ATOM     14  C   UNL     1       1.073  -4.577   1.597  0.00  0.00    +0.013 A 
ATOM     15  C   UNL     1       1.607  -3.728   2.544  0.00  0.00    +0.050 A 
ATOM     16  C   UNL     1       1.505  -2.354   2.384  0.00  0.00    +0.158 A 
BRANCH  16  17
ATOM     17  O   UNL     1       2.039  -1.521   3.318  0.00  0.00    -0.503 OA
ATOM     18  H   UNL     1       1.429  -1.289   4.032  0.00  0.00    +0.292 HD
ENDBRANCH  16  17
BRANCH  11  19
ATOM     19  O   UNL     1       0.751  -0.476   1.123  0.00  0.00    -0.489 OA
BRANCH  19  21
ATOM     20  C   UNL     1       0.055   1.527  -0.036  0.00  0.00    +0.048 C 
ATOM     21  C   UNL     1       0.069  -0.003  -0.040  0.00  0.00    +0.226 C 
ENDBRANCH  19  21
ENDBRANCH  11  19
ENDBRANCH   9  13
ENDBRANCH   1  10
BRANCH   4  22
ATOM     22  S   UNL     1       0.646 -11.641   0.731  0.00  0.00    -0.075 S 
BRANCH  22  23
ATOM     23  C   UNL     1       0.213 -13.212  -0.066  0.00  0.00    +0.173 C 
BRANCH  23  24
ATOM     24  C   UNL     1       0.708 -14.357   0.779  0.00  0.00    +0.227 C 
ATOM     25  O   UNL     1       1.296 -14.135   1.817  0.00  0.00    -0.275 OA
ATOM     26  N   UNL     1       0.498 -15.628   0.382  0.00  0.00    -0.285 N 
ATOM     27  H   UNL     1      -0.040 -15.807  -0.404  0.00  0.00    +0.155 HD
BRANCH  26  28
ATOM     28  C   UNL     1       1.057 -16.688   1.105  0.00  0.00    +0.036 A 
ATOM     29  C   UNL     1       2.196 -16.483   1.873  0.00  0.00    +0.024 A 
ATOM     30  C   UNL     1       2.745 -17.531   2.585  0.00  0.00    +0.005 A 
ATOM     31  C   UNL     1       2.162 -18.784   2.534  0.00  0.00    -0.050 A 
ATOM     32  C   UNL     1       1.028 -18.991   1.770  0.00  0.00    +0.008 A 
ATOM     33  C   UNL     1       0.470 -17.945   1.061  0.00  0.00    -0.029 A 
ATOM     34  C   UNL     1      -0.770 -18.171   0.234  0.00  0.00    +0.045 C 
ATOM     35  C   UNL     1       2.763 -19.926   3.312  0.00  0.00    +0.044 C 
ENDBRANCH  26  28
ENDBRANCH  23  24
ENDBRANCH  22  23
ENDBRANCH   4  22
TORSDOF 9
