REMARK  Name = ZINC02534960
REMARK  8 active torsions:
REMARK  status: ('A' for Active; 'I' for Inactive)
REMARK    1  A    between atoms: C_1  and  C_2
REMARK    2  A    between atoms: C_5  and  C_17
REMARK    3  A    between atoms: C_7  and  O_8
REMARK    4  A    between atoms: O_8  and  C_9
REMARK    5  A    between atoms: C_9  and  N_10
REMARK    6  A    between atoms: C_11  and  C_16
REMARK    7  A    between atoms: C_17  and  C_18
REMARK    8  A    between atoms: C_17  and  C_19
REMARK                            x       y       z     vdW  Elec       q    Type
REMARK                         _______ _______ _______ _____ _____    ______ ____
ROOT
ATOM      1  O   UNL     1      -1.165  -0.701   0.009  0.00  0.00    -0.470 OA
ENDROOT
BRANCH   1   8
ATOM      2  C   UNL     1       1.238  -2.186  -0.022  0.00  0.00    +0.047 C 
ATOM      3  C   UNL     1       1.214  -0.679  -0.013  0.00  0.00    -0.009 A 
ATOM      4  C   UNL     1       2.399   0.032  -0.021  0.00  0.00    +0.007 A 
ATOM      5  C   UNL     1       2.377   1.414  -0.013  0.00  0.00    +0.004 A 
ATOM      6  C   UNL     1       1.171   2.089   0.002  0.00  0.00    -0.041 A 
ATOM      7  C   UNL     1      -0.017   1.383   0.010  0.00  0.00    +0.050 A 
ATOM      8  C   UNL     1       0.002  -0.004   0.002  0.00  0.00    +0.126 A 
BRANCH   6   9
ATOM      9  C   UNL     1       1.151   3.596   0.010  0.00  0.00    +0.013 C 
ATOM     10  C   UNL     1       1.877   4.109   1.255  0.00  0.00    +0.012 C 
ATOM     11  C   UNL     1       1.854   4.122  -1.243  0.00  0.00    +0.012 C 
ENDBRANCH   6   9
ENDBRANCH   1   8
BRANCH   1  12
ATOM     12  C   UNL     1      -2.374   0.060   0.024  0.00  0.00    +0.374 C 
BRANCH  12  13
ATOM     13  N   UNL     1      -3.523  -0.849   0.030  0.00  0.00    -0.231 N 
ATOM     14  C   UNL     1      -4.135  -1.347   1.125  0.00  0.00    +0.042 A 
ATOM     15  C   UNL     1      -5.146  -2.143   0.710  0.00  0.00    +0.067 A 
ATOM     16  C   UNL     1      -5.154  -2.131  -0.695  0.00  0.00    +0.138 A 
ATOM     17  N   UNL     1      -4.182  -1.349  -1.101  0.00  0.00    -0.153 NA
ATOM     18  N   UNL     1      -6.048  -2.827  -1.518  0.00  0.00    -0.342 N 
ATOM     19  C   UNL     1      -3.757  -1.067   2.557  0.00  0.00    +0.065 C 
ATOM     20  H   UNL     1      -6.741  -3.380  -1.123  0.00  0.00    +0.144 HD
ATOM     21  H   UNL     1      -5.974  -2.757  -2.482  0.00  0.00    +0.144 HD
ENDBRANCH  12  13
ENDBRANCH   1  12
TORSDOF 4
