REMARK  Name = ZINC12411455
REMARK  9 active torsions:
REMARK  status: ('A' for Active; 'I' for Inactive)
REMARK    1  A    between atoms: C_1  and  C_2
REMARK    2  A    between atoms: C_2  and  O_3
REMARK    3  A    between atoms: O_3  and  C_4
REMARK    4  A    between atoms: C_6  and  C_11
REMARK    5  A    between atoms: C_9  and  O_10
REMARK    6  A    between atoms: N_12  and  N_13
REMARK    7  A    between atoms: C_14  and  C_16
REMARK    8  A    between atoms: C_17  and  C_27
REMARK    9  A    between atoms: C_27  and  N_61
REMARK                            x       y       z     vdW  Elec       q    Type
REMARK                         _______ _______ _______ _____ _____    ______ ____
ROOT
ATOM      1  C   UNL     1      -1.552   6.349   3.209  0.00  0.00    +0.170 A 
ATOM      2  C   UNL     1      -0.591   5.780   2.422  0.00  0.00    +0.063 A 
ATOM      3  N   UNL     1       0.536   5.716   3.166  0.00  0.00    -0.194 N 
ATOM      4  N   UNL     1       0.227   6.271   4.416  0.00  0.00    -0.058 NA
ATOM      5  N   UNL     1      -1.010   6.630   4.407  0.00  0.00    -0.124 NA
ATOM      6  C   UNL     1       1.772   5.199   2.764  0.00  0.00    +0.240 A 
ATOM      7  C   UNL     1       2.951   5.033   3.620  0.00  0.00    +0.206 A 
ATOM      8  N   UNL     1       3.912   4.522   2.900  0.00  0.00    -0.032 NA
ATOM      9  O   UNL     1       3.418   4.339   1.585  0.00  0.00    -0.239 OA
ATOM     10  N   UNL     1       2.071   4.778   1.568  0.00  0.00    -0.027 NA
ATOM     11  N   UNL     1       3.031   5.363   4.968  0.00  0.00    -0.337 N 
ATOM     12  H   UNL     1       2.261   5.740   5.422  0.00  0.00    +0.144 HD
ATOM     13  H   UNL     1       3.857   5.217   5.455  0.00  0.00    +0.144 HD
ENDROOT
BRANCH   1  15
ATOM     14  N   UNL     1      -3.801   7.182   3.685  0.00  0.00    -0.202 N 
ATOM     15  C   UNL     1      -2.947   6.612   2.811  0.00  0.00    +0.285 C 
ATOM     16  O   UNL     1      -3.329   6.314   1.695  0.00  0.00    -0.267 OA
ATOM     17  H   UNL     1      -3.497   7.420   4.575  0.00  0.00    +0.178 HD
BRANCH  14  19
ATOM     18  C   UNL     1      -5.949   7.980   4.149  0.00  0.00    +0.138 C 
ATOM     19  N   UNL     1      -5.127   7.431   3.308  0.00  0.00    -0.187 NA
BRANCH  18  22
ATOM     20  C   UNL     1      -9.538   9.077   4.279  0.00  0.00    +0.162 A 
ATOM     21  C   UNL     1      -8.230   8.834   4.656  0.00  0.00    +0.059 A 
ATOM     22  C   UNL     1      -7.344   8.243   3.752  0.00  0.00    -0.002 A 
ATOM     23  C   UNL     1      -7.782   7.906   2.468  0.00  0.00    +0.013 A 
ATOM     24  C   UNL     1      -9.089   8.147   2.101  0.00  0.00    +0.050 A 
ATOM     25  C   UNL     1      -9.969   8.733   2.999  0.00  0.00    +0.158 A 
BRANCH  25  26
ATOM     26  O   UNL     1     -11.255   8.974   2.630  0.00  0.00    -0.503 OA
ATOM     27  H   UNL     1     -11.393   9.843   2.229  0.00  0.00    +0.292 HD
ENDBRANCH  25  26
BRANCH  20  28
ATOM     28  O   UNL     1     -10.403   9.652   5.156  0.00  0.00    -0.489 OA
BRANCH  28  30
ATOM     29  C   UNL     1     -11.003  10.611   7.292  0.00  0.00    +0.048 C 
ATOM     30  C   UNL     1      -9.893   9.978   6.451  0.00  0.00    +0.226 C 
ENDBRANCH  28  30
ENDBRANCH  20  28
ENDBRANCH  18  22
ENDBRANCH  14  19
ENDBRANCH   1  15
BRANCH   2  31
ATOM     31  C   UNL     1      -0.758   5.308   1.000  0.00  0.00    -0.020 C 
BRANCH  31  38
ATOM     32  C   UNL     1      -0.410   2.970   1.568  0.00  0.00    -0.078 C 
ATOM     33  C   UNL     1      -0.855   1.550   1.339  0.00  0.00    -0.019 C 
ATOM     34  C   UNL     1      -0.183   1.029   0.052  0.00  0.00    -0.002 C 
ATOM     35  C   UNL     1      -0.850   1.515  -1.151  0.00  0.00    -0.002 C 
ATOM     36  C   UNL     1      -0.817   3.054  -1.255  0.00  0.00    -0.019 C 
ATOM     37  C   UNL     1      -1.872   3.617  -0.343  0.00  0.00    -0.078 C 
ATOM     38  N   UNL     1      -1.388   3.978   1.033  0.00  0.00    +0.383 N 
ATOM     39  H   UNL     1      -2.197   4.011   1.663  0.00  0.00    -0.081 HD
ENDBRANCH  31  38
ENDBRANCH   2  31
TORSDOF 8
