REMARK  Name = ZINC38576607
REMARK  14 active torsions:
REMARK  status: ('A' for Active; 'I' for Inactive)
REMARK    1  A    between atoms: C_1  and  C_2
REMARK    2  A    between atoms: N_6  and  C_7
REMARK    3  A    between atoms: C_7  and  C_9
REMARK    4  A    between atoms: C_9  and  C_11
REMARK    5  A    between atoms: C_9  and  N_15
REMARK    6  A    between atoms: C_11  and  C_12
REMARK    7  A    between atoms: C_12  and  S_13
REMARK    8  A    between atoms: S_13  and  C_14
REMARK    9  A    between atoms: C_16  and  C_18
REMARK   10  A    between atoms: C_18  and  N_19
REMARK   11  A    between atoms: C_24  and  O_32
REMARK   12  A    between atoms: C_25  and  O_30
REMARK   13  A    between atoms: O_30  and  C_31
REMARK   14  A    between atoms: O_32  and  C_33
REMARK                            x       y       z     vdW  Elec       q    Type
REMARK                         _______ _______ _______ _____ _____    ______ ____
ROOT
ATOM      1  N   UNL     1       0.070  -2.804   5.763  0.00  0.00    -0.303 N 
ATOM      2  C   UNL     1      -0.409  -3.404   6.871  0.00  0.00    +0.231 C 
ATOM      3  O   UNL     1      -0.837  -4.537   6.811  0.00  0.00    -0.274 OA
ATOM      4  H   UNL     1       0.413  -1.898   5.812  0.00  0.00    +0.149 HD
ENDROOT
BRANCH   1   5
ATOM      5  C   UNL     1       0.074  -3.522   4.486  0.00  0.00    +0.162 C 
BRANCH   5   6
ATOM      6  C   UNL     1       0.054  -2.529   3.353  0.00  0.00    +0.259 C 
ATOM      7  O   UNL     1       0.038  -1.335   3.589  0.00  0.00    -0.272 OA
BRANCH   6  13
ATOM      8  C   UNL     1      -0.018   1.503   0.010  0.00  0.00    +0.064 C 
ATOM      9  C   UNL     1       0.002  -0.004   0.002  0.00  0.00    +0.021 A 
ATOM     10  C   UNL     1       0.006  -0.694  -1.144  0.00  0.00    +0.069 A 
ATOM     11  S   UNL     1       0.033  -2.379  -0.561  0.00  0.00    -0.060 S 
ATOM     12  C   UNL     1       0.036  -2.076   1.093  0.00  0.00    +0.163 A 
ATOM     13  N   UNL     1       0.054  -2.955   2.096  0.00  0.00    -0.155 NA
ATOM     14  N   UNL     1       0.023  -0.718   1.159  0.00  0.00    -0.340 N 
ATOM     15  H   UNL     1       0.025  -0.266   2.018  0.00  0.00    +0.167 HD
ENDBRANCH   6  13
ENDBRANCH   5   6
BRANCH   5  16
ATOM     16  C   UNL     1       1.335  -4.382   4.388  0.00  0.00    +0.042 C 
BRANCH  16  17
ATOM     17  C   UNL     1       1.295  -5.470   5.463  0.00  0.00    +0.071 C 
BRANCH  17  18
ATOM     18  S   UNL     1       2.790  -6.491   5.346  0.00  0.00    -0.164 S 
ATOM     19  C   UNL     1       2.590  -7.715   6.670  0.00  0.00    +0.084 C 
ENDBRANCH  17  18
ENDBRANCH  16  17
ENDBRANCH   5  16
ENDBRANCH   1   5
BRANCH   2  20
ATOM     20  C   UNL     1      -0.413  -2.666   8.186  0.00  0.00    +0.205 C 
BRANCH  20  21
ATOM     21  N   UNL     1      -0.979  -3.527   9.227  0.00  0.00    -0.273 N 
ATOM     22  C   UNL     1      -2.420  -3.500   9.476  0.00  0.00    +0.214 C 
ATOM     23  N   UNL     1      -2.889  -4.825   9.898  0.00  0.00    -0.328 N 
ATOM     24  C   UNL     1      -2.131  -5.540  10.823  0.00  0.00    +0.044 A 
ATOM     25  C   UNL     1      -2.712  -6.443  11.693  0.00  0.00    +0.073 A 
ATOM     26  C   UNL     1      -1.917  -7.145  12.588  0.00  0.00    +0.163 A 
ATOM     27  C   UNL     1      -0.536  -6.944  12.613  0.00  0.00    +0.162 A 
ATOM     28  C   UNL     1       0.053  -6.039  11.753  0.00  0.00    +0.064 A 
ATOM     29  C   UNL     1      -0.742  -5.324  10.854  0.00  0.00    +0.061 A 
ATOM     30  C   UNL     1      -0.163  -4.333   9.935  0.00  0.00    +0.250 C 
ATOM     31  O   UNL     1       1.044  -4.240   9.817  0.00  0.00    -0.270 OA
ATOM     32  H   UNL     1      -3.710  -5.196   9.540  0.00  0.00    +0.148 HD
BRANCH  27  33
ATOM     33  O   UNL     1       0.234  -7.643  13.490  0.00  0.00    -0.491 OA
ATOM     34  C   UNL     1       1.640  -7.390  13.464  0.00  0.00    +0.277 C 
ENDBRANCH  27  33
BRANCH  26  35
ATOM     35  O   UNL     1      -2.486  -8.032  13.444  0.00  0.00    -0.491 OA
ATOM     36  C   UNL     1      -3.904  -8.190  13.367  0.00  0.00    +0.277 C 
ENDBRANCH  26  35
ENDBRANCH  20  21
ENDBRANCH   2  20
TORSDOF 10
