REMARK  Name = ZINC35382017
REMARK  5 active torsions:
REMARK  status: ('A' for Active; 'I' for Inactive)
REMARK    1  A    between atoms: C_1  and  C_2
REMARK    2  A    between atoms: C_4  and  C_8
REMARK    3  A    between atoms: C_5  and  C_7
REMARK    4  A    between atoms: C_8  and  C_10
REMARK    5  A    between atoms: C_8  and  N_21
REMARK                            x       y       z     vdW  Elec       q    Type
REMARK                         _______ _______ _______ _____ _____    ______ ____
ROOT
ATOM      1  C   UNL     1      -1.435  -3.387  -0.009  0.00  0.00    -0.008 C 
ENDROOT
BRANCH   1   2
ATOM      2  C   UNL     1      -1.618  -3.866  -1.426  0.00  0.00    -0.036 A 
ATOM      3  C   UNL     1      -2.692  -3.418  -2.172  0.00  0.00    +0.053 A 
ATOM      4  C   UNL     1      -2.862  -3.856  -3.477  0.00  0.00    +0.162 A 
ATOM      5  C   UNL     1      -1.949  -4.745  -4.033  0.00  0.00    +0.163 A 
ATOM      6  C   UNL     1      -0.875  -5.192  -3.279  0.00  0.00    +0.069 A 
ATOM      7  C   UNL     1      -0.708  -4.748  -1.979  0.00  0.00    +0.047 A 
ATOM      8 CL   UNL     1       0.642  -5.304  -1.040  0.00  0.00    -0.083 Cl
ATOM      9  O   UNL     1      -2.094  -5.181  -5.314  0.00  0.00    -0.485 OA
ATOM     10  C   UNL     1      -3.382  -5.003  -5.913  0.00  0.00    +0.270 C 
ATOM     11  C   UNL     1      -3.856  -3.574  -5.619  0.00  0.00    +0.270 C 
ATOM     12  O   UNL     1      -3.926  -3.409  -4.198  0.00  0.00    -0.485 OA
ENDBRANCH   1   2
BRANCH   1  16
ATOM     13  C   UNL     1       1.301   0.651  -1.477  0.00  0.00    +0.086 C 
ATOM     14  C   UNL     1       0.667  -0.436  -0.649  0.00  0.00    +0.102 A 
ATOM     15  C   UNL     1      -0.168  -1.387  -1.105  0.00  0.00    +0.047 A 
ATOM     16  C   UNL     1      -0.518  -2.191   0.003  0.00  0.00    -0.017 A 
ATOM     17  C   UNL     1       0.123  -1.684   1.071  0.00  0.00    +0.104 A 
ATOM     18  O   UNL     1       0.845  -0.625   0.669  0.00  0.00    -0.465 OA
ATOM     19  C   UNL     1       0.050  -2.217   2.479  0.00  0.00    +0.086 C 
ENDBRANCH   1  16
BRANCH   1  20
ATOM     20  N   UNL     1      -2.739  -3.010   0.553  0.00  0.00    +0.385 N 
ATOM     21  H   UNL     1      -3.143  -2.270  -0.003  0.00  0.00    -0.089 HD
ATOM     22  H   UNL     1      -3.353  -3.810   0.545  0.00  0.00    -0.089 HD
ATOM     23  H   UNL     1      -2.617  -2.689   1.502  0.00  0.00    -0.089 HD
ENDBRANCH   1  20
TORSDOF 3
