REMARK  Name = ZINC26727150
REMARK  2 active torsions:
REMARK  status: ('A' for Active; 'I' for Inactive)
REMARK    1  A    between atoms: C_5  and  C_6
REMARK    2  A    between atoms: C_6  and  N_7
REMARK                            x       y       z     vdW  Elec       q    Type
REMARK                         _______ _______ _______ _____ _____    ______ ____
ROOT
ATOM      1  N   UNL     1       4.234   2.002   1.354  0.00  0.00    -0.324 N 
ATOM      2  C   UNL     1       5.516   2.460   1.598  0.00  0.00    +0.130 A 
ATOM      3  C   UNL     1       5.984   2.616   2.932  0.00  0.00    +0.047 A 
ATOM      4  C   UNL     1       5.304   2.361   4.190  0.00  0.00    +0.021 A 
ATOM      5  C   UNL     1       5.954   2.585   5.342  0.00  0.00    +0.048 A 
ATOM      6  S   UNL     1       7.555   3.164   4.811  0.00  0.00    -0.077 S 
ATOM      7  C   UNL     1       7.308   3.090   3.057  0.00  0.00    +0.113 A 
ATOM      8  N   UNL     1       8.043   3.364   1.998  0.00  0.00    -0.228 NA
ATOM      9  C   UNL     1       7.553   3.199   0.784  0.00  0.00    +0.224 A 
ATOM     10  N   UNL     1       6.324   2.754   0.592  0.00  0.00    -0.220 NA
ATOM     11  H   UNL     1       3.569   1.756   2.195  0.00  0.00    +0.148 HD
ENDROOT
BRANCH   1  12
ATOM     12  C   UNL     1       3.761   1.845  -0.024  0.00  0.00    +0.145 C 
BRANCH  12  17
ATOM     13  C   UNL     1       1.184   2.038   0.002  0.00  0.00    +0.014 A 
ATOM     14  C   UNL     1      -0.016   1.352   0.009  0.00  0.00    +0.028 A 
ATOM     15  C   UNL     1       0.002  -0.004   0.002  0.00  0.00    +0.078 A 
ATOM     16  S   UNL     1       1.754  -0.349  -0.017  0.00  0.00    -0.080 S 
ATOM     17  C   UNL     1       2.343   1.336  -0.013  0.00  0.00    +0.008 A 
ATOM     18 CL   UNL     1      -1.331  -1.116   0.008  0.00  0.00    -0.076 Cl
ENDBRANCH  12  17
ENDBRANCH   1  12
TORSDOF 2
