REMARK  Name = ZINC62497005
REMARK  7 active torsions:
REMARK  status: ('A' for Active; 'I' for Inactive)
REMARK    1  A    between atoms: C_1  and  C_2
REMARK    2  A    between atoms: C_2  and  C_3
REMARK    3  A    between atoms: C_2  and  C_4
REMARK    4  A    between atoms: C_7  and  C_10
REMARK    5  A    between atoms: C_10  and  C_11
REMARK    6  A    between atoms: N_15  and  C_24
REMARK    7  A    between atoms: C_19  and  N_23
REMARK                            x       y       z     vdW  Elec       q    Type
REMARK                         _______ _______ _______ _____ _____    ______ ____
ROOT
ATOM      1  C   UNL     1       2.614  -0.923   5.830  0.00  0.00    +0.263 C 
ATOM      2  C   UNL     1       3.237  -1.482   7.085  0.00  0.00    +0.261 C 
ATOM      3  O   UNL     1       2.564  -2.119   7.867  0.00  0.00    -0.271 OA
ATOM      4  N   UNL     1       4.547  -1.271   7.332  0.00  0.00    -0.268 N 
ATOM      5  C   UNL     1       5.278  -0.427   6.481  0.00  0.00    +0.078 A 
ATOM      6  C   UNL     1       6.660  -0.368   6.567  0.00  0.00    +0.029 A 
ATOM      7  C   UNL     1       7.369   0.457   5.714  0.00  0.00    +0.025 A 
ATOM      8  C   UNL     1       6.699   1.226   4.771  0.00  0.00    +0.028 A 
ATOM      9  C   UNL     1       5.314   1.173   4.686  0.00  0.00    +0.070 A 
ATOM     10  C   UNL     1       4.602   0.351   5.543  0.00  0.00    +0.145 A 
ATOM     11  O   UNL     1       3.244   0.314   5.491  0.00  0.00    -0.477 OA
ATOM     12  C   UNL     1       5.198  -1.915   8.476  0.00  0.00    +0.138 C 
ENDROOT
BRANCH   8  13
ATOM     13  N   UNL     1       7.420   2.056   3.906  0.00  0.00    -0.358 N 
ATOM     14  H   UNL     1       8.387   2.094   3.965  0.00  0.00    +0.142 HD
ATOM     15  H   UNL     1       6.953   2.593   3.248  0.00  0.00    +0.142 HD
ENDBRANCH   8  13
BRANCH   1  16
ATOM     16  C   UNL     1       2.797  -1.919   4.683  0.00  0.00    +0.089 C 
BRANCH  16  20
ATOM     17  C   UNL     1       0.731  -0.503   1.223  0.00  0.00    -0.045 A 
ATOM     18  C   UNL     1       2.050  -0.148   1.434  0.00  0.00    +0.004 A 
ATOM     19  C   UNL     1       2.719  -0.606   2.554  0.00  0.00    +0.004 A 
ATOM     20  C   UNL     1       2.068  -1.419   3.463  0.00  0.00    -0.043 A 
ATOM     21  C   UNL     1       0.749  -1.773   3.252  0.00  0.00    +0.004 A 
ATOM     22  C   UNL     1       0.079  -1.312   2.135  0.00  0.00    +0.004 A 
BRANCH  17  24
ATOM     23  C   UNL     1      -0.019   1.526   0.010  0.00  0.00    +0.012 C 
ATOM     24  C   UNL     1       0.002  -0.004   0.002  0.00  0.00    +0.013 C 
ATOM     25  C   UNL     1       0.718  -0.497  -1.257  0.00  0.00    +0.012 C 
ENDBRANCH  17  24
ENDBRANCH  16  20
ENDBRANCH   1  16
TORSDOF 4
