REMARK  Name = ZINC39408785
REMARK  4 active torsions:
REMARK  status: ('A' for Active; 'I' for Inactive)
REMARK    1  A    between atoms: C_1  and  C_2
REMARK    2  A    between atoms: C_7  and  C_12
REMARK    3  A    between atoms: C_14  and  N_26
REMARK    4  A    between atoms: N_16  and  C_20
REMARK                            x       y       z     vdW  Elec       q    Type
REMARK                         _______ _______ _______ _____ _____    ______ ____
ROOT
ATOM      1  C   UNL     1      -5.627   3.540  -4.581  0.00  0.00    +0.154 C 
ATOM      2  C   UNL     1      -5.450   4.849  -5.394  0.00  0.00    +0.166 C 
ATOM      3  N   UNL     1      -4.780   4.600  -6.658  0.00  0.00    -0.272 N 
ATOM      4  C   UNL     1      -4.762   3.357  -7.177  0.00  0.00    +0.115 C 
ATOM      5  S   UNL     1      -4.087   2.864  -8.671  0.00  0.00    -0.028 S 
ATOM      6  S   UNL     1      -5.595   2.332  -5.973  0.00  0.00    -0.088 S 
ENDROOT
BRANCH   1  13
ATOM      7  C   UNL     1      -0.899   2.272   1.026  0.00  0.00    +0.044 C 
ATOM      8  C   UNL     1      -1.455   2.572  -0.343  0.00  0.00    -0.048 A 
ATOM      9  C   UNL     1      -0.589   2.786  -1.406  0.00  0.00    +0.005 A 
ATOM     10  C   UNL     1      -1.072   3.059  -2.655  0.00  0.00    +0.030 A 
ATOM     11  C   UNL     1      -2.451   3.125  -2.868  0.00  0.00    +0.089 A 
ATOM     12  N   UNL     1      -3.219   3.370  -3.961  0.00  0.00    -0.231 NA
ATOM     13  C   UNL     1      -4.477   3.319  -3.632  0.00  0.00    +0.125 A 
ATOM     14  H   UNL     1      -5.434   2.946  -1.815  0.00  0.00    +0.167 HD
ATOM     15  N   UNL     1      -4.603   3.038  -2.307  0.00  0.00    -0.341 N 
ATOM     16  C   UNL     1      -3.328   2.909  -1.792  0.00  0.00    +0.066 A 
ATOM     17  C   UNL     1      -2.819   2.628  -0.531  0.00  0.00    +0.031 A 
ENDBRANCH   1  13
BRANCH   3  18
ATOM     18  C   UNL     1      -4.152   5.650  -7.335  0.00  0.00    +0.036 A 
ATOM     19  C   UNL     1      -4.664   6.103  -8.544  0.00  0.00    +0.023 A 
ATOM     20  C   UNL     1      -4.043   7.140  -9.211  0.00  0.00    +0.002 A 
ATOM     21  C   UNL     1      -2.911   7.728  -8.676  0.00  0.00    +0.000 A 
ATOM     22  C   UNL     1      -2.398   7.279  -7.473  0.00  0.00    +0.002 A 
ATOM     23  C   UNL     1      -3.018   6.246  -6.798  0.00  0.00    +0.023 A 
ENDBRANCH   3  18
BRANCH   2  24
ATOM     24  N   UNL     1      -6.772   5.432  -5.660  0.00  0.00    -0.311 NA
ATOM     25  H   UNL     1      -6.690   6.287  -6.190  0.00  0.00    +0.120 HD
ATOM     26  H   UNL     1      -7.370   4.770  -6.132  0.00  0.00    +0.120 HD
ENDBRANCH   2  24
TORSDOF 3
