REMARK  Name = ZINC40320944
REMARK  6 active torsions:
REMARK  status: ('A' for Active; 'I' for Inactive)
REMARK    1  A    between atoms: C_1  and  C_2
REMARK    2  A    between atoms: C_2  and  C_3
REMARK    3  A    between atoms: C_2  and  N_4
REMARK    4  A    between atoms: C_6  and  N_21
REMARK    5  A    between atoms: C_8  and  C_9
REMARK    6  A    between atoms: C_16  and  C_18
REMARK                            x       y       z     vdW  Elec       q    Type
REMARK                         _______ _______ _______ _____ _____    ______ ____
ROOT
ATOM      1  C   UNL     1      -1.191  -2.185  -1.979  0.00  0.00    +0.264 C 
ATOM      2  O   UNL     1      -1.791  -2.859  -2.796  0.00  0.00    -0.268 OA
ATOM      3  N   UNL     1       0.118  -1.918  -2.157  0.00  0.00    -0.285 N 
ATOM      4  C   UNL     1       0.899  -1.260  -1.100  0.00  0.00    +0.109 C 
ATOM      5  C   UNL     1       1.588  -0.027  -1.692  0.00  0.00    +0.019 C 
ATOM      6  C   UNL     1       2.410  -0.444  -2.913  0.00  0.00    +0.004 C 
ATOM      7  C   UNL     1       1.483  -1.035  -3.977  0.00  0.00    +0.032 C 
ATOM      8  C   UNL     1       0.793  -2.285  -3.409  0.00  0.00    +0.162 C 
ENDROOT
BRANCH   1  13
ATOM      9  N   UNL     1      -3.005  -2.215  -0.209  0.00  0.00    -0.339 N 
ATOM     10  C   UNL     1      -3.354  -1.449   0.859  0.00  0.00    +0.109 A 
ATOM     11  C   UNL     1      -2.483  -0.411   0.956  0.00  0.00    +0.043 A 
ATOM     12  C   UNL     1      -1.556  -0.531  -0.089  0.00  0.00    +0.055 A 
ATOM     13  C   UNL     1      -1.892  -1.664  -0.801  0.00  0.00    +0.107 A 
BRANCH   9  15
ATOM     14  C   UNL     1      -3.786  -4.417   0.513  0.00  0.00    +0.030 C 
ATOM     15  C   UNL     1      -3.695  -3.429  -0.651  0.00  0.00    +0.081 C 
ATOM     16  C   UNL     1      -5.104  -3.070  -1.127  0.00  0.00    +0.030 C 
ENDBRANCH   9  15
BRANCH  11  17
ATOM     17  N   UNL     1      -2.507   0.605   1.930  0.00  0.00    -0.357 N 
ATOM     18  H   UNL     1      -3.193   0.603   2.616  0.00  0.00    +0.142 HD
ATOM     19  H   UNL     1      -1.838   1.307   1.915  0.00  0.00    +0.142 HD
ENDBRANCH  11  17
ENDBRANCH   1  13
BRANCH   8  20
ATOM     20  C   UNL     1      -0.221  -2.798  -4.399  0.00  0.00    +0.231 C 
ATOM     21  O   UNL     1      -1.129  -2.082  -4.763  0.00  0.00    -0.274 OA
ATOM     22  N   UNL     1      -0.119  -4.054  -4.878  0.00  0.00    -0.328 N 
ATOM     23  H   UNL     1       0.607  -4.627  -4.587  0.00  0.00    +0.145 HD
ATOM     24  H   UNL     1      -0.772  -4.384  -5.515  0.00  0.00    +0.145 HD
ENDBRANCH   8  20
TORSDOF 4
