REMARK  Name = ZINC67354217
REMARK  8 active torsions:
REMARK  status: ('A' for Active; 'I' for Inactive)
REMARK    1  A    between atoms: C_1  and  C_2
REMARK    2  A    between atoms: C_2  and  C_4
REMARK    3  A    between atoms: C_2  and  N_12
REMARK    4  A    between atoms: C_4  and  C_5
REMARK    5  A    between atoms: C_8  and  O_11
REMARK    6  A    between atoms: N_15  and  C_16
REMARK    7  A    between atoms: C_19  and  S_23
REMARK    8  A    between atoms: S_23  and  C_26
REMARK                            x       y       z     vdW  Elec       q    Type
REMARK                         _______ _______ _______ _____ _____    ______ ____
ROOT
ATOM      1  N   UNL     1       0.687  -0.482  -1.202  0.00  0.00    -0.296 N 
ATOM      2  C   UNL     1       2.031  -0.585  -1.216  0.00  0.00    +0.304 C 
ATOM      3  O   UNL     1       2.674  -0.284  -0.229  0.00  0.00    -0.253 OA
ATOM      4  N   UNL     1       2.662  -1.022  -2.324  0.00  0.00    -0.269 N 
ATOM      5  H   UNL     1       0.174  -0.722  -1.989  0.00  0.00    +0.151 HD
ATOM      6  H   UNL     1       2.147  -1.325  -3.088  0.00  0.00    +0.156 HD
ENDROOT
BRANCH   4   7
ATOM      7  C   UNL     1       4.060  -1.037  -2.373  0.00  0.00    +0.040 A 
ATOM      8  C   UNL     1       4.717  -0.758  -3.563  0.00  0.00    +0.063 A 
ATOM      9  C   UNL     1       6.100  -0.774  -3.609  0.00  0.00    +0.153 A 
ATOM     10  C   UNL     1       6.828  -1.068  -2.469  0.00  0.00    +0.158 A 
ATOM     11  C   UNL     1       6.175  -1.347  -1.280  0.00  0.00    +0.153 A 
ATOM     12  C   UNL     1       4.793  -1.326  -1.229  0.00  0.00    +0.063 A 
ATOM     13  F   UNL     1       6.888  -1.634  -0.169  0.00  0.00    -0.203 F 
ATOM     14  F   UNL     1       6.740  -0.503  -4.768  0.00  0.00    -0.203 F 
BRANCH  10  15
ATOM     15  S   UNL     1       8.589  -1.088  -2.531  0.00  0.00    -0.000 S 
ATOM     16  O   UNL     1       8.978  -1.972  -1.488  0.00  0.00    -0.169 OA
ATOM     17  O   UNL     1       8.901  -1.384  -3.885  0.00  0.00    -0.169 OA
ATOM     18  C   UNL     1       9.089   0.609  -2.130  0.00  0.00    +0.200 C 
ENDBRANCH  10  15
ENDBRANCH   4   7
BRANCH   1  20
ATOM     19  C   UNL     1      -0.028   1.522   0.004  0.00  0.00    +0.028 C 
ATOM     20  C   UNL     1       0.002  -0.008   0.003  0.00  0.00    +0.076 C 
BRANCH  20  21
ATOM     21  C   UNL     1      -1.431  -0.545   0.019  0.00  0.00    +0.057 C 
BRANCH  21  22
ATOM     22  C   UNL     1      -1.403  -2.047   0.142  0.00  0.00    -0.045 A 
ATOM     23  C   UNL     1      -1.361  -2.832  -0.995  0.00  0.00    +0.007 A 
ATOM     24  C   UNL     1      -1.336  -4.208  -0.885  0.00  0.00    +0.045 A 
ATOM     25  C   UNL     1      -1.351  -4.804   0.368  0.00  0.00    +0.117 A 
ATOM     26  C   UNL     1      -1.392  -4.014   1.508  0.00  0.00    +0.045 A 
ATOM     27  C   UNL     1      -1.412  -2.637   1.392  0.00  0.00    +0.007 A 
BRANCH  25  28
ATOM     28  O   UNL     1      -1.326  -6.158   0.478  0.00  0.00    -0.507 OA
ATOM     29  H   UNL     1      -0.436  -6.532   0.529  0.00  0.00    +0.292 HD
ENDBRANCH  25  28
ENDBRANCH  21  22
ENDBRANCH  20  21
ENDBRANCH   1  20
TORSDOF 6
