REMARK  Name = ZINC35263570
REMARK  6 active torsions:
REMARK  status: ('A' for Active; 'I' for Inactive)
REMARK    1  A    between atoms: C_1  and  C_2
REMARK    2  A    between atoms: C_5  and  C_7
REMARK    3  A    between atoms: C_7  and  C_9
REMARK    4  A    between atoms: C_14  and  C_16
REMARK    5  A    between atoms: C_24  and  C_31
REMARK    6  A    between atoms: C_26  and  C_30
REMARK                            x       y       z     vdW  Elec       q    Type
REMARK                         _______ _______ _______ _____ _____    ______ ____
ROOT
ATOM      1  C   UNL     1       3.209  -3.139  -0.040  0.00  0.00    +0.080 C 
ATOM      2  C   UNL     1       4.163  -4.092  -0.154  0.00  0.00    +0.250 C 
ATOM      3  C   UNL     1       5.487  -3.446  -0.248  0.00  0.00    +0.293 C 
ATOM      4  O   UNL     1       6.543  -4.035  -0.360  0.00  0.00    -0.266 OA
ATOM      5  N   UNL     1       5.351  -2.108  -0.193  0.00  0.00    -0.231 N 
ATOM      6  C   UNL     1       3.920  -1.806  -0.064  0.00  0.00    +0.158 C 
ATOM      7  C   UNL     1       6.377  -1.182  -0.252  0.00  0.00    +0.169 A 
ATOM      8  N   UNL     1       7.667  -1.390  -0.377  0.00  0.00    -0.224 NA
ATOM      9  C   UNL     1       8.564  -0.381  -0.421  0.00  0.00    +0.083 A 
ATOM     10  C   UNL     1       9.970  -0.467  -0.552  0.00  0.00    -0.024 A 
ATOM     11  C   UNL     1      10.741   0.665  -0.580  0.00  0.00    +0.009 A 
ATOM     12  C   UNL     1      10.177   1.929  -0.481  0.00  0.00    -0.049 A 
ATOM     13  C   UNL     1       8.806   2.050  -0.353  0.00  0.00    +0.020 A 
ATOM     14  C   UNL     1       8.025   0.922  -0.324  0.00  0.00    +0.041 A 
ATOM     15  S   UNL     1       6.283   0.601  -0.185  0.00  0.00    -0.052 S 
ATOM     16  C   UNL     1      11.050   3.157  -0.514  0.00  0.00    +0.044 C 
ATOM     17  C   UNL     1      10.627  -1.819  -0.662  0.00  0.00    +0.046 C 
ATOM     18  O   UNL     1       3.939  -5.427  -0.178  0.00  0.00    -0.282 OA
ENDROOT
BRANCH   6  19
ATOM     19  C   UNL     1       3.665  -1.059   1.220  0.00  0.00    +0.015 A 
ATOM     20  C   UNL     1       2.792  -0.051   1.462  0.00  0.00    +0.013 A 
ATOM     21  C   UNL     1       2.728   0.490   2.732  0.00  0.00    +0.008 A 
ATOM     22  C   UNL     1       3.539  -0.005   3.699  0.00  0.00    +0.045 A 
ATOM     23  S   UNL     1       4.428  -1.278   2.819  0.00  0.00    -0.099 S 
ENDBRANCH   6  19
BRANCH   1  24
ATOM     24  C   UNL     1       1.763  -3.357   0.079  0.00  0.00    +0.230 C 
ATOM     25  O   UNL     1       1.308  -3.900   1.070  0.00  0.00    -0.283 OA
BRANCH  24  30
ATOM     26  C   UNL     1       0.127  -1.271  -4.169  0.00  0.00    +0.086 C 
ATOM     27  C   UNL     1       0.140  -2.011  -2.856  0.00  0.00    +0.103 A 
ATOM     28  C   UNL     1      -0.938  -2.562  -2.254  0.00  0.00    +0.045 A 
ATOM     29  C   UNL     1      -0.492  -3.150  -1.062  0.00  0.00    +0.053 A 
ATOM     30  C   UNL     1       0.866  -2.923  -0.996  0.00  0.00    +0.175 A 
ATOM     31  O   UNL     1       1.223  -2.235  -2.100  0.00  0.00    -0.457 OA
ENDBRANCH  24  30
ENDBRANCH   1  24
TORSDOF 3
