REMARK  Name = ZINC11681682
REMARK  11 active torsions:
REMARK  status: ('A' for Active; 'I' for Inactive)
REMARK    1  A    between atoms: C_1  and  O_2
REMARK    2  A    between atoms: O_2  and  C_3
REMARK    3  A    between atoms: C_6  and  C_9
REMARK    4  A    between atoms: C_9  and  C_11
REMARK    5  A    between atoms: C_9  and  C_28
REMARK    6  A    between atoms: C_11  and  N_12
REMARK    7  A    between atoms: C_13  and  C_15
REMARK    8  A    between atoms: C_15  and  S_16
REMARK    9  A    between atoms: S_16  and  C_17
REMARK   10  A    between atoms: N_21  and  C_22
REMARK   11  A    between atoms: C_22  and  C_23
REMARK                            x       y       z     vdW  Elec       q    Type
REMARK                         _______ _______ _______ _____ _____    ______ ____
ROOT
ATOM      1  C   UNL     1      -0.187   1.212   4.911  0.00  0.00    +0.068 C 
ENDROOT
BRANCH   1   2
ATOM      2  C   UNL     1      -0.273  -0.292   4.967  0.00  0.00    -0.013 A 
ATOM      3  C   UNL     1      -1.394  -1.026   5.043  0.00  0.00    +0.088 A 
ATOM      4  N   UNL     1      -1.079  -2.357   5.071  0.00  0.00    -0.360 N 
ATOM      5  H   UNL     1      -1.723  -3.081   5.122  0.00  0.00    +0.165 HD
ATOM      6  C   UNL     1       0.287  -2.516   5.023  0.00  0.00    +0.047 A 
ATOM      7  C   UNL     1       0.853  -1.230   4.955  0.00  0.00    +0.003 A 
ATOM      8  C   UNL     1       2.239  -1.081   4.896  0.00  0.00    +0.010 A 
ATOM      9  C   UNL     1       3.042  -2.187   4.903  0.00  0.00    +0.001 A 
ATOM     10  C   UNL     1       2.489  -3.458   4.970  0.00  0.00    +0.002 A 
ATOM     11  C   UNL     1       1.123  -3.628   5.030  0.00  0.00    +0.026 A 
ENDBRANCH   1   2
BRANCH   1  15
ATOM     12  C   UNL     1      -1.979   2.873   8.417  0.00  0.00    +0.120 A 
ATOM     13  C   UNL     1      -0.643   3.121   8.134  0.00  0.00    +0.046 A 
ATOM     14  C   UNL     1      -0.067   2.583   7.000  0.00  0.00    +0.008 A 
ATOM     15  C   UNL     1      -0.819   1.797   6.147  0.00  0.00    -0.038 A 
ATOM     16  C   UNL     1      -2.151   1.552   6.424  0.00  0.00    +0.008 A 
ATOM     17  C   UNL     1      -2.731   2.083   7.559  0.00  0.00    +0.046 A 
BRANCH  12  19
ATOM     18  C   UNL     1      -3.927   3.103   9.759  0.00  0.00    +0.277 C 
ATOM     19  O   UNL     1      -2.549   3.401   9.532  0.00  0.00    -0.495 OA
ENDBRANCH  12  19
ENDBRANCH   1  15
BRANCH   1  20
ATOM     20  C   UNL     1      -0.927   1.718   3.671  0.00  0.00    +0.117 C 
BRANCH  20  21
ATOM     21  N   UNL     1      -0.242   1.246   2.466  0.00  0.00    -0.314 N 
ATOM     22  C   UNL     1      -0.718   1.572   1.248  0.00  0.00    +0.223 C 
ATOM     23  O   UNL     1      -1.714   2.256   1.150  0.00  0.00    -0.275 OA
ATOM     24  H   UNL     1       0.555   0.699   2.544  0.00  0.00    +0.149 HD
BRANCH  22  25
ATOM     25  C   UNL     1      -0.013   1.086   0.008  0.00  0.00    +0.173 C 
BRANCH  25  26
ATOM     26  S   UNL     1      -0.888   1.685  -1.458  0.00  0.00    -0.075 S 
BRANCH  26  27
ATOM     27  C   UNL     1       0.122   0.990  -2.724  0.00  0.00    +0.210 A 
ATOM     28  N   UNL     1       1.200   0.257  -2.548  0.00  0.00    -0.101 NA
ATOM     29  N   UNL     1       1.696  -0.092  -3.680  0.00  0.00    -0.022 NA
ATOM     30  N   UNL     1       0.991   0.391  -4.646  0.00  0.00    -0.043 NA
ATOM     31  N   UNL     1      -0.062   1.115  -4.059  0.00  0.00    -0.213 N 
BRANCH  31  32
ATOM     32  C   UNL     1      -1.129   1.846  -4.746  0.00  0.00    +0.222 C 
BRANCH  32  33
ATOM     33  C   UNL     1      -0.691   3.269  -4.982  0.00  0.00    +0.126 A 
ATOM     34  C   UNL     1      -0.037   3.720  -6.067  0.00  0.00    +0.046 A 
ATOM     35  C   UNL     1       0.170   5.105  -5.874  0.00  0.00    +0.041 A 
ATOM     36  C   UNL     1      -0.363   5.416  -4.679  0.00  0.00    +0.195 A 
ATOM     37  O   UNL     1      -0.883   4.300  -4.143  0.00  0.00    -0.466 OA
ENDBRANCH  32  33
ENDBRANCH  31  32
ENDBRANCH  26  27
ENDBRANCH  25  26
ENDBRANCH  22  25
ENDBRANCH  20  21
ENDBRANCH   1  20
TORSDOF 10
