REMARK  Name = ZINC63412617
REMARK  7 active torsions:
REMARK  status: ('A' for Active; 'I' for Inactive)
REMARK    1  A    between atoms: C_1  and  C_2
REMARK    2  A    between atoms: C_4  and  C_10
REMARK    3  A    between atoms: C_6  and  C_9
REMARK    4  A    between atoms: C_7  and  O_8
REMARK    5  A    between atoms: C_11  and  C_12
REMARK    6  A    between atoms: C_11  and  C_14
REMARK    7  A    between atoms: C_16  and  C_19
REMARK                            x       y       z     vdW  Elec       q    Type
REMARK                         _______ _______ _______ _____ _____    ______ ____
ROOT
ATOM      1  C   UNL     1       0.029  -2.816  -2.472  0.00  0.00    +0.029 C 
ATOM      2  C   UNL     1       0.151  -4.175  -2.478  0.00  0.00    +0.084 C 
ENDROOT
BRANCH   1   6
ATOM      3  C   UNL     1       0.676   1.154   0.467  0.00  0.00    +0.047 C 
ATOM      4  C   UNL     1       0.060  -0.196   0.204  0.00  0.00    -0.008 A 
ATOM      5  C   UNL     1       0.325  -0.854  -0.975  0.00  0.00    +0.015 A 
ATOM      6  C   UNL     1      -0.248  -2.110  -1.217  0.00  0.00    -0.023 A 
ATOM      7  C   UNL     1      -1.088  -2.688  -0.256  0.00  0.00    +0.015 A 
ATOM      8  C   UNL     1      -1.345  -2.020   0.920  0.00  0.00    -0.008 A 
ATOM      9  C   UNL     1      -0.769  -0.777   1.157  0.00  0.00    +0.123 A 
ATOM     10  C   UNL     1      -2.248  -2.640   1.956  0.00  0.00    +0.047 C 
BRANCH   9  11
ATOM     11  O   UNL     1      -1.022  -0.126   2.321  0.00  0.00    -0.506 OA
ATOM     12  H   UNL     1      -1.795   0.454   2.288  0.00  0.00    +0.292 HD
ENDBRANCH   9  11
ENDBRANCH   1   6
BRANCH   2  13
ATOM     13  C   UNL     1       0.265  -4.900  -3.757  0.00  0.00    +0.119 A 
ATOM     14  N   UNL     1       0.385  -6.201  -3.975  0.00  0.00    -0.238 NA
ATOM     15  C   UNL     1       0.476  -6.684  -5.200  0.00  0.00    +0.079 A 
ATOM     16  C   UNL     1       0.447  -5.824  -6.268  0.00  0.00    +0.075 A 
ATOM     17  S   UNL     1       0.272  -4.256  -5.425  0.00  0.00    -0.074 S 
BRANCH  15  18
ATOM     18  C   UNL     1       0.610  -8.144  -5.420  0.00  0.00    +0.004 A 
ATOM     19  C   UNL     1       0.714  -8.670  -6.712  0.00  0.00    +0.030 A 
ATOM     20  C   UNL     1       0.837 -10.034  -6.871  0.00  0.00    +0.111 A 
ATOM     21  N   UNL     1       0.857 -10.839  -5.826  0.00  0.00    -0.263 NA
ATOM     22  C   UNL     1       0.761 -10.384  -4.591  0.00  0.00    +0.111 A 
ATOM     23  C   UNL     1       0.641  -9.034  -4.341  0.00  0.00    +0.030 A 
ENDBRANCH  15  18
ENDBRANCH   2  13
BRANCH   2  24
ATOM     24  C   UNL     1       0.167  -4.897  -1.242  0.00  0.00    +0.102 C 
ATOM     25  N   UNL     1       0.181  -5.471  -0.261  0.00  0.00    -0.191 NA
ENDBRANCH   2  24
TORSDOF 5
