REMARK  Name = ZINC59039944
REMARK  12 active torsions:
REMARK  status: ('A' for Active; 'I' for Inactive)
REMARK    1  A    between atoms: C_1  and  C_2
REMARK    2  A    between atoms: C_5  and  N_9
REMARK    3  A    between atoms: C_6  and  C_8
REMARK    4  A    between atoms: C_10  and  C_12
REMARK    5  A    between atoms: C_12  and  S_13
REMARK    6  A    between atoms: S_13  and  C_14
REMARK    7  A    between atoms: N_19  and  N_20
REMARK    8  A    between atoms: C_21  and  C_22
REMARK    9  A    between atoms: C_24  and  O_32
REMARK   10  A    between atoms: C_25  and  O_31
REMARK   11  A    between atoms: C_27  and  N_28
REMARK   12  A    between atoms: O_32  and  C_33
REMARK                            x       y       z     vdW  Elec       q    Type
REMARK                         _______ _______ _______ _____ _____    ______ ____
ROOT
ATOM      1  C   UNL     1      -0.625  -8.666  -2.728  0.00  0.00    +0.211 A 
ATOM      2  N   UNL     1      -0.674  -9.542  -3.727  0.00  0.00    -0.186 NA
ATOM      3  C   UNL     1      -0.701 -10.758  -3.190  0.00  0.00    +0.232 A 
ATOM      4  N   UNL     1      -0.668 -10.601  -1.830  0.00  0.00    -0.245 N 
ATOM      5  N   UNL     1      -0.618  -9.338  -1.577  0.00  0.00    -0.144 NA
ATOM      6  N   UNL     1      -0.753 -11.929  -3.861  0.00  0.00    -0.205 N 
ATOM      7  H   UNL     1      -0.770 -12.767  -3.373  0.00  0.00    +0.177 HD
ATOM      8  H   UNL     1      -0.677 -11.314  -1.173  0.00  0.00    +0.192 HD
ENDROOT
BRANCH   6   9
ATOM      9  N   UNL     1      -0.781 -11.934  -5.151  0.00  0.00    -0.187 NA
ATOM     10  C   UNL     1      -0.832 -13.087  -5.811  0.00  0.00    +0.140 C 
BRANCH  10  11
ATOM     11  C   UNL     1      -0.862 -13.092  -7.216  0.00  0.00    +0.028 A 
ATOM     12  C   UNL     1      -0.712 -11.883  -7.933  0.00  0.00    +0.061 A 
ATOM     13  C   UNL     1      -0.742 -11.896  -9.296  0.00  0.00    +0.162 A 
ATOM     14  C   UNL     1      -0.922 -13.109  -9.986  0.00  0.00    +0.161 A 
ATOM     15  C   UNL     1      -1.070 -14.307  -9.280  0.00  0.00    +0.082 A 
ATOM     16  C   UNL     1      -1.036 -14.309  -7.920  0.00  0.00    +0.138 A 
BRANCH  16  17
ATOM     17  N   UNL     1      -1.187 -15.580  -7.176  0.00  0.00    +0.057 N 
ATOM     18  O   UNL     1      -1.478 -16.691  -7.823  0.00  0.00    -0.126 OA
ATOM     19  O   UNL     1      -1.031 -15.601  -5.869  0.00  0.00    -0.126 OA
ENDBRANCH  16  17
BRANCH  14  20
ATOM     20  O   UNL     1      -0.951 -13.117 -11.338  0.00  0.00    -0.503 OA
ATOM     21  H   UNL     1      -0.085 -13.238 -11.750  0.00  0.00    +0.292 HD
ENDBRANCH  14  20
BRANCH  13  22
ATOM     22  O   UNL     1      -0.599 -10.736  -9.989  0.00  0.00    -0.491 OA
ATOM     23  C   UNL     1      -0.421  -9.542  -9.225  0.00  0.00    +0.277 C 
ENDBRANCH  13  22
ENDBRANCH  10  11
ENDBRANCH   6   9
BRANCH   1  24
ATOM     24  S   UNL     1      -0.572  -6.913  -2.898  0.00  0.00    -0.075 S 
BRANCH  24  25
ATOM     25  C   UNL     1      -0.509  -6.309  -1.189  0.00  0.00    +0.173 C 
BRANCH  25  27
ATOM     26  N   UNL     1      -0.408  -4.129  -0.025  0.00  0.00    -0.285 N 
ATOM     27  C   UNL     1      -0.460  -4.803  -1.191  0.00  0.00    +0.227 C 
ATOM     28  O   UNL     1      -0.467  -4.197  -2.241  0.00  0.00    -0.275 OA
ATOM     29  H   UNL     1      -0.344  -4.614   0.813  0.00  0.00    +0.155 HD
BRANCH  26  34
ATOM     30  C   UNL     1      -0.567   1.542  -0.017  0.00  0.00    +0.044 C 
ATOM     31  C   UNL     1      -0.525   0.036  -0.019  0.00  0.00    -0.050 A 
ATOM     32  C   UNL     1       0.111  -0.635  -1.047  0.00  0.00    +0.005 A 
ATOM     33  C   UNL     1       0.152  -2.016  -1.052  0.00  0.00    +0.024 A 
ATOM     34  C   UNL     1      -0.447  -2.730  -0.022  0.00  0.00    +0.036 A 
ATOM     35  C   UNL     1      -1.085  -2.054   1.009  0.00  0.00    -0.029 A 
ATOM     36  C   UNL     1      -1.117  -0.673   1.010  0.00  0.00    +0.008 A 
ATOM     37  C   UNL     1      -1.736  -2.825   2.128  0.00  0.00    +0.045 C 
ENDBRANCH  26  34
ENDBRANCH  25  27
ENDBRANCH  24  25
ENDBRANCH   1  24
TORSDOF 9
