REMARK  Name = ZINC64426791
REMARK  7 active torsions:
REMARK  status: ('A' for Active; 'I' for Inactive)
REMARK    1  A    between atoms: C_1  and  C_2
REMARK    2  A    between atoms: C_2  and  C_3
REMARK    3  A    between atoms: C_3  and  C_4
REMARK    4  A    between atoms: C_4  and  N_5
REMARK    5  A    between atoms: N_8  and  N_9
REMARK    6  A    between atoms: C_10  and  C_12
REMARK    7  A    between atoms: C_13  and  C_14
REMARK                            x       y       z     vdW  Elec       q    Type
REMARK                         _______ _______ _______ _____ _____    ______ ____
ROOT
ATOM      1  N   UNL     1       2.795  -3.384   4.639  0.00  0.00    -0.230 N 
ATOM      2  C   UNL     1       3.447  -3.831   5.731  0.00  0.00    +0.253 C 
ATOM      3  O   UNL     1       3.576  -5.028   5.916  0.00  0.00    -0.269 OA
ATOM      4  H   UNL     1       2.692  -2.431   4.491  0.00  0.00    +0.173 HD
ENDROOT
BRANCH   1   8
ATOM      5  N   UNL     1       1.471  -2.526   2.420  0.00  0.00    -0.298 N 
ATOM      6  C   UNL     1       1.615  -3.850   2.625  0.00  0.00    +0.316 C 
ATOM      7  O   UNL     1       1.156  -4.643   1.825  0.00  0.00    -0.251 OA
ATOM      8  N   UNL     1       2.266  -4.297   3.717  0.00  0.00    -0.218 N 
ATOM      9  H   UNL     1       1.837  -1.894   3.058  0.00  0.00    +0.150 HD
ATOM     10  H   UNL     1       2.369  -5.250   3.864  0.00  0.00    +0.174 HD
BRANCH   5  11
ATOM     11  C   UNL     1       0.763  -2.041   1.233  0.00  0.00    +0.106 C 
BRANCH  11  12
ATOM     12  C   UNL     1       0.742  -0.511   1.242  0.00  0.00    +0.018 C 
BRANCH  12  14
ATOM     13  C   UNL     1      -0.019   1.526   0.010  0.00  0.00    +0.004 C 
ATOM     14  C   UNL     1       0.002  -0.004   0.002  0.00  0.00    -0.002 C 
ENDBRANCH  12  14
ENDBRANCH  11  12
ENDBRANCH   5  11
ENDBRANCH   1   8
BRANCH   2  15
ATOM     15  C   UNL     1       3.979  -2.913   6.658  0.00  0.00    +0.071 C 
ATOM     16  C   UNL     1       4.638  -3.364   7.762  0.00  0.00    +0.034 C 
BRANCH  16  17
ATOM     17  C   UNL     1       5.169  -2.447   8.688  0.00  0.00    +0.085 A 
ATOM     18  C   UNL     1       5.966  -1.351   8.400  0.00  0.00    +0.156 A 
ATOM     19  N   UNL     1       6.256  -0.744   9.546  0.00  0.00    -0.209 NA
ATOM     20  C   UNL     1       5.693  -1.387  10.539  0.00  0.00    +0.179 A 
ATOM     21  N   UNL     1       4.987  -2.465  10.083  0.00  0.00    -0.292 N 
ATOM     22  C   UNL     1       4.337  -3.230  11.021  0.00  0.00    +0.101 A 
ATOM     23  C   UNL     1       4.398  -2.920  12.317  0.00  0.00    +0.067 A 
ATOM     24  S   UNL     1       5.435  -1.466  12.297  0.00  0.00    -0.058 S 
ATOM     25 CL   UNL     1       6.493  -0.859   6.822  0.00  0.00    -0.060 Cl
ENDBRANCH  16  17
ENDBRANCH   2  15
TORSDOF 6
