REMARK  Name = ZINC44248145
REMARK  8 active torsions:
REMARK  status: ('A' for Active; 'I' for Inactive)
REMARK    1  A    between atoms: C_4  and  N_26
REMARK    2  A    between atoms: C_5  and  N_7
REMARK    3  A    between atoms: N_7  and  C_8
REMARK    4  A    between atoms: C_8  and  C_9
REMARK    5  A    between atoms: C_9  and  N_10
REMARK    6  A    between atoms: N_13  and  C_14
REMARK    7  A    between atoms: C_18  and  C_20
REMARK    8  A    between atoms: C_20  and  N_21
REMARK                            x       y       z     vdW  Elec       q    Type
REMARK                         _______ _______ _______ _____ _____    ______ ____
ROOT
ATOM      1  N   UNL     1      -2.632  -4.351   1.143  0.00  0.00    -0.298 N 
ATOM      2  C   UNL     1      -2.979  -5.624   1.422  0.00  0.00    +0.304 C 
ATOM      3  O   UNL     1      -2.154  -6.512   1.333  0.00  0.00    -0.253 OA
ATOM      4  N   UNL     1      -4.241  -5.911   1.800  0.00  0.00    -0.269 N 
ATOM      5  H   UNL     1      -3.291  -3.643   1.214  0.00  0.00    +0.150 HD
ATOM      6  H   UNL     1      -4.918  -5.216   1.798  0.00  0.00    +0.156 HD
ENDROOT
BRANCH   4   7
ATOM      7  C   UNL     1      -4.574  -7.212   2.194  0.00  0.00    +0.035 A 
ATOM      8  C   UNL     1      -5.821  -7.737   1.879  0.00  0.00    +0.023 A 
ATOM      9  C   UNL     1      -6.146  -9.021   2.268  0.00  0.00    +0.002 A 
ATOM     10  C   UNL     1      -5.232  -9.784   2.972  0.00  0.00    +0.005 A 
ATOM     11  C   UNL     1      -3.991  -9.264   3.288  0.00  0.00    -0.024 A 
ATOM     12  C   UNL     1      -3.657  -7.983   2.895  0.00  0.00    +0.028 A 
BRANCH  11  13
ATOM     13  C   UNL     1      -2.999 -10.099   4.056  0.00  0.00    +0.178 C 
BRANCH  13  14
ATOM     14  N   UNL     1      -2.170 -10.860   3.117  0.00  0.00    -0.267 N 
ATOM     15  C   UNL     1      -0.822 -10.855   3.065  0.00  0.00    +0.108 A 
ATOM     16  C   UNL     1      -0.445 -11.685   2.064  0.00  0.00    +0.041 A 
ATOM     17  C   UNL     1      -1.603 -12.213   1.484  0.00  0.00    +0.134 A 
ATOM     18  N   UNL     1      -2.638 -11.724   2.119  0.00  0.00    -0.179 NA
ENDBRANCH  13  14
ENDBRANCH  11  13
ENDBRANCH   4   7
BRANCH   1  19
ATOM     19  C   UNL     1      -1.261  -4.039   0.733  0.00  0.00    +0.124 C 
BRANCH  19  20
ATOM     20  C   UNL     1      -1.135  -2.535   0.478  0.00  0.00    +0.120 C 
BRANCH  20  21
ATOM     21  N   UNL     1       0.236  -2.223   0.068  0.00  0.00    -0.341 N 
ATOM     22  H   UNL     1       0.894  -2.932  -0.003  0.00  0.00    +0.146 HD
BRANCH  21  27
ATOM     23  C   UNL     1       0.050   1.430  -0.289  0.00  0.00    +0.002 A 
ATOM     24  C   UNL     1       1.307   1.707  -0.794  0.00  0.00    +0.002 A 
ATOM     25  C   UNL     1       2.209   0.683  -1.014  0.00  0.00    +0.034 A 
ATOM     26  C   UNL     1       1.857  -0.622  -0.729  0.00  0.00    +0.147 A 
ATOM     27  C   UNL     1       0.595  -0.905  -0.221  0.00  0.00    +0.058 A 
ATOM     28  C   UNL     1      -0.309   0.127  -0.002  0.00  0.00    +0.025 A 
BRANCH  26  29
ATOM     29  N   UNL     1       2.823  -1.718  -0.965  0.00  0.00    +0.058 N 
ATOM     30  O   UNL     1       3.998  -1.548  -0.737  0.00  0.00    -0.126 OA
ATOM     31  O   UNL     1       2.437  -2.784  -1.385  0.00  0.00    -0.126 OA
ENDBRANCH  26  29
ENDBRANCH  21  27
ENDBRANCH  20  21
ENDBRANCH  19  20
ENDBRANCH   1  19
TORSDOF 8
