REMARK  Name = ZINC46791327
REMARK  5 active torsions:
REMARK  status: ('A' for Active; 'I' for Inactive)
REMARK    1  A    between atoms: C_1  and  C_2
REMARK    2  A    between atoms: C_7  and  C_10
REMARK    3  A    between atoms: C_14  and  C_17
REMARK    4  A    between atoms: C_17  and  N_18
REMARK    5  A    between atoms: C_19  and  C_21
REMARK                            x       y       z     vdW  Elec       q    Type
REMARK                         _______ _______ _______ _____ _____    ______ ____
ROOT
ATOM      1  C   UNL     1      -4.185  -5.503  -3.188  0.00  0.00    +0.141 C 
ENDROOT
BRANCH   1  13
ATOM      2  C   UNL     1      -0.045  -2.168   3.728  0.00  0.00    +0.039 C 
ATOM      3  C   UNL     1      -0.987  -1.773   2.589  0.00  0.00    +0.133 C 
ATOM      4  C   UNL     1      -0.596  -2.529   1.315  0.00  0.00    +0.137 C 
ATOM      5  N   UNL     1      -1.389  -1.995   0.196  0.00  0.00    -0.312 N 
ATOM      6  C   UNL     1      -1.418  -0.537   0.002  0.00  0.00    +0.137 C 
ATOM      7  C   UNL     1      -1.770   0.122   1.341  0.00  0.00    +0.133 C 
ATOM      8  O   UNL     1      -0.886  -0.366   2.353  0.00  0.00    -0.371 OA
ATOM      9  C   UNL     1      -3.214  -0.218   1.714  0.00  0.00    +0.039 C 
ATOM     10  C   UNL     1      -2.091  -2.844  -0.652  0.00  0.00    +0.099 A 
ATOM     11  C   UNL     1      -2.927  -2.308  -1.627  0.00  0.00    +0.042 A 
ATOM     12  C   UNL     1      -3.619  -3.164  -2.464  0.00  0.00    +0.010 A 
ATOM     13  C   UNL     1      -3.451  -4.533  -2.299  0.00  0.00    -0.014 A 
ATOM     14  C   UNL     1      -2.604  -4.995  -1.311  0.00  0.00    +0.089 A 
ATOM     15  N   UNL     1      -1.953  -4.155  -0.530  0.00  0.00    -0.349 N 
ATOM     16  H   UNL     1      -1.361  -4.507   0.154  0.00  0.00    +0.167 HD
ENDBRANCH   1  13
BRANCH   1  17
ATOM     17  N   UNL     1      -3.369  -5.796  -4.369  0.00  0.00    -0.311 N 
ATOM     18  C   UNL     1      -3.827  -6.645  -5.310  0.00  0.00    +0.220 C 
ATOM     19  O   UNL     1      -4.914  -7.167  -5.179  0.00  0.00    -0.275 OA
ATOM     20  H   UNL     1      -2.500  -5.378  -4.474  0.00  0.00    +0.149 HD
BRANCH  18  21
ATOM     21  C   UNL     1      -2.989  -6.946  -6.526  0.00  0.00    +0.117 C 
ATOM     22  C   UNL     1      -3.724  -7.942  -7.426  0.00  0.00    +0.055 C 
ATOM     23  C   UNL     1      -2.780  -8.469  -8.477  0.00  0.00    -0.004 A 
ATOM     24  C   UNL     1      -3.309  -9.077  -9.603  0.00  0.00    +0.027 A 
ATOM     25  C   UNL     1      -2.474  -9.575 -10.585  0.00  0.00    +0.041 A 
ATOM     26  C   UNL     1      -1.101  -9.467 -10.444  0.00  0.00    +0.023 A 
ATOM     27  C   UNL     1      -0.569  -8.860  -9.325  0.00  0.00    +0.047 A 
ATOM     28  C   UNL     1      -1.408  -8.356  -8.336  0.00  0.00    +0.124 A 
ATOM     29  O   UNL     1      -0.847  -7.757  -7.253  0.00  0.00    -0.491 OA
ATOM     30  C   UNL     1      -1.659  -7.577  -6.093  0.00  0.00    +0.242 C 
ATOM     31 CL   UNL     1      -3.145 -10.334 -11.994  0.00  0.00    -0.084 Cl
ENDBRANCH  18  21
ENDBRANCH   1  17
TORSDOF 3
