REMARK  Name = ZINC64732351
REMARK  15 active torsions:
REMARK  status: ('A' for Active; 'I' for Inactive)
REMARK    1  A    between atoms: C_1  and  C_2
REMARK    2  A    between atoms: C_2  and  O_3
REMARK    3  A    between atoms: O_3  and  C_4
REMARK    4  A    between atoms: C_4  and  C_6
REMARK    5  A    between atoms: C_8  and  C_31
REMARK    6  A    between atoms: C_9  and  C_13
REMARK    7  A    between atoms: C_10  and  C_12
REMARK    8  A    between atoms: C_13  and  C_14
REMARK    9  A    between atoms: C_14  and  C_15
REMARK   10  A    between atoms: C_20  and  C_23
REMARK   11  A    between atoms: N_25  and  C_26
REMARK   12  A    between atoms: C_26  and  C_27
REMARK   13  A    between atoms: C_27  and  N_28
REMARK   14  A    between atoms: N_28  and  C_29
REMARK   15  A    between atoms: N_28  and  C_30
REMARK                            x       y       z     vdW  Elec       q    Type
REMARK                         _______ _______ _______ _____ _____    ______ ____
ROOT
ATOM      1  C   UNL     1      -6.273  -4.930   4.204  0.00  0.00    +0.216 C 
ATOM      2  O   UNL     1      -5.529  -5.130   5.140  0.00  0.00    -0.276 OA
ATOM      3  N   UNL     1      -7.594  -5.166   4.330  0.00  0.00    -0.301 N 
ATOM      4  C   UNL     1      -8.506  -4.934   3.202  0.00  0.00    +0.108 C 
ATOM      5  C   UNL     1      -9.314  -6.212   2.951  0.00  0.00    +0.032 C 
ATOM      6  C   UNL     1     -10.010  -6.633   4.247  0.00  0.00    +0.078 C 
ATOM      7  C   UNL     1      -8.960  -6.929   5.320  0.00  0.00    +0.032 C 
ATOM      8  C   UNL     1      -8.147  -5.665   5.596  0.00  0.00    +0.108 C 
ENDROOT
BRANCH   6   9
ATOM      9  C   UNL     1     -10.833  -7.870   3.995  0.00  0.00    +0.216 C 
ATOM     10  O   UNL     1     -10.860  -8.367   2.889  0.00  0.00    -0.276 OA
ATOM     11  N   UNL     1     -11.539  -8.426   5.000  0.00  0.00    -0.317 N 
ATOM     12  H   UNL     1     -11.518  -8.029   5.885  0.00  0.00    +0.149 HD
BRANCH  11  13
ATOM     13  C   UNL     1     -12.339  -9.629   4.756  0.00  0.00    +0.085 C 
BRANCH  13  14
ATOM     14  C   UNL     1     -13.035 -10.050   6.051  0.00  0.00    -0.061 C 
BRANCH  14  15
ATOM     15  N   UNL     1     -13.837 -11.257   5.806  0.00  0.00    +0.377 N 
ATOM     16  C   UNL     1     -14.409 -11.730   7.074  0.00  0.00    -0.097 C 
ATOM     17  C   UNL     1     -14.921 -10.941   4.867  0.00  0.00    -0.097 C 
ATOM     18  H   UNL     1     -13.250 -11.976   5.412  0.00  0.00    -0.083 HD
ENDBRANCH  14  15
ENDBRANCH  13  14
ENDBRANCH  11  13
ENDBRANCH   6   9
BRANCH   1  19
ATOM     19  C   UNL     1      -5.720  -4.418   2.898  0.00  0.00    +0.100 C 
BRANCH  19  20
ATOM     20  C   UNL     1      -4.206  -4.236   3.022  0.00  0.00    +0.046 C 
BRANCH  20  23
ATOM     21  C   UNL     1      -2.881  -2.427   0.017  0.00  0.00    +0.240 C 
ATOM     22  C   UNL     1      -3.434  -2.442   1.425  0.00  0.00    -0.033 C 
ATOM     23  C   UNL     1      -3.653  -3.723   1.717  0.00  0.00    -0.025 C 
ATOM     24  C   UNL     1      -3.274  -4.556   0.575  0.00  0.00    +0.037 C 
ATOM     25  N   UNL     1      -2.833  -3.833  -0.402  0.00  0.00    -0.269 NA
ATOM     26  C   UNL     1      -3.383  -6.059   0.542  0.00  0.00    +0.065 C 
ATOM     27  C   UNL     1      -3.685  -1.252   2.314  0.00  0.00    +0.042 C 
BRANCH  21  28
ATOM     28  C   UNL     1      -1.496  -1.832   0.006  0.00  0.00    +0.336 C 
ATOM     29  O   UNL     1      -0.528  -2.555  -0.007  0.00  0.00    -0.248 OA
BRANCH  28  30
ATOM     30  O   UNL     1      -1.339  -0.499   0.012  0.00  0.00    -0.463 OA
BRANCH  30  32
ATOM     31  C   UNL     1      -0.019   1.526   0.010  0.00  0.00    +0.048 C 
ATOM     32  C   UNL     1       0.002  -0.004   0.002  0.00  0.00    +0.229 C 
ENDBRANCH  30  32
ENDBRANCH  28  30
ENDBRANCH  21  28
ENDBRANCH  20  23
ENDBRANCH  19  20
ENDBRANCH   1  19
TORSDOF 10
