REMARK  Name = ZINC54965305
REMARK  5 active torsions:
REMARK  status: ('A' for Active; 'I' for Inactive)
REMARK    1  A    between atoms: C_1  and  C_2
REMARK    2  A    between atoms: C_6  and  C_8
REMARK    3  A    between atoms: C_8  and  S_9
REMARK    4  A    between atoms: S_9  and  C_10
REMARK    5  A    between atoms: C_13  and  N_19
REMARK                            x       y       z     vdW  Elec       q    Type
REMARK                         _______ _______ _______ _____ _____    ______ ____
ROOT
ATOM      1  C   UNL     1       1.622  -4.015   4.517  0.00  0.00    +0.039 A 
ATOM      2  C   UNL     1       0.393  -4.323   5.012  0.00  0.00    +0.019 A 
ATOM      3  C   UNL     1       0.222  -5.024   6.207  0.00  0.00    +0.026 A 
ATOM      4  C   UNL     1       1.272  -5.447   6.961  0.00  0.00    +0.056 A 
ATOM      5  C   UNL     1       2.640  -5.167   6.517  0.00  0.00    +0.156 A 
ATOM      6  C   UNL     1       2.822  -4.431   5.250  0.00  0.00    +0.149 A 
ATOM      7  N   UNL     1       4.107  -4.295   5.038  0.00  0.00    -0.048 NA
ATOM      8  O   UNL     1       4.795  -4.915   6.111  0.00  0.00    -0.241 OA
ATOM      9  N   UNL     1       3.826  -5.434   7.007  0.00  0.00    -0.047 NA
ENDROOT
BRANCH   4  10
ATOM     10  N   UNL     1       1.047  -6.145   8.151  0.00  0.00    -0.356 N 
ATOM     11  H   UNL     1       0.140  -6.329   8.442  0.00  0.00    +0.142 HD
ATOM     12  H   UNL     1       1.798  -6.446   8.686  0.00  0.00    +0.142 HD
ENDBRANCH   4  10
BRANCH   1  13
ATOM     13  S   UNL     1       1.770  -3.127   3.002  0.00  0.00    -0.118 S 
BRANCH  13  14
ATOM     14  C   UNL     1       0.054  -2.845   2.489  0.00  0.00    +0.109 C 
BRANCH  14  20
ATOM     15  C   UNL     1      -0.018   1.503   0.010  0.00  0.00    +0.044 C 
ATOM     16  C   UNL     1       0.002  -0.004   0.002  0.00  0.00    -0.050 A 
ATOM     17  C   UNL     1       0.006  -0.689  -1.199  0.00  0.00    +0.003 A 
ATOM     18  C   UNL     1       0.025  -2.071  -1.207  0.00  0.00    +0.001 A 
ATOM     19  C   UNL     1       0.040  -2.768  -0.013  0.00  0.00    +0.004 A 
ATOM     20  C   UNL     1       0.037  -2.084   1.188  0.00  0.00    -0.037 A 
ATOM     21  C   UNL     1       0.023  -0.702   1.195  0.00  0.00    +0.007 A 
ENDBRANCH  14  20
ENDBRANCH  13  14
ENDBRANCH   1  13
TORSDOF 4
