REMARK  Name = ZINC59309585
REMARK  8 active torsions:
REMARK  status: ('A' for Active; 'I' for Inactive)
REMARK    1  A    between atoms: C_1  and  C_2
REMARK    2  A    between atoms: C_2  and  C_3
REMARK    3  A    between atoms: C_2  and  S_4
REMARK    4  A    between atoms: S_4  and  C_5
REMARK    5  A    between atoms: N_11  and  N_12
REMARK    6  A    between atoms: C_13  and  C_14
REMARK    7  A    between atoms: C_13  and  C_15
REMARK    8  A    between atoms: C_18  and  N_21
REMARK                            x       y       z     vdW  Elec       q    Type
REMARK                         _______ _______ _______ _____ _____    ______ ____
ROOT
ATOM      1  C   UNL     1       0.954   2.754   3.753  0.00  0.00    +0.191 A 
ATOM      2  N   UNL     1       0.970   1.907   4.825  0.00  0.00    -0.303 N 
ATOM      3  H   UNL     1       1.726   1.374   5.118  0.00  0.00    +0.171 HD
ATOM      4  C   UNL     1      -0.265   1.942   5.410  0.00  0.00    +0.235 A 
ATOM      5  N   UNL     1      -1.013   2.776   4.729  0.00  0.00    -0.111 NA
ATOM      6  N   UNL     1      -0.239   3.295   3.682  0.00  0.00    -0.121 NA
ATOM      7  N   UNL     1      -0.658   1.221   6.529  0.00  0.00    -0.205 N 
ATOM      8  H   UNL     1      -0.030   0.626   6.967  0.00  0.00    +0.177 HD
ENDROOT
BRANCH   7   9
ATOM      9  N   UNL     1      -1.961   1.354   7.025  0.00  0.00    -0.184 NA
ATOM     10  C   UNL     1      -2.295   0.770   8.136  0.00  0.00    +0.063 C 
ATOM     11  C   UNL     1      -3.737   0.755   8.575  0.00  0.00    +0.068 C 
BRANCH  10  12
ATOM     12  C   UNL     1      -1.264   0.124   8.968  0.00  0.00    -0.002 A 
ATOM     13  C   UNL     1       0.006   0.697   9.081  0.00  0.00    +0.011 A 
ATOM     14  C   UNL     1       0.967   0.089   9.859  0.00  0.00    +0.023 A 
ATOM     15  C   UNL     1       0.674  -1.092  10.533  0.00  0.00    +0.025 A 
ATOM     16  C   UNL     1      -0.588  -1.664  10.423  0.00  0.00    +0.023 A 
ATOM     17  C   UNL     1      -1.556  -1.060   9.651  0.00  0.00    +0.011 A 
BRANCH  15  18
ATOM     18  N   UNL     1       1.650  -1.704  11.320  0.00  0.00    -0.358 N 
ATOM     19  H   UNL     1       2.531  -1.306  11.397  0.00  0.00    +0.142 HD
ATOM     20  H   UNL     1       1.448  -2.527  11.791  0.00  0.00    +0.142 HD
ENDBRANCH  15  18
ENDBRANCH  10  12
ENDBRANCH   7   9
BRANCH   1  21
ATOM     21  S   UNL     1       2.301   3.072   2.663  0.00  0.00    -0.083 S 
BRANCH  21  23
ATOM     22  C   UNL     1       1.308   5.580   2.213  0.00  0.00    +0.019 C 
ATOM     23  C   UNL     1       1.635   4.277   1.482  0.00  0.00    +0.048 C 
ATOM     24  C   UNL     1       2.674   4.550   0.392  0.00  0.00    +0.019 C 
ENDBRANCH  21  23
ENDBRANCH   1  21
TORSDOF 5
