REMARK  Name = ZINC39676549
REMARK  11 active torsions:
REMARK  status: ('A' for Active; 'I' for Inactive)
REMARK    1  A    between atoms: C_1  and  C_2
REMARK    2  A    between atoms: C_2  and  C_3
REMARK    3  A    between atoms: C_2  and  C_4
REMARK    4  A    between atoms: C_8  and  C_17
REMARK    5  A    between atoms: N_19  and  C_20
REMARK    6  A    between atoms: C_20  and  C_21
REMARK    7  A    between atoms: C_20  and  C_29
REMARK    8  A    between atoms: C_24  and  O_27
REMARK    9  A    between atoms: O_27  and  C_28
REMARK   10  A    between atoms: C_32  and  O_35
REMARK   11  A    between atoms: O_35  and  C_36
REMARK                            x       y       z     vdW  Elec       q    Type
REMARK                         _______ _______ _______ _____ _____    ______ ____
ROOT
ATOM      1  C   UNL     1      -1.770  -0.990  -4.077  0.00  0.00    +0.219 C 
ATOM      2  O   UNL     1      -0.794  -1.438  -3.515  0.00  0.00    -0.275 OA
ATOM      3  N   UNL     1      -2.012  -1.308  -5.364  0.00  0.00    -0.304 N 
ATOM      4  H   UNL     1      -2.793  -0.949  -5.814  0.00  0.00    +0.150 HD
ENDROOT
BRANCH   1   9
ATOM      5  C   UNL     1      -1.095  -0.109  -0.097  0.00  0.00    +0.218 C 
ATOM      6  O   UNL     1      -1.337  -0.749   0.904  0.00  0.00    -0.275 OA
ATOM      7  N   UNL     1      -2.045   0.054  -1.040  0.00  0.00    -0.300 N 
ATOM      8  C   UNL     1      -1.937   0.790  -2.321  0.00  0.00    +0.121 C 
ATOM      9  C   UNL     1      -2.713  -0.077  -3.337  0.00  0.00    +0.100 C 
ATOM     10  C   UNL     1      -3.695  -0.896  -2.483  0.00  0.00    -0.004 C 
ATOM     11  C   UNL     1      -3.432  -0.470  -1.031  0.00  0.00    +0.115 C 
ATOM     12  C   UNL     1      -3.420  -2.388  -2.646  0.00  0.00    -0.010 C 
ATOM     13  C   UNL     1      -4.445  -3.184  -1.833  0.00  0.00    -0.082 C 
ATOM     14  N   UNL     1      -5.799  -2.862  -2.299  0.00  0.00    +0.379 N 
ATOM     15  C   UNL     1      -6.089  -1.444  -2.053  0.00  0.00    -0.082 C 
ATOM     16  C   UNL     1      -5.134  -0.575  -2.876  0.00  0.00    -0.010 C 
ATOM     17  H   UNL     1      -5.866  -3.051  -3.288  0.00  0.00    -0.086 HD
ATOM     18  H   UNL     1      -6.468  -3.432  -1.804  0.00  0.00    -0.086 HD
BRANCH   5  20
ATOM     19  C   UNL     1       0.130   2.024  -0.415  0.00  0.00    +0.017 C 
ATOM     20  C   UNL     1       0.268   0.506  -0.287  0.00  0.00    +0.069 C 
ATOM     21  C   UNL     1       1.150   0.173   0.918  0.00  0.00    +0.017 C 
ENDBRANCH   5  20
ENDBRANCH   1   9
BRANCH   3  22
ATOM     22  C   UNL     1      -1.095  -2.195  -6.084  0.00  0.00    +0.134 C 
BRANCH  22  23
ATOM     23  C   UNL     1      -1.466  -3.630  -5.811  0.00  0.00    -0.023 A 
ATOM     24  C   UNL     1      -2.797  -4.001  -5.763  0.00  0.00    +0.009 A 
ATOM     25  C   UNL     1      -3.139  -5.316  -5.512  0.00  0.00    +0.046 A 
ATOM     26  C   UNL     1      -2.147  -6.263  -5.308  0.00  0.00    +0.120 A 
ATOM     27  C   UNL     1      -0.812  -5.888  -5.358  0.00  0.00    +0.046 A 
ATOM     28  C   UNL     1      -0.474  -4.573  -5.614  0.00  0.00    +0.009 A 
BRANCH  26  29
ATOM     29  O   UNL     1      -2.481  -7.557  -5.061  0.00  0.00    -0.495 OA
ATOM     30  C   UNL     1      -1.407  -8.478  -4.862  0.00  0.00    +0.277 C 
ENDBRANCH  26  29
ENDBRANCH  22  23
BRANCH  22  31
ATOM     31  C   UNL     1      -1.192  -1.924  -7.564  0.00  0.00    -0.023 A 
ATOM     32  C   UNL     1      -2.423  -1.674  -8.140  0.00  0.00    +0.009 A 
ATOM     33  C   UNL     1      -2.515  -1.426  -9.496  0.00  0.00    +0.046 A 
ATOM     34  C   UNL     1      -1.370  -1.427 -10.279  0.00  0.00    +0.120 A 
ATOM     35  C   UNL     1      -0.135  -1.678  -9.698  0.00  0.00    +0.046 A 
ATOM     36  C   UNL     1      -0.048  -1.920  -8.341  0.00  0.00    +0.009 A 
BRANCH  34  37
ATOM     37  O   UNL     1      -1.457  -1.184 -11.614  0.00  0.00    -0.495 OA
ATOM     38  C   UNL     1      -0.237  -1.201 -12.357  0.00  0.00    +0.277 C 
ENDBRANCH  34  37
ENDBRANCH  22  31
ENDBRANCH   3  22
TORSDOF 7
