REMARK  Name = ZINC39362194
REMARK  12 active torsions:
REMARK  status: ('A' for Active; 'I' for Inactive)
REMARK    1  A    between atoms: C_1  and  C_2
REMARK    2  A    between atoms: C_2  and  O_3
REMARK    3  A    between atoms: O_3  and  C_4
REMARK    4  A    between atoms: C_4  and  C_6
REMARK    5  A    between atoms: C_6  and  C_8
REMARK    6  A    between atoms: C_6  and  S_9
REMARK    7  A    between atoms: S_9  and  C_10
REMARK    8  A    between atoms: C_14  and  C_25
REMARK    9  A    between atoms: N_16  and  C_17
REMARK   10  A    between atoms: C_21  and  O_23
REMARK   11  A    between atoms: O_23  and  C_24
REMARK   12  A    between atoms: C_25  and  C_26
REMARK                            x       y       z     vdW  Elec       q    Type
REMARK                         _______ _______ _______ _____ _____    ______ ____
ROOT
ATOM      1  C   UNL     1      -4.497  -4.559  -0.520  0.00  0.00    +0.218 C 
ATOM      2  N   UNL     1      -5.112  -4.290   0.800  0.00  0.00    -0.226 NA
ATOM      3  N   UNL     1      -6.480  -3.852   0.483  0.00  0.00    -0.234 NA
ATOM      4  C   UNL     1      -6.295  -3.043  -0.749  0.00  0.00    +0.163 C 
ATOM      5  N   UNL     1      -5.250  -3.765  -1.506  0.00  0.00    -0.287 N 
ATOM      6  H   UNL     1      -4.607  -3.570   1.294  0.00  0.00    +0.143 HD
ATOM      7  H   UNL     1      -6.862  -3.292   1.230  0.00  0.00    +0.143 HD
ENDROOT
BRANCH   5   8
ATOM      8  C   UNL     1      -5.022  -3.707  -2.882  0.00  0.00    +0.036 A 
ATOM      9  C   UNL     1      -4.587  -2.523  -3.466  0.00  0.00    +0.023 A 
ATOM     10  C   UNL     1      -4.361  -2.465  -4.827  0.00  0.00    +0.005 A 
ATOM     11  C   UNL     1      -4.567  -3.584  -5.613  0.00  0.00    +0.046 A 
ATOM     12  C   UNL     1      -5.001  -4.769  -5.035  0.00  0.00    +0.122 A 
ATOM     13  C   UNL     1      -5.224  -4.832  -3.669  0.00  0.00    +0.068 A 
BRANCH  12  14
ATOM     14  O   UNL     1      -5.203  -5.868  -5.809  0.00  0.00    -0.495 OA
ATOM     15  C   UNL     1      -4.949  -5.732  -7.208  0.00  0.00    +0.277 C 
ENDBRANCH  12  14
ENDBRANCH   5   8
BRANCH   1  16
ATOM     16  S   UNL     1      -2.756  -4.048  -0.510  0.00  0.00    -0.107 S 
BRANCH  16  17
ATOM     17  C   UNL     1      -1.913  -5.378   0.391  0.00  0.00    +0.155 C 
ATOM     18  C   UNL     1      -1.982  -6.670  -0.425  0.00  0.00    +0.031 C 
BRANCH  17  19
ATOM     19  C   UNL     1      -0.471  -4.999   0.613  0.00  0.00    +0.320 C 
ATOM     20  O   UNL     1       0.043  -4.150  -0.076  0.00  0.00    -0.250 OA
BRANCH  19  21
ATOM     21  O   UNL     1       0.241  -5.605   1.575  0.00  0.00    -0.464 OA
BRANCH  21  23
ATOM     22  C   UNL     1       2.248  -5.992   2.866  0.00  0.00    +0.048 C 
ATOM     23  C   UNL     1       1.602  -5.197   1.729  0.00  0.00    +0.229 C 
ENDBRANCH  21  23
ENDBRANCH  19  21
ENDBRANCH  17  19
ENDBRANCH  16  17
ENDBRANCH   1  16
BRANCH   4  24
ATOM     24  C   UNL     1      -7.596  -2.984  -1.552  0.00  0.00    +0.093 C 
BRANCH  24  25
ATOM     25  C   UNL     1      -8.653  -2.276  -0.744  0.00  0.00    +0.029 A 
ATOM     26  N   UNL     1      -9.398  -2.970   0.171  0.00  0.00    -0.311 N 
ATOM     27  C   UNL     1     -10.344  -2.347   0.898  0.00  0.00    +0.327 A 
ATOM     28  O   UNL     1     -10.993  -2.983   1.705  0.00  0.00    -0.247 OA
ATOM     29  N   UNL     1     -10.580  -1.031   0.744  0.00  0.00    -0.275 N 
ATOM     30  C   UNL     1      -9.868  -0.313  -0.148  0.00  0.00    +0.254 A 
ATOM     31  O   UNL     1     -10.081   0.878  -0.288  0.00  0.00    -0.268 OA
ATOM     32  C   UNL     1      -8.866  -0.954  -0.916  0.00  0.00    +0.091 A 
ATOM     33  H   UNL     1     -11.266  -0.598   1.276  0.00  0.00    +0.173 HD
ATOM     34  H   UNL     1      -9.242  -3.919   0.297  0.00  0.00    +0.170 HD
ENDBRANCH  24  25
ENDBRANCH   4  24
TORSDOF 9
