REMARK  Name = ZINC57329577
REMARK  4 active torsions:
REMARK  status: ('A' for Active; 'I' for Inactive)
REMARK    1  A    between atoms: C_1  and  C_2
REMARK    2  A    between atoms: C_2  and  C_3
REMARK    3  A    between atoms: C_2  and  C_4
REMARK    4  A    between atoms: C_14  and  C_17
REMARK                            x       y       z     vdW  Elec       q    Type
REMARK                         _______ _______ _______ _____ _____    ______ ____
ROOT
ATOM      1  C   UNL     1       0.727  -0.493   1.229  0.00  0.00    +0.053 A 
ATOM      2  C   UNL     1       0.088  -1.306   2.120  0.00  0.00    +0.093 A 
ATOM      3  C   UNL     1       0.793  -1.769   3.245  0.00  0.00    +0.253 A 
ATOM      4  N   UNL     1       2.080  -1.393   3.404  0.00  0.00    -0.295 N 
ATOM      5  C   UNL     1       2.665  -0.581   2.483  0.00  0.00    +0.198 A 
ATOM      6  N   UNL     1       1.999  -0.155   1.428  0.00  0.00    -0.220 NA
ATOM      7  N   UNL     1       3.970  -0.204   2.652  0.00  0.00    -0.300 N 
ATOM      8  C   UNL     1       4.666   0.571   1.615  0.00  0.00    +0.108 C 
ATOM      9  C   UNL     1       5.259   1.830   2.255  0.00  0.00    +0.020 C 
ATOM     10  C   UNL     1       6.143   1.427   3.438  0.00  0.00    +0.018 C 
ATOM     11  C   UNL     1       5.295   0.706   4.488  0.00  0.00    +0.119 C 
ATOM     12  C   UNL     1       4.700  -0.561   3.876  0.00  0.00    +0.122 C 
ATOM     13  O   UNL     1       0.252  -2.497   4.061  0.00  0.00    -0.268 OA
ATOM     14  H   UNL     1       2.585  -1.701   4.173  0.00  0.00    +0.172 HD
ENDROOT
BRANCH   1  16
ATOM     15  C   UNL     1      -0.029   1.547   0.040  0.00  0.00    +0.014 C 
ATOM     16  C   UNL     1      -0.006   0.017   0.016  0.00  0.00    +0.032 C 
ATOM     17  C   UNL     1       0.707  -0.462  -1.250  0.00  0.00    +0.014 C 
ENDBRANCH   1  16
BRANCH  11  18
ATOM     18  C   UNL     1       6.159   0.339   5.667  0.00  0.00    +0.361 C 
ATOM     19  O   UNL     1       6.730   1.212   6.299  0.00  0.00    -0.246 OA
ATOM     20  O   UNL     1       6.288  -0.830   5.989  0.00  0.00    -0.246 OA
ENDBRANCH  11  18
TORSDOF 2
