REMARK  Name = ZINC23582007
REMARK  6 active torsions:
REMARK  status: ('A' for Active; 'I' for Inactive)
REMARK    1  A    between atoms: C_1  and  C_2
REMARK    2  A    between atoms: C_2  and  C_4
REMARK    3  A    between atoms: C_2  and  N_17
REMARK    4  A    between atoms: N_6  and  C_7
REMARK    5  A    between atoms: C_7  and  C_8
REMARK    6  A    between atoms: C_8  and  C_9
REMARK                            x       y       z     vdW  Elec       q    Type
REMARK                         _______ _______ _______ _____ _____    ______ ____
ROOT
ATOM      1  C   UNL     1       5.013   3.597   1.225  0.00  0.00    +0.038 C 
ATOM      2  C   UNL     1       4.159   3.340  -0.018  0.00  0.00    +0.164 C 
ENDROOT
BRANCH   2   3
ATOM      3  N   UNL     1       3.710   1.946  -0.022  0.00  0.00    -0.255 N 
ATOM      4  C   UNL     1       2.382   1.539  -0.012  0.00  0.00    +0.046 A 
ATOM      5  C   UNL     1       1.139   2.145   0.003  0.00  0.00    +0.024 A 
ATOM      6  C   UNL     1      -0.017   1.364   0.009  0.00  0.00    +0.002 A 
ATOM      7  C   UNL     1       0.002  -0.004   0.002  0.00  0.00    +0.008 A 
ATOM      8  C   UNL     1       1.245  -0.657  -0.014  0.00  0.00    -0.015 A 
ATOM      9  C   UNL     1       2.385   0.148  -0.020  0.00  0.00    +0.016 A 
ATOM     10  C   UNL     1       3.699  -0.342  -0.036  0.00  0.00    +0.047 A 
ATOM     11  C   UNL     1       3.850  -1.718  -0.046  0.00  0.00    +0.014 A 
ATOM     12  C   UNL     1       2.722  -2.537  -0.040  0.00  0.00    +0.001 A 
ATOM     13  C   UNL     1       1.442  -2.049  -0.024  0.00  0.00    +0.008 A 
ATOM     14  C   UNL     1       4.534   0.865  -0.037  0.00  0.00    +0.252 C 
ATOM     15  O   UNL     1       5.751   0.893  -0.047  0.00  0.00    -0.270 OA
ENDBRANCH   2   3
BRANCH   2  16
ATOM     16  C   UNL     1       4.977   3.608  -1.254  0.00  0.00    +0.234 C 
ATOM     17  O   UNL     1       5.167   2.722  -2.060  0.00  0.00    -0.274 OA
ATOM     18  N   UNL     1       5.498   4.833  -1.465  0.00  0.00    -0.313 N 
ATOM     19  H   UNL     1       5.326   5.638  -0.734  0.00  0.00    +0.149 HD
BRANCH  18  20
ATOM     20  C   UNL     1       6.294   5.094  -2.667  0.00  0.00    +0.110 C 
BRANCH  20  21
ATOM     21  C   UNL     1       6.763   6.551  -2.662  0.00  0.00    +0.074 C 
BRANCH  21  22
ATOM     22  C   UNL     1       7.581   6.819  -3.899  0.00  0.00    +0.050 A 
ATOM     23  C   UNL     1       6.990   7.348  -5.006  0.00  0.00    +0.093 A 
ATOM     24  C   UNL     1       7.786   7.591  -6.145  0.00  0.00    +0.252 A 
ATOM     25  O   UNL     1       7.298   8.068  -7.155  0.00  0.00    -0.268 OA
ATOM     26  N   UNL     1       9.099   7.280  -6.093  0.00  0.00    -0.313 N 
ATOM     27  H   UNL     1       9.741   7.457  -6.969  0.00  0.00    +0.170 HD
ATOM     28  C   UNL     1       9.622   6.755  -4.968  0.00  0.00    +0.199 A 
ATOM     29  N   UNL     1       8.885   6.534  -3.912  0.00  0.00    -0.242 NA
ENDBRANCH  21  22
ENDBRANCH  20  21
ENDBRANCH  18  20
ENDBRANCH   2  16
TORSDOF 5
