REMARK  Name = ZINC65135467
REMARK  9 active torsions:
REMARK  status: ('A' for Active; 'I' for Inactive)
REMARK    1  A    between atoms: C_1  and  C_2
REMARK    2  A    between atoms: C_2  and  C_3
REMARK    3  A    between atoms: C_2  and  C_4
REMARK    4  A    between atoms: C_4  and  C_5
REMARK    5  A    between atoms: C_5  and  N_6
REMARK    6  A    between atoms: N_9  and  N_10
REMARK    7  A    between atoms: C_11  and  C_13
REMARK    8  A    between atoms: C_13  and  N_14
REMARK    9  A    between atoms: N_21  and  C_24
REMARK                            x       y       z     vdW  Elec       q    Type
REMARK                         _______ _______ _______ _____ _____    ______ ____
ROOT
ATOM      1  N   UNL     1      -5.360  -3.464  -0.087  0.00  0.00    -0.232 N 
ATOM      2  C   UNL     1      -6.624  -3.930  -0.077  0.00  0.00    +0.249 C 
ATOM      3  O   UNL     1      -6.832  -5.121  -0.173  0.00  0.00    -0.272 OA
ATOM      4  H   UNL     1      -5.194  -2.511  -0.010  0.00  0.00    +0.173 HD
ENDROOT
BRANCH   1   8
ATOM      5  N   UNL     1      -2.790  -2.565  -0.111  0.00  0.00    -0.298 N 
ATOM      6  C   UNL     1      -3.021  -3.888  -0.217  0.00  0.00    +0.316 C 
ATOM      7  O   UNL     1      -2.088  -4.662  -0.322  0.00  0.00    -0.251 OA
ATOM      8  N   UNL     1      -4.285  -4.355  -0.208  0.00  0.00    -0.218 N 
ATOM      9  H   UNL     1      -3.534  -1.948  -0.027  0.00  0.00    +0.150 HD
ATOM     10  H   UNL     1      -4.451  -5.307  -0.285  0.00  0.00    +0.174 HD
BRANCH   5  11
ATOM     11  C   UNL     1      -1.416  -2.058  -0.121  0.00  0.00    +0.106 C 
BRANCH  11  12
ATOM     12  C   UNL     1      -1.433  -0.534   0.013  0.00  0.00    +0.022 C 
BRANCH  12  14
ATOM     13  C   UNL     1      -0.019   1.526   0.010  0.00  0.00    +0.007 C 
ATOM     14  C   UNL     1       0.002  -0.004   0.002  0.00  0.00    -0.016 C 
ATOM     15  C   UNL     1       0.742  -0.511   1.242  0.00  0.00    +0.007 C 
ENDBRANCH  12  14
ENDBRANCH  11  12
ENDBRANCH   5  11
ENDBRANCH   1   8
BRANCH   2  16
ATOM     16  C   UNL     1      -7.780  -2.972   0.052  0.00  0.00    +0.224 C 
BRANCH  16  17
ATOM     17  N   UNL     1      -9.039  -3.721   0.037  0.00  0.00    -0.283 N 
ATOM     18  C   UNL     1      -9.782  -4.044  -1.096  0.00  0.00    +0.070 A 
ATOM     19  C   UNL     1      -9.608  -3.797  -2.450  0.00  0.00    +0.028 A 
ATOM     20  C   UNL     1     -10.541  -4.258  -3.357  0.00  0.00    +0.002 A 
ATOM     21  C   UNL     1     -11.650  -4.963  -2.922  0.00  0.00    +0.002 A 
ATOM     22  C   UNL     1     -11.832  -5.213  -1.576  0.00  0.00    +0.028 A 
ATOM     23  C   UNL     1     -10.899  -4.756  -0.657  0.00  0.00    +0.070 A 
ATOM     24  N   UNL     1     -10.801  -4.844   0.730  0.00  0.00    -0.295 N 
ATOM     25  C   UNL     1      -9.673  -4.219   1.115  0.00  0.00    +0.330 A 
ATOM     26  O   UNL     1      -9.286  -4.117   2.265  0.00  0.00    -0.246 OA
ATOM     27  C   UNL     1     -11.759  -5.508   1.617  0.00  0.00    +0.154 C 
ENDBRANCH  16  17
ENDBRANCH   2  16
TORSDOF 6
