REMARK  Name = ZINC40485070
REMARK  6 active torsions:
REMARK  status: ('A' for Active; 'I' for Inactive)
REMARK    1  A    between atoms: C_1  and  C_2
REMARK    2  A    between atoms: C_9  and  C_12
REMARK    3  A    between atoms: N_14  and  C_15
REMARK    4  A    between atoms: N_19  and  C_20
REMARK    5  A    between atoms: C_20  and  C_21
REMARK    6  A    between atoms: C_20  and  C_22
REMARK                            x       y       z     vdW  Elec       q    Type
REMARK                         _______ _______ _______ _____ _____    ______ ____
ROOT
ATOM      1  C   UNL     1       0.403  -5.989   1.965  0.00  0.00    +0.232 C 
ATOM      2  O   UNL     1       1.537  -6.167   1.574  0.00  0.00    -0.274 OA
ATOM      3  N   UNL     1      -0.159  -6.862   2.824  0.00  0.00    -0.270 N 
ATOM      4  H   UNL     1      -1.066  -6.719   3.137  0.00  0.00    +0.156 HD
ENDROOT
BRANCH   1  13
ATOM      5  C   UNL     1      -0.018   1.503   0.010  0.00  0.00    +0.044 C 
ATOM      6  C   UNL     1       0.002  -0.004   0.002  0.00  0.00    -0.049 A 
ATOM      7  C   UNL     1       0.006  -0.699  -1.194  0.00  0.00    +0.004 A 
ATOM      8  C   UNL     1       0.033  -2.075  -1.211  0.00  0.00    +0.005 A 
ATOM      9  C   UNL     1       0.055  -2.812  -0.024  0.00  0.00    -0.032 A 
ATOM     10  C   UNL     1       0.035  -2.093   1.169  0.00  0.00    +0.012 A 
ATOM     11  C   UNL     1       0.023  -0.711   1.189  0.00  0.00    +0.018 A 
ATOM     12  S   UNL     1       0.019  -3.293   2.483  0.00  0.00    -0.112 S 
ATOM     13  C   UNL     1      -0.378  -4.791   1.490  0.00  0.00    +0.142 C 
ATOM     14  C   UNL     1       0.107  -4.314   0.102  0.00  0.00    +0.060 C 
ENDBRANCH   1  13
BRANCH   3  15
ATOM     15  C   UNL     1       0.565  -7.970   3.264  0.00  0.00    +0.123 A 
ATOM     16  C   UNL     1       1.841  -8.289   2.913  0.00  0.00    +0.065 A 
ATOM     17  C   UNL     1       2.183  -9.471   3.575  0.00  0.00    +0.136 A 
ATOM     18  N   UNL     1       1.159  -9.852   4.294  0.00  0.00    -0.178 NA
ATOM     19  N   UNL     1       0.127  -8.921   4.121  0.00  0.00    -0.248 N 
BRANCH  19  20
ATOM     20  C   UNL     1      -1.194  -8.970   4.753  0.00  0.00    +0.103 C 
ATOM     21  C   UNL     1      -1.904 -10.264   4.349  0.00  0.00    +0.032 C 
ATOM     22  C   UNL     1      -1.033  -8.930   6.274  0.00  0.00    +0.032 C 
ENDBRANCH  19  20
ENDBRANCH   3  15
TORSDOF 3
