REMARK  Name = ZINC36592236
REMARK  17 active torsions:
REMARK  status: ('A' for Active; 'I' for Inactive)
REMARK    1  A    between atoms: C_1  and  C_2
REMARK    2  A    between atoms: C_5  and  S_8
REMARK    3  A    between atoms: S_8  and  C_11
REMARK    4  A    between atoms: C_11  and  N_12
REMARK    5  A    between atoms: C_13  and  C_15
REMARK    6  A    between atoms: C_15  and  C_17
REMARK    7  A    between atoms: C_15  and  N_26
REMARK    8  A    between atoms: C_18  and  O_25
REMARK    9  A    between atoms: C_20  and  O_24
REMARK   10  A    between atoms: C_22  and  O_23
REMARK   11  A    between atoms: N_26  and  C_32
REMARK   12  A    between atoms: C_27  and  C_29
REMARK   13  A    between atoms: C_29  and  O_30
REMARK   14  A    between atoms: O_30  and  C_31
REMARK   15  A    between atoms: C_32  and  C_33
REMARK   16  A    between atoms: C_32  and  C_34
REMARK   17  A    between atoms: C_32  and  C_35
REMARK                            x       y       z     vdW  Elec       q    Type
REMARK                         _______ _______ _______ _____ _____    ______ ____
ROOT
ATOM      1  C   UNL     1       3.655  -5.896   1.895  0.00  0.00    +0.200 C 
ENDROOT
BRANCH   1   2
ATOM      2  C   UNL     1       2.762  -4.753   1.486  0.00  0.00    +0.065 A 
ATOM      3  C   UNL     1       1.436  -4.730   1.893  0.00  0.00    +0.129 A 
ATOM      4  C   UNL     1       0.614  -3.678   1.516  0.00  0.00    +0.091 A 
ATOM      5  C   UNL     1       1.118  -2.650   0.734  0.00  0.00    +0.124 A 
ATOM      6  C   UNL     1       2.444  -2.673   0.328  0.00  0.00    +0.091 A 
ATOM      7  C   UNL     1       3.267  -3.723   0.708  0.00  0.00    +0.129 A 
BRANCH   7   8
ATOM      8  O   UNL     1       4.568  -3.743   0.315  0.00  0.00    -0.506 OA
ATOM      9  H   UNL     1       4.716  -4.189  -0.530  0.00  0.00    +0.292 HD
ENDBRANCH   7   8
BRANCH   5  10
ATOM     10  O   UNL     1       0.313  -1.620   0.364  0.00  0.00    -0.507 OA
ATOM     11  H   UNL     1       0.310  -0.880   0.986  0.00  0.00    +0.292 HD
ENDBRANCH   5  10
BRANCH   3  12
ATOM     12  O   UNL     1       0.942  -5.737   2.659  0.00  0.00    -0.506 OA
ATOM     13  H   UNL     1       1.090  -5.619   3.607  0.00  0.00    +0.292 HD
ENDBRANCH   3  12
ENDBRANCH   1   2
BRANCH   1  15
ATOM     14  N   UNL     1       3.203  -6.875  -0.331  0.00  0.00    -0.294 N 
ATOM     15  C   UNL     1       3.414  -7.073   0.986  0.00  0.00    +0.240 C 
ATOM     16  O   UNL     1       3.408  -8.198   1.438  0.00  0.00    -0.273 OA
ATOM     17  H   UNL     1       3.207  -5.975  -0.693  0.00  0.00    +0.150 HD
BRANCH  14  18
ATOM     18  C   UNL     1       2.969  -8.019  -1.215  0.00  0.00    +0.278 C 
BRANCH  18  19
ATOM     19  S   UNL     1       1.183  -8.276  -1.410  0.00  0.00    +0.013 S 
ATOM     20  O   UNL     1       0.542  -8.241  -0.143  0.00  0.00    -0.168 OA
ATOM     21  O   UNL     1       0.939  -9.344  -2.316  0.00  0.00    -0.168 OA
BRANCH  19  26
ATOM     22  C   UNL     1      -0.792  -3.346  -4.273  0.00  0.00    +0.044 C 
ATOM     23  C   UNL     1      -0.299  -4.578  -3.558  0.00  0.00    -0.050 A 
ATOM     24  C   UNL     1       0.121  -5.677  -4.284  0.00  0.00    +0.005 A 
ATOM     25  C   UNL     1       0.574  -6.806  -3.628  0.00  0.00    +0.027 A 
ATOM     26  C   UNL     1       0.607  -6.836  -2.246  0.00  0.00    +0.090 A 
ATOM     27  C   UNL     1       0.189  -5.737  -1.521  0.00  0.00    +0.027 A 
ATOM     28  C   UNL     1      -0.260  -4.606  -2.177  0.00  0.00    +0.005 A 
ENDBRANCH  19  26
ENDBRANCH  18  19
ENDBRANCH  14  18
ENDBRANCH   1  15
BRANCH   1  29
ATOM     29  N   UNL     1       3.357  -6.278   3.278  0.00  0.00    -0.279 N 
ATOM     30  C   UNL     1       3.510  -5.382   4.273  0.00  0.00    +0.243 C 
ATOM     31  O   UNL     1       3.505  -4.195   4.026  0.00  0.00    -0.273 OA
BRANCH  29  32
ATOM     32  C   UNL     1       2.892  -7.635   3.579  0.00  0.00    +0.030 C 
ATOM     33  C   UNL     1       4.053  -8.618   3.422  0.00  0.00    +0.031 C 
ATOM     34  C   UNL     1       2.369  -7.688   5.016  0.00  0.00    +0.031 C 
ATOM     35  C   UNL     1       1.767  -8.014   2.613  0.00  0.00    +0.031 C 
ENDBRANCH  29  32
BRANCH  30  36
ATOM     36  C   UNL     1       3.687  -5.856   5.693  0.00  0.00    +0.255 C 
BRANCH  36  37
ATOM     37  O   UNL     1       4.221  -4.793   6.486  0.00  0.00    -0.374 OA
ATOM     38  C   UNL     1       4.429  -5.139   7.856  0.00  0.00    +0.194 C 
ENDBRANCH  36  37
ENDBRANCH  30  36
ENDBRANCH   1  29
TORSDOF 12
