REMARK  Name = ZINC00550761
REMARK  4 active torsions:
REMARK  status: ('A' for Active; 'I' for Inactive)
REMARK    1  A    between atoms: C_1  and  C_2
REMARK    2  A    between atoms: C_9  and  N_22
REMARK    3  A    between atoms: C_10  and  C_20
REMARK    4  A    between atoms: C_11  and  C_13
REMARK                            x       y       z     vdW  Elec       q    Type
REMARK                         _______ _______ _______ _____ _____    ______ ____
ROOT
ATOM      1  C   UNL     1       0.223   1.935  -0.415  0.00  0.00    +0.068 C 
ATOM      2  C   UNL     1       0.201   0.453  -0.143  0.00  0.00    +0.067 A 
ATOM      3  C   UNL     1       0.005  -0.546  -1.087  0.00  0.00    +0.045 A 
ATOM      4  C   UNL     1       0.057  -1.752  -0.445  0.00  0.00    +0.222 A 
ATOM      5  N   UNL     1       0.276  -1.509   0.858  0.00  0.00    -0.246 N 
ATOM      6  H   UNL     1       0.359  -2.176   1.557  0.00  0.00    +0.192 HD
ATOM      7  N   UNL     1       0.371  -0.118   1.026  0.00  0.00    -0.176 NA
ATOM      8  O   UNL     1      -0.097  -2.933  -1.092  0.00  0.00    -0.423 OA
ATOM      9  C   UNL     1      -0.030  -2.921  -2.439  0.00  0.00    +0.200 C 
ATOM     10  C   UNL     1      -0.085  -1.795  -3.184  0.00  0.00    +0.094 C 
ATOM     11  C   UNL     1      -0.230  -0.424  -2.570  0.00  0.00    +0.078 C 
ENDROOT
BRANCH  11  12
ATOM     12  C   UNL     1      -1.641   0.109  -2.828  0.00  0.00    +0.024 C 
ATOM     13  C   UNL     1      -1.809   0.398  -4.321  0.00  0.00    +0.009 C 
ATOM     14  C   UNL     1      -3.292   0.679  -4.596  0.00  0.00    +0.005 C 
ATOM     15  C   UNL     1      -4.080  -0.614  -4.373  0.00  0.00    +0.027 C 
ATOM     16  C   UNL     1      -3.710  -1.222  -3.051  0.00  0.00    -0.031 C 
ATOM     17  C   UNL     1      -2.647  -0.912  -2.385  0.00  0.00    -0.027 C 
ENDBRANCH  11  12
BRANCH   9  18
ATOM     18  N   UNL     1       0.099  -4.122  -3.091  0.00  0.00    -0.328 N 
ATOM     19  H   UNL     1       0.140  -4.947  -2.583  0.00  0.00    +0.145 HD
ATOM     20  H   UNL     1       0.149  -4.145  -4.059  0.00  0.00    +0.145 HD
ENDBRANCH   9  18
BRANCH  10  21
ATOM     21  C   UNL     1      -0.001  -1.907  -4.609  0.00  0.00    +0.100 C 
ATOM     22  N   UNL     1       0.066  -1.995  -5.740  0.00  0.00    -0.191 NA
ENDBRANCH  10  21
TORSDOF 3
