REMARK  Name = ZINC62564548
REMARK  2 active torsions:
REMARK  status: ('A' for Active; 'I' for Inactive)
REMARK    1  A    between atoms: C_3  and  C_8
REMARK    2  A    between atoms: C_14  and  N_17
REMARK                            x       y       z     vdW  Elec       q    Type
REMARK                         _______ _______ _______ _____ _____    ______ ____
ROOT
ATOM      1  C   UNL     1       3.656   2.162  -0.022  0.00  0.00    +0.229 A 
ATOM      2  N   UNL     1       3.755   3.467  -0.011  0.00  0.00    -0.207 NA
ATOM      3  C   UNL     1       5.070   3.806  -0.024  0.00  0.00    +0.130 A 
ATOM      4  C   UNL     1       5.752   5.028  -0.020  0.00  0.00    +0.071 A 
ATOM      5  C   UNL     1       7.129   5.045  -0.037  0.00  0.00    +0.044 A 
ATOM      6  C   UNL     1       7.847   3.858  -0.058  0.00  0.00    +0.067 A 
ATOM      7  C   UNL     1       7.187   2.639  -0.061  0.00  0.00    +0.088 A 
ATOM      8  C   UNL     1       5.795   2.606  -0.044  0.00  0.00    +0.179 A 
ATOM      9  O   UNL     1       4.883   1.608  -0.036  0.00  0.00    -0.433 OA
ATOM     10 CL   UNL     1       9.582   3.900  -0.079  0.00  0.00    -0.081 Cl
ATOM     11 CL   UNL     1       4.863   6.520   0.004  0.00  0.00    -0.081 Cl
ENDROOT
BRANCH   1  14
ATOM     12  C   UNL     1      -0.017   1.379   0.010  0.00  0.00    +0.002 A 
ATOM     13  C   UNL     1       1.167   2.088   0.002  0.00  0.00    +0.013 A 
ATOM     14  C   UNL     1       2.385   1.408  -0.013  0.00  0.00    +0.038 A 
ATOM     15  C   UNL     1       2.398   0.012  -0.021  0.00  0.00    +0.033 A 
ATOM     16  C   UNL     1       1.207  -0.686  -0.013  0.00  0.00    +0.042 A 
ATOM     17  C   UNL     1       0.002  -0.004   0.002  0.00  0.00    +0.020 A 
ATOM     18 CL   UNL     1       1.221  -2.422  -0.023  0.00  0.00    -0.084 Cl
ENDBRANCH   1  14
BRANCH   7  19
ATOM     19  N   UNL     1       7.918   1.445  -0.082  0.00  0.00    -0.354 N 
ATOM     20  H   UNL     1       8.887   1.470  -0.093  0.00  0.00    +0.142 HD
ATOM     21  H   UNL     1       7.454   0.593  -0.084  0.00  0.00    +0.142 HD
ENDBRANCH   7  19
TORSDOF 2
