REMARK  Name = ZINC44687723
REMARK  3 active torsions:
REMARK  status: ('A' for Active; 'I' for Inactive)
REMARK    1  A    between atoms: C_7  and  N_12
REMARK    2  A    between atoms: N_12  and  C_13
REMARK    3  A    between atoms: N_17  and  C_19
REMARK                            x       y       z     vdW  Elec       q    Type
REMARK                         _______ _______ _______ _____ _____    ______ ____
ROOT
ATOM      1  C   UNL     1      -0.017   1.372   0.010  0.00  0.00    +0.046 A 
ATOM      2  C   UNL     1       1.175   2.080   0.002  0.00  0.00    +0.125 A 
ATOM      3  C   UNL     1       2.380   1.398  -0.013  0.00  0.00    +0.055 A 
ATOM      4  C   UNL     1       2.400   0.017  -0.021  0.00  0.00    +0.042 A 
ATOM      5  C   UNL     1       1.204  -0.700  -0.014  0.00  0.00    +0.053 A 
ATOM      6  C   UNL     1       0.002  -0.004   0.002  0.00  0.00    +0.003 A 
ATOM      7  C   UNL     1      -1.093  -1.046   0.006  0.00  0.00    +0.173 C 
ATOM      8  C   UNL     1      -0.347  -2.364  -0.008  0.00  0.00    +0.239 C 
ATOM      9  O   UNL     1      -0.842  -3.471  -0.010  0.00  0.00    -0.273 OA
ATOM     10  N   UNL     1       0.965  -2.076  -0.020  0.00  0.00    -0.283 N 
ATOM     11 BR   UNL     1       4.051  -0.903  -0.043  0.00  0.00    -0.048 Br
ATOM     12  F   UNL     1       1.162   3.431   0.009  0.00  0.00    -0.205 F 
ATOM     13  H   UNL     1       1.666  -2.747  -0.031  0.00  0.00    +0.155 HD
ENDROOT
BRANCH   7  14
ATOM     14  N   UNL     1      -1.933  -0.914  -1.191  0.00  0.00    -0.301 NA
ATOM     15  H   UNL     1      -1.980   0.046  -1.496  0.00  0.00    +0.123 HD
BRANCH  14  16
ATOM     16  C   UNL     1      -3.277  -1.458  -0.953  0.00  0.00    +0.036 C 
ATOM     17  C   UNL     1      -4.217  -0.365  -0.379  0.00  0.00    -0.002 C 
ATOM     18  C   UNL     1      -5.606  -0.876  -0.834  0.00  0.00    -0.077 C 
ATOM     19  N   UNL     1      -5.376  -1.450  -2.177  0.00  0.00    +0.383 N 
ATOM     20  C   UNL     1      -3.955  -1.840  -2.285  0.00  0.00    -0.060 C 
ATOM     21  H   UNL     1      -5.596  -0.763  -2.882  0.00  0.00    -0.081 HD
BRANCH  19  22
ATOM     22  C   UNL     1      -6.225  -2.635  -2.361  0.00  0.00    -0.069 C 
ATOM     23  C   UNL     1      -7.063  -2.712  -3.638  0.00  0.00    -0.017 C 
ATOM     24  C   UNL     1      -7.741  -2.434  -2.295  0.00  0.00    -0.017 C 
ENDBRANCH  19  22
ENDBRANCH  14  16
ENDBRANCH   7  14
TORSDOF 3
