REMARK  Name = ZINC04717712
REMARK  8 active torsions:
REMARK  status: ('A' for Active; 'I' for Inactive)
REMARK    1  A    between atoms: C_1  and  C_2
REMARK    2  A    between atoms: C_3  and  C_14
REMARK    3  A    between atoms: C_4  and  O_13
REMARK    4  A    between atoms: N_5  and  C_7
REMARK    5  A    between atoms: C_15  and  C_16
REMARK    6  A    between atoms: C_15  and  C_18
REMARK    7  A    between atoms: N_24  and  C_25
REMARK    8  A    between atoms: N_24  and  C_26
REMARK                            x       y       z     vdW  Elec       q    Type
REMARK                         _______ _______ _______ _____ _____    ______ ____
ROOT
ATOM      1  C   UNL     1      -0.004  -0.395  -2.500  0.00  0.00    +0.037 C 
ATOM      2  C   UNL     1       0.913  -0.901  -3.396  0.00  0.00    +0.097 C 
ENDROOT
BRANCH   2   3
ATOM      3  C   UNL     1       0.900  -0.449  -4.801  0.00  0.00    +0.177 A 
ATOM      4  N   UNL     1       0.005   0.453  -5.203  0.00  0.00    -0.194 NA
ATOM      5  C   UNL     1      -0.005   0.859  -6.468  0.00  0.00    +0.217 A 
ATOM      6  N   UNL     1       0.876   0.365  -7.333  0.00  0.00    -0.181 NA
ATOM      7  C   UNL     1       1.770  -0.534  -6.933  0.00  0.00    +0.222 A 
ATOM      8  N   UNL     1       1.786  -0.938  -5.667  0.00  0.00    -0.194 NA
ATOM      9  N   UNL     1       2.683  -1.046  -7.832  0.00  0.00    -0.306 N 
ATOM     10  C   UNL     1       2.669  -0.597  -9.227  0.00  0.00    +0.132 C 
ATOM     11  C   UNL     1       3.668  -2.037  -7.392  0.00  0.00    +0.132 C 
ATOM     12  N   UNL     1      -0.932   1.793  -6.885  0.00  0.00    -0.327 N 
ATOM     13  H   UNL     1      -1.575   2.153  -6.255  0.00  0.00    +0.145 HD
ATOM     14  H   UNL     1      -0.939   2.090  -7.809  0.00  0.00    +0.145 HD
ENDBRANCH   2   3
BRANCH   1  17
ATOM     15  C   UNL     1      -0.018   1.503   0.010  0.00  0.00    +0.068 C 
ATOM     16  C   UNL     1       0.002  -0.004   0.002  0.00  0.00    +0.071 A 
ATOM     17  C   UNL     1       0.008  -0.829  -1.151  0.00  0.00    +0.060 A 
ATOM     18  C   UNL     1       0.028  -2.151  -0.703  0.00  0.00    +0.223 A 
ATOM     19  N   UNL     1       0.034  -2.112   0.646  0.00  0.00    -0.200 N 
ATOM     20  N   UNL     1       0.023  -0.774   1.053  0.00  0.00    -0.168 NA
BRANCH  19  21
ATOM     21  C   UNL     1       0.053  -3.226   1.497  0.00  0.00    +0.069 A 
ATOM     22  C   UNL     1      -0.618  -4.387   1.137  0.00  0.00    +0.028 A 
ATOM     23  C   UNL     1      -0.597  -5.483   1.977  0.00  0.00    +0.002 A 
ATOM     24  C   UNL     1       0.090  -5.425   3.176  0.00  0.00    +0.000 A 
ATOM     25  C   UNL     1       0.758  -4.269   3.537  0.00  0.00    +0.002 A 
ATOM     26  C   UNL     1       0.747  -3.172   2.698  0.00  0.00    +0.028 A 
ENDBRANCH  19  21
BRANCH  18  27
ATOM     27  O   UNL     1       0.039  -3.262  -1.476  0.00  0.00    -0.492 OA
ATOM     28  H   UNL     1       0.926  -3.573  -1.705  0.00  0.00    +0.294 HD
ENDBRANCH  18  27
ENDBRANCH   1  17
BRANCH   2  29
ATOM     29  C   UNL     1       1.879  -1.866  -2.963  0.00  0.00    +0.103 C 
ATOM     30  N   UNL     1       2.644  -2.632  -2.619  0.00  0.00    -0.191 NA
ENDBRANCH   2  29
TORSDOF 5
