REMARK  Name = ZINC03350831
REMARK  11 active torsions:
REMARK  status: ('A' for Active; 'I' for Inactive)
REMARK    1  A    between atoms: C_1  and  C_2
REMARK    2  A    between atoms: C_2  and  C_3
REMARK    3  A    between atoms: C_3  and  C_4
REMARK    4  A    between atoms: C_4  and  N_5
REMARK    5  A    between atoms: N_5  and  C_6
REMARK    6  A    between atoms: C_7  and  N_19
REMARK    7  A    between atoms: N_8  and  C_15
REMARK    8  A    between atoms: C_15  and  C_16
REMARK    9  A    between atoms: C_16  and  C_17
REMARK   10  A    between atoms: C_16  and  C_18
REMARK   11  A    between atoms: C_20  and  C_22
REMARK                            x       y       z     vdW  Elec       q    Type
REMARK                         _______ _______ _______ _____ _____    ______ ____
ROOT
ATOM      1  N   UNL     1      -2.766  -2.571   0.005  0.00  0.00    -0.258 N 
ATOM      2  C   UNL     1      -3.334  -2.914   1.179  0.00  0.00    +0.286 C 
ATOM      3  O   UNL     1      -4.435  -3.431   1.194  0.00  0.00    -0.266 OA
ENDROOT
BRANCH   1   4
ATOM      4  C   UNL     1      -3.492  -2.709  -1.196  0.00  0.00    +0.140 A 
ATOM      5  C   UNL     1      -3.097  -3.622  -2.153  0.00  0.00    +0.127 A 
ATOM      6  N   UNL     1      -3.825  -3.734  -3.314  0.00  0.00    -0.280 N 
ATOM      7  C   UNL     1      -4.909  -2.963  -3.515  0.00  0.00    +0.331 A 
ATOM      8  O   UNL     1      -5.540  -3.078  -4.549  0.00  0.00    -0.246 OA
ATOM      9  N   UNL     1      -5.309  -2.068  -2.594  0.00  0.00    -0.273 N 
ATOM     10  H   UNL     1      -6.094  -1.524  -2.763  0.00  0.00    +0.173 HD
ATOM     11  C   UNL     1      -4.634  -1.923  -1.437  0.00  0.00    +0.277 A 
ATOM     12  O   UNL     1      -5.008  -1.112  -0.606  0.00  0.00    -0.266 OA
BRANCH   5  13
ATOM     13  N   UNL     1      -1.990  -4.410  -1.948  0.00  0.00    -0.343 N 
ATOM     14  H   UNL     1      -1.438  -4.276  -1.161  0.00  0.00    +0.144 HD
ATOM     15  H   UNL     1      -1.760  -5.100  -2.590  0.00  0.00    +0.144 HD
ENDBRANCH   5  13
BRANCH   6  16
ATOM     16  C   UNL     1      -3.418  -4.699  -4.339  0.00  0.00    +0.131 C 
BRANCH  16  17
ATOM     17  C   UNL     1      -4.106  -6.040  -4.079  0.00  0.00    +0.003 C 
ATOM     18  C   UNL     1      -5.617  -5.881  -4.252  0.00  0.00    +0.009 C 
ATOM     19  C   UNL     1      -3.586  -7.081  -5.072  0.00  0.00    +0.009 C 
ENDBRANCH  16  17
ENDBRANCH   6  16
ENDBRANCH   1   4
BRANCH   2  20
ATOM     20  C   UNL     1      -2.623  -2.663   2.440  0.00  0.00    +0.191 A 
ATOM     21  C   UNL     1      -3.042  -3.065   3.668  0.00  0.00    +0.063 A 
ATOM     22  C   UNL     1      -2.030  -2.599   4.615  0.00  0.00    +0.021 A 
ATOM     23  C   UNL     1      -1.879  -2.689   6.001  0.00  0.00    +0.011 A 
ATOM     24  C   UNL     1      -0.785  -2.130   6.600  0.00  0.00    +0.001 A 
ATOM     25  C   UNL     1       0.175  -1.474   5.841  0.00  0.00    +0.004 A 
ATOM     26  C   UNL     1       0.044  -1.375   4.473  0.00  0.00    +0.047 A 
ATOM     27  C   UNL     1      -1.060  -1.935   3.841  0.00  0.00    +0.136 A 
ATOM     28  O   UNL     1      -1.451  -2.003   2.553  0.00  0.00    -0.450 OA
ENDBRANCH   2  20
BRANCH   1  29
ATOM     29  C   UNL     1      -1.396  -2.054  -0.022  0.00  0.00    +0.114 C 
BRANCH  29  30
ATOM     30  C   UNL     1      -1.416  -0.541   0.201  0.00  0.00    +0.019 C 
BRANCH  30  32
ATOM     31  C   UNL     1      -0.006   1.512   0.396  0.00  0.00    +0.004 C 
ATOM     32  C   UNL     1       0.015  -0.001   0.173  0.00  0.00    -0.002 C 
ENDBRANCH  30  32
ENDBRANCH  29  30
ENDBRANCH   1  29
TORSDOF 8
