REMARK  Name = ZINC16163572
REMARK  10 active torsions:
REMARK  status: ('A' for Active; 'I' for Inactive)
REMARK    1  A    between atoms: C_1  and  C_2
REMARK    2  A    between atoms: C_3  and  S_8
REMARK    3  A    between atoms: C_4  and  C_7
REMARK    4  A    between atoms: S_8  and  N_11
REMARK    5  A    between atoms: C_15  and  C_18
REMARK    6  A    between atoms: C_18  and  O_20
REMARK    7  A    between atoms: O_20  and  C_21
REMARK    8  A    between atoms: C_21  and  C_22
REMARK    9  A    between atoms: N_24  and  C_25
REMARK   10  A    between atoms: C_25  and  C_26
REMARK                            x       y       z     vdW  Elec       q    Type
REMARK                         _______ _______ _______ _____ _____    ______ ____
ROOT
ATOM      1  N   UNL     1      -1.545  -0.263   3.274  0.00  0.00    -0.176 NA
ATOM      2  C   UNL     1      -2.276   1.008   3.175  0.00  0.00    +0.109 C 
ATOM      3  C   UNL     1      -2.871   1.347   4.541  0.00  0.00    +0.018 C 
ATOM      4  C   UNL     1      -3.717   0.171   5.032  0.00  0.00    +0.017 C 
ATOM      5  C   UNL     1      -2.833  -1.069   5.183  0.00  0.00    +0.113 C 
ATOM      6  C   UNL     1      -2.239  -1.437   3.820  0.00  0.00    +0.124 C 
ENDROOT
BRANCH   1   7
ATOM      7  S   UNL     1       0.034  -0.367   2.785  0.00  0.00    +0.066 S 
ATOM      8  O   UNL     1       0.606  -1.459   3.492  0.00  0.00    -0.153 OA
ATOM      9  O   UNL     1       0.568   0.948   2.852  0.00  0.00    -0.153 OA
BRANCH   7  12
ATOM     10  C   UNL     1       0.059  -3.425   1.283  0.00  0.00    +0.071 C 
ATOM     11  C   UNL     1       0.035  -2.121   0.528  0.00  0.00    +0.107 A 
ATOM     12  C   UNL     1       0.023  -0.821   1.082  0.00  0.00    +0.170 A 
ATOM     13  C   UNL     1       0.002  -0.004   0.002  0.00  0.00    +0.161 A 
ATOM     14  O   UNL     1      -0.003  -0.801  -1.076  0.00  0.00    -0.358 OA
ATOM     15  N   UNL     1       0.021  -1.969  -0.765  0.00  0.00    -0.081 NA
ATOM     16  C   UNL     1      -0.018   1.503   0.010  0.00  0.00    +0.091 C 
ENDBRANCH   7  12
ENDBRANCH   1   7
BRANCH   5  17
ATOM     17  C   UNL     1      -3.660  -2.218   5.698  0.00  0.00    +0.312 C 
ATOM     18  O   UNL     1      -3.766  -3.228   5.043  0.00  0.00    -0.250 OA
BRANCH  17  19
ATOM     19  O   UNL     1      -4.281  -2.120   6.884  0.00  0.00    -0.455 OA
BRANCH  19  20
ATOM     20  C   UNL     1      -5.061  -3.265   7.317  0.00  0.00    +0.327 C 
BRANCH  20  21
ATOM     21  C   UNL     1      -5.678  -2.974   8.660  0.00  0.00    +0.251 C 
ATOM     22  O   UNL     1      -5.481  -1.906   9.200  0.00  0.00    -0.272 OA
ATOM     23  N   UNL     1      -6.451  -3.900   9.262  0.00  0.00    -0.308 N 
ATOM     24  H   UNL     1      -6.609  -4.755   8.831  0.00  0.00    +0.149 HD
BRANCH  23  25
ATOM     25  C   UNL     1      -7.051  -3.617  10.568  0.00  0.00    +0.139 C 
BRANCH  25  26
ATOM     26  C   UNL     1      -7.861  -4.806  11.017  0.00  0.00    -0.030 A 
ATOM     27  C   UNL     1      -9.200  -4.895  10.685  0.00  0.00    +0.006 A 
ATOM     28  C   UNL     1      -9.941  -5.988  11.092  0.00  0.00    +0.020 A 
ATOM     29  C   UNL     1      -9.346  -6.988  11.842  0.00  0.00    +0.041 A 
ATOM     30  C   UNL     1      -8.008  -6.895  12.178  0.00  0.00    +0.020 A 
ATOM     31  C   UNL     1      -7.266  -5.804  11.766  0.00  0.00    +0.006 A 
ATOM     32 CL   UNL     1     -10.279  -8.358  12.359  0.00  0.00    -0.084 Cl
ENDBRANCH  25  26
ENDBRANCH  23  25
ENDBRANCH  20  21
ENDBRANCH  19  20
ENDBRANCH  17  19
ENDBRANCH   5  17
TORSDOF 8
