REMARK  Name = ZINC50228584
REMARK  3 active torsions:
REMARK  status: ('A' for Active; 'I' for Inactive)
REMARK    1  A    between atoms: C_3  and  N_15
REMARK    2  A    between atoms: C_5  and  C_6
REMARK    3  A    between atoms: C_11  and  N_14
REMARK                            x       y       z     vdW  Elec       q    Type
REMARK                         _______ _______ _______ _____ _____    ______ ____
ROOT
ATOM      1  C   UNL     1      -1.123  -0.943   0.008  0.00  0.00    +0.253 C 
ATOM      2  O   UNL     1      -2.266  -0.524   0.022  0.00  0.00    -0.269 OA
ATOM      3  N   UNL     1      -0.893  -2.271  -0.001  0.00  0.00    -0.299 N 
ATOM      4  C   UNL     1       0.431  -2.911  -0.011  0.00  0.00    +0.106 C 
ATOM      5  C   UNL     1       0.203  -4.437   0.008  0.00  0.00    +0.004 C 
ATOM      6  C   UNL     1      -1.226  -4.567   0.599  0.00  0.00    -0.056 C 
ATOM      7  C   UNL     1      -1.926  -3.323   0.003  0.00  0.00    +0.092 C 
ENDROOT
BRANCH   1  12
ATOM      8  C   UNL     1      -0.017   1.382   0.010  0.00  0.00    +0.023 A 
ATOM      9  C   UNL     1       1.213   1.996   0.001  0.00  0.00    +0.041 A 
ATOM     10  C   UNL     1       2.332   1.230  -0.014  0.00  0.00    +0.164 A 
ATOM     11  S   UNL     1       1.752  -0.346  -0.017  0.00  0.00    -0.060 S 
ATOM     12  C   UNL     1       0.002  -0.004   0.002  0.00  0.00    +0.076 A 
BRANCH  10  13
ATOM     13  N   UNL     1       3.742   1.680  -0.025  0.00  0.00    +0.063 N 
ATOM     14  O   UNL     1       3.999   2.862  -0.022  0.00  0.00    -0.126 OA
ATOM     15  O   UNL     1       4.636   0.867  -0.038  0.00  0.00    -0.126 OA
ENDBRANCH  10  13
ENDBRANCH   1  12
BRANCH   6  16
ATOM     16  N   UNL     1      -1.873  -5.806   0.147  0.00  0.00    +0.381 N 
ATOM     17  H   UNL     1      -1.325  -6.599   0.446  0.00  0.00    -0.090 HD
ATOM     18  H   UNL     1      -2.798  -5.867   0.544  0.00  0.00    -0.090 HD
ATOM     19  H   UNL     1      -1.938  -5.803  -0.860  0.00  0.00    -0.090 HD
ENDBRANCH   6  16
TORSDOF 3
