REMARK  Name = ZINC62514790
REMARK  5 active torsions:
REMARK  status: ('A' for Active; 'I' for Inactive)
REMARK    1  A    between atoms: C_3  and  N_19
REMARK    2  A    between atoms: C_6  and  C_7
REMARK    3  A    between atoms: C_7  and  C_8
REMARK    4  A    between atoms: C_8  and  N_9
REMARK    5  A    between atoms: N_12  and  C_13
REMARK                            x       y       z     vdW  Elec       q    Type
REMARK                         _______ _______ _______ _____ _____    ______ ____
ROOT
ATOM      1  N   UNL     1      -3.003  -1.778  -1.421  0.00  0.00    -0.299 N 
ATOM      2  C   UNL     1      -3.593  -2.117  -2.585  0.00  0.00    +0.300 C 
ATOM      3  O   UNL     1      -3.081  -1.800  -3.641  0.00  0.00    -0.253 OA
ATOM      4  N   UNL     1      -4.751  -2.807  -2.578  0.00  0.00    -0.296 N 
ATOM      5  H   UNL     1      -3.412  -2.031  -0.579  0.00  0.00    +0.150 HD
ATOM      6  H   UNL     1      -5.160  -3.059  -1.735  0.00  0.00    +0.151 HD
ENDROOT
BRANCH   4   7
ATOM      7  C   UNL     1      -5.392  -3.175  -3.842  0.00  0.00    +0.079 C 
ATOM      8  C   UNL     1      -6.268  -2.016  -4.329  0.00  0.00    +0.050 C 
ATOM      9  C   UNL     1      -6.995  -2.438  -5.608  0.00  0.00    +0.161 C 
ATOM     10  O   UNL     1      -7.770  -3.611  -5.349  0.00  0.00    -0.380 OA
ATOM     11  C   UNL     1      -6.999  -4.740  -4.937  0.00  0.00    +0.161 C 
ATOM     12  C   UNL     1      -6.272  -4.411  -3.630  0.00  0.00    +0.050 C 
ENDBRANCH   4   7
BRANCH   1  13
ATOM     13  C   UNL     1      -1.744  -1.028  -1.429  0.00  0.00    +0.110 C 
BRANCH  13  14
ATOM     14  C   UNL     1      -1.293  -0.775   0.010  0.00  0.00    +0.054 C 
BRANCH  14  20
ATOM     15  C   UNL     1      -0.017   1.378   0.010  0.00  0.00    +0.006 A 
ATOM     16  C   UNL     1       1.171   2.086   0.002  0.00  0.00    +0.033 A 
ATOM     17  C   UNL     1       2.377   1.411  -0.013  0.00  0.00    +0.126 A 
ATOM     18  C   UNL     1       2.396   0.029  -0.020  0.00  0.00    +0.033 A 
ATOM     19  C   UNL     1       1.208  -0.679  -0.012  0.00  0.00    +0.006 A 
ATOM     20  C   UNL     1       0.002  -0.004   0.002  0.00  0.00    -0.046 A 
BRANCH  17  21
ATOM     21  N   UNL     1       3.649   2.168  -0.022  0.00  0.00    +0.056 N 
ATOM     22  O   UNL     1       3.633   3.377  -0.016  0.00  0.00    -0.126 OA
ATOM     23  O   UNL     1       4.704   1.578  -0.035  0.00  0.00    -0.126 OA
ENDBRANCH  17  21
ENDBRANCH  14  20
ENDBRANCH  13  14
ENDBRANCH   1  13
TORSDOF 5
