REMARK  Name = ZINC36063528
REMARK  12 active torsions:
REMARK  status: ('A' for Active; 'I' for Inactive)
REMARK    1  A    between atoms: C_1  and  C_2
REMARK    2  A    between atoms: C_5  and  C_37
REMARK    3  A    between atoms: C_6  and  C_8
REMARK    4  A    between atoms: C_10  and  C_27
REMARK    5  A    between atoms: C_11  and  C_26
REMARK    6  A    between atoms: C_15  and  C_18
REMARK    7  A    between atoms: C_19  and  N_21
REMARK    8  A    between atoms: N_21  and  C_22
REMARK    9  A    between atoms: C_22  and  C_23
REMARK   10  A    between atoms: C_27  and  O_29
REMARK   11  A    between atoms: O_29  and  C_30
REMARK   12  A    between atoms: C_30  and  C_31
REMARK                            x       y       z     vdW  Elec       q    Type
REMARK                         _______ _______ _______ _____ _____    ______ ____
ROOT
ATOM      1  C   UNL     1       0.010  -2.581   1.933  0.00  0.00    +0.150 C 
ATOM      2  C   UNL     1       1.460  -2.967   2.120  0.00  0.00    +0.083 C 
ATOM      3  C   UNL     1       2.056  -2.667   3.330  0.00  0.00    +0.053 C 
ATOM      4  N   UNL     1       1.368  -2.060   4.284  0.00  0.00    -0.230 NA
ATOM      5  C   UNL     1       0.106  -1.698   4.185  0.00  0.00    +0.166 C 
ATOM      6  N   UNL     1      -0.661  -1.903   3.073  0.00  0.00    -0.267 N 
ATOM      7  C   UNL     1      -1.970  -1.464   3.126  0.00  0.00    +0.048 C 
ATOM      8  C   UNL     1      -2.386  -0.869   4.265  0.00  0.00    +0.072 C 
ATOM      9  S   UNL     1      -0.918  -0.930   5.271  0.00  0.00    -0.060 S 
ATOM     10  C   UNL     1       3.499  -3.032   3.565  0.00  0.00    +0.066 C 
ENDROOT
BRANCH   1  16
ATOM     11  C   UNL     1       0.815   1.882  -0.184  0.00  0.00    +0.044 C 
ATOM     12  C   UNL     1       0.308   0.466  -0.277  0.00  0.00    -0.050 A 
ATOM     13  C   UNL     1      -0.235   0.003  -1.461  0.00  0.00    +0.003 A 
ATOM     14  C   UNL     1      -0.699  -1.296  -1.546  0.00  0.00    +0.004 A 
ATOM     15  C   UNL     1      -0.620  -2.133  -0.448  0.00  0.00    -0.045 A 
ATOM     16  C   UNL     1      -0.076  -1.669   0.735  0.00  0.00    -0.019 A 
ATOM     17  C   UNL     1       0.393  -0.371   0.820  0.00  0.00    +0.009 A 
ATOM     18  C   UNL     1      -1.127  -3.549  -0.541  0.00  0.00    +0.044 C 
ENDBRANCH   1  16
BRANCH   7  19
ATOM     19  C   UNL     1      -2.877  -1.638   1.982  0.00  0.00    +0.091 C 
ATOM     20  C   UNL     1      -4.101  -1.076   2.002  0.00  0.00    +0.239 C 
ATOM     21  O   UNL     1      -4.448  -0.243   3.014  0.00  0.00    -0.271 OA
BRANCH  20  22
ATOM     22  N   UNL     1      -5.004  -1.348   0.989  0.00  0.00    -0.312 N 
ATOM     23  H   UNL     1      -4.756  -1.944   0.265  0.00  0.00    +0.149 HD
BRANCH  22  24
ATOM     24  C   UNL     1      -6.335  -0.736   1.010  0.00  0.00    +0.108 C 
BRANCH  24  25
ATOM     25  C   UNL     1      -7.129  -1.198  -0.213  0.00  0.00    +0.006 C 
ATOM     26  C   UNL     1      -8.391  -2.027   0.035  0.00  0.00    +0.005 C 
ATOM     27  C   UNL     1      -8.509  -0.577  -0.436  0.00  0.00    +0.005 C 
ENDBRANCH  24  25
ENDBRANCH  22  24
ENDBRANCH  20  22
ENDBRANCH   7  19
BRANCH   2  28
ATOM     28  C   UNL     1       2.175  -3.610   1.102  0.00  0.00    +0.339 C 
ATOM     29  O   UNL     1       3.333  -3.942   1.286  0.00  0.00    -0.245 OA
BRANCH  28  30
ATOM     30  O   UNL     1       1.581  -3.860  -0.086  0.00  0.00    -0.457 OA
BRANCH  30  31
ATOM     31  C   UNL     1       2.334  -4.609  -1.042  0.00  0.00    +0.268 C 
BRANCH  31  32
ATOM     32  C   UNL     1       1.567  -4.684  -2.338  0.00  0.00    -0.010 A 
ATOM     33  C   UNL     1       0.682  -5.723  -2.558  0.00  0.00    +0.007 A 
ATOM     34  C   UNL     1      -0.021  -5.791  -3.746  0.00  0.00    +0.000 A 
ATOM     35  C   UNL     1       0.161  -4.821  -4.714  0.00  0.00    +0.000 A 
ATOM     36  C   UNL     1       1.045  -3.783  -4.494  0.00  0.00    +0.000 A 
ATOM     37  C   UNL     1       1.746  -3.711  -3.304  0.00  0.00    +0.007 A 
ENDBRANCH  31  32
ENDBRANCH  30  31
ENDBRANCH  28  30
ENDBRANCH   2  28
TORSDOF 9
