REMARK  Name = ZINC49765419
REMARK  6 active torsions:
REMARK  status: ('A' for Active; 'I' for Inactive)
REMARK    1  A    between atoms: C_1  and  C_2
REMARK    2  A    between atoms: N_11  and  C_15
REMARK    3  A    between atoms: C_15  and  C_16
REMARK    4  A    between atoms: C_16  and  N_18
REMARK    5  A    between atoms: N_25  and  C_28
REMARK    6  A    between atoms: C_28  and  C_29
REMARK                            x       y       z     vdW  Elec       q    Type
REMARK                         _______ _______ _______ _____ _____    ______ ____
ROOT
ATOM      1  N   UNL     1       4.240   3.814   2.670  0.00  0.00    -0.155 NA
ATOM      2  C   UNL     1       4.192   5.058   2.190  0.00  0.00    +0.163 A 
ATOM      3  N   UNL     1       3.243   5.621   1.395  0.00  0.00    -0.339 N 
ATOM      4  C   UNL     1       3.375   6.925   1.006  0.00  0.00    +0.024 A 
ATOM      5  C   UNL     1       4.472   7.552   1.462  0.00  0.00    -0.004 A 
ATOM      6  S   UNL     1       5.287   6.315   2.429  0.00  0.00    -0.059 S 
ATOM      7  C   UNL     1       4.871   8.966   1.195  0.00  0.00    -0.033 C 
ATOM      8  N   UNL     1       4.079   9.464   0.054  0.00  0.00    +0.386 N 
ATOM      9  C   UNL     1       2.657   9.177   0.283  0.00  0.00    -0.072 C 
ATOM     10  C   UNL     1       2.387   7.677   0.123  0.00  0.00    +0.035 C 
ATOM     11  H   UNL     1       2.478   5.100   1.105  0.00  0.00    +0.167 HD
ATOM     12  H   UNL     1       4.383   9.005  -0.792  0.00  0.00    -0.081 HD
ENDROOT
BRANCH   1  13
ATOM     13  C   UNL     1       3.277   2.951   2.373  0.00  0.00    +0.256 C 
ATOM     14  O   UNL     1       2.350   3.294   1.664  0.00  0.00    -0.272 OA
BRANCH  13  15
ATOM     15  C   UNL     1       3.332   1.546   2.915  0.00  0.00    +0.215 C 
BRANCH  15  25
ATOM     16  C   UNL     1      -0.019   1.526   0.010  0.00  0.00    +0.010 C 
ATOM     17  C   UNL     1       0.002  -0.004   0.002  0.00  0.00    +0.018 C 
ATOM     18  C   UNL     1       0.718  -0.497  -1.258  0.00  0.00    +0.006 C 
ATOM     19  C   UNL     1       0.756  -2.027  -1.256  0.00  0.00    +0.000 C 
ATOM     20  C   UNL     1       1.519  -2.517  -0.023  0.00  0.00    +0.003 C 
ATOM     21  C   UNL     1       0.807  -2.032   1.242  0.00  0.00    +0.035 C 
ATOM     22  C   UNL     1       0.739  -0.509   1.238  0.00  0.00    +0.115 C 
ATOM     23  C   UNL     1       2.128   0.083   1.303  0.00  0.00    +0.247 C 
ATOM     24  O   UNL     1       3.022  -0.055   0.496  0.00  0.00    -0.273 OA
ATOM     25  N   UNL     1       2.163   0.796   2.447  0.00  0.00    -0.215 N 
ATOM     26  C   UNL     1       0.998   0.734   3.103  0.00  0.00    +0.310 C 
ATOM     27  O   UNL     1       0.786   1.296   4.159  0.00  0.00    -0.252 OA
ATOM     28  N   UNL     1       0.086  -0.021   2.460  0.00  0.00    -0.285 N 
ATOM     29  H   UNL     1      -0.822  -0.205   2.747  0.00  0.00    +0.151 HD
ENDBRANCH  15  25
ENDBRANCH  13  15
ENDBRANCH   1  13
BRANCH   8  30
ATOM     30  C   UNL     1       4.271  10.914  -0.079  0.00  0.00    -0.043 C 
BRANCH  30  31
ATOM     31  C   UNL     1       5.707  11.200  -0.435  0.00  0.00    -0.064 A 
ATOM     32  C   UNL     1       6.641  11.396   0.565  0.00  0.00    +0.002 A 
ATOM     33  C   UNL     1       7.958  11.659   0.238  0.00  0.00    +0.000 A 
ATOM     34  C   UNL     1       8.341  11.725  -1.089  0.00  0.00    +0.000 A 
ATOM     35  C   UNL     1       7.407  11.528  -2.088  0.00  0.00    +0.000 A 
ATOM     36  C   UNL     1       6.091  11.261  -1.762  0.00  0.00    +0.002 A 
ENDBRANCH  30  31
ENDBRANCH   8  30
TORSDOF 5
