REMARK  Name = ZINC66348366
REMARK  8 active torsions:
REMARK  status: ('A' for Active; 'I' for Inactive)
REMARK    1  A    between atoms: C_1  and  C_2
REMARK    2  A    between atoms: C_5  and  N_9
REMARK    3  A    between atoms: C_7  and  C_8
REMARK    4  A    between atoms: C_10  and  S_14
REMARK    5  A    between atoms: S_14  and  C_15
REMARK    6  A    between atoms: C_15  and  C_16
REMARK    7  A    between atoms: C_16  and  C_18
REMARK    8  A    between atoms: C_16  and  O_25
REMARK                            x       y       z     vdW  Elec       q    Type
REMARK                         _______ _______ _______ _____ _____    ______ ____
ROOT
ATOM      1  N   UNL     1       0.057  -4.173  -0.021  0.00  0.00    -0.187 N 
ATOM      2  C   UNL     1      -0.550  -5.000  -0.908  0.00  0.00    +0.214 A 
ATOM      3  N   UNL     1      -0.271  -6.232  -0.540  0.00  0.00    -0.101 NA
ATOM      4  N   UNL     1       0.466  -6.231   0.511  0.00  0.00    -0.022 NA
ATOM      5  N   UNL     1       0.714  -5.023   0.886  0.00  0.00    -0.038 NA
ENDROOT
BRANCH   1  10
ATOM      6  C   UNL     1      -0.018   1.503   0.010  0.00  0.00    +0.044 C 
ATOM      7  C   UNL     1       0.002  -0.004   0.002  0.00  0.00    -0.047 A 
ATOM      8  C   UNL     1       0.006  -0.688  -1.200  0.00  0.00    +0.006 A 
ATOM      9  C   UNL     1       0.024  -2.068  -1.211  0.00  0.00    +0.028 A 
ATOM     10  C   UNL     1       0.039  -2.771  -0.013  0.00  0.00    +0.070 A 
ATOM     11  C   UNL     1       0.036  -2.082   1.192  0.00  0.00    +0.031 A 
ATOM     12  C   UNL     1       0.023  -0.700   1.196  0.00  0.00    -0.046 A 
ATOM     13  C   UNL     1       0.026   0.048   2.504  0.00  0.00    +0.044 C 
ENDBRANCH   1  10
BRANCH   2  14
ATOM     14  S   UNL     1      -1.529  -4.516  -2.292  0.00  0.00    -0.081 S 
BRANCH  14  15
ATOM     15  C   UNL     1      -2.030  -6.088  -3.046  0.00  0.00    +0.113 C 
BRANCH  15  16
ATOM     16  C   UNL     1      -2.897  -5.809  -4.276  0.00  0.00    +0.155 C 
BRANCH  16  17
ATOM     17  C   UNL     1      -3.414  -7.112  -4.830  0.00  0.00    -0.018 A 
ATOM     18  C   UNL     1      -2.597  -7.899  -5.620  0.00  0.00    +0.009 A 
ATOM     19  C   UNL     1      -3.070  -9.093  -6.130  0.00  0.00    +0.039 A 
ATOM     20  C   UNL     1      -4.363  -9.502  -5.848  0.00  0.00    +0.123 A 
ATOM     21  C   UNL     1      -5.180  -8.712  -5.057  0.00  0.00    +0.039 A 
ATOM     22  C   UNL     1      -4.703  -7.521  -4.544  0.00  0.00    +0.009 A 
ATOM     23  F   UNL     1      -4.827 -10.669  -6.346  0.00  0.00    -0.205 F 
ENDBRANCH  16  17
BRANCH  16  24
ATOM     24  O   UNL     1      -2.115  -5.145  -5.270  0.00  0.00    -0.386 OA
ATOM     25  H   UNL     1      -1.348  -5.652  -5.570  0.00  0.00    +0.210 HD
ENDBRANCH  16  24
ENDBRANCH  15  16
ENDBRANCH  14  15
ENDBRANCH   2  14
TORSDOF 6
