REMARK  Name = ZINC16122353
REMARK  7 active torsions:
REMARK  status: ('A' for Active; 'I' for Inactive)
REMARK    1  A    between atoms: C_1  and  C_2
REMARK    2  A    between atoms: C_7  and  S_25
REMARK    3  A    between atoms: C_12  and  C_14
REMARK    4  A    between atoms: C_14  and  O_15
REMARK    5  A    between atoms: O_15  and  C_16
REMARK    6  A    between atoms: C_16  and  C_18
REMARK    7  A    between atoms: S_25  and  N_28
REMARK                            x       y       z     vdW  Elec       q    Type
REMARK                         _______ _______ _______ _____ _____    ______ ____
ROOT
ATOM      1  C   UNL     1      -0.296  -0.255   7.517  0.00  0.00    +0.029 C 
ATOM      2  C   UNL     1      -0.292   1.268   7.368  0.00  0.00    +0.083 C 
ATOM      3  C   UNL     1      -1.223   1.908   8.411  0.00  0.00    +0.059 C 
ATOM      4  C   UNL     1      -2.270   2.631   7.593  0.00  0.00    -0.022 A 
ATOM      5  C   UNL     1      -3.362   3.383   7.981  0.00  0.00    +0.034 A 
ATOM      6  C   UNL     1      -4.187   3.952   7.028  0.00  0.00    +0.105 A 
ATOM      7  C   UNL     1      -3.916   3.767   5.685  0.00  0.00    +0.030 A 
ATOM      8  C   UNL     1      -2.827   3.018   5.293  0.00  0.00    +0.026 A 
ATOM      9  C   UNL     1      -1.986   2.444   6.250  0.00  0.00    +0.040 A 
ATOM     10  N   UNL     1      -0.848   1.653   6.068  0.00  0.00    -0.265 N 
ATOM     11  C   UNL     1      -0.334   1.300   4.873  0.00  0.00    +0.258 C 
ATOM     12  O   UNL     1       0.664   0.613   4.821  0.00  0.00    -0.272 OA
ENDROOT
BRANCH   6  13
ATOM     13  S   UNL     1      -5.580   4.911   7.524  0.00  0.00    +0.056 S 
ATOM     14  O   UNL     1      -6.501   4.878   6.443  0.00  0.00    -0.153 OA
ATOM     15  O   UNL     1      -5.925   4.478   8.833  0.00  0.00    -0.153 OA
BRANCH  13  16
ATOM     16  N   UNL     1      -5.069   6.480   7.664  0.00  0.00    -0.204 NA
ATOM     17  H   UNL     1      -4.145   6.707   7.480  0.00  0.00    +0.144 HD
ATOM     18  H   UNL     1      -5.695   7.171   7.931  0.00  0.00    +0.144 HD
ENDBRANCH  13  16
ENDBRANCH   6  13
BRANCH  11  19
ATOM     19  C   UNL     1      -0.999   1.761   3.602  0.00  0.00    +0.328 C 
BRANCH  19  20
ATOM     20  O   UNL     1      -0.261   1.254   2.459  0.00  0.00    -0.455 OA
BRANCH  20  21
ATOM     21  C   UNL     1      -0.726   1.576   1.242  0.00  0.00    +0.311 C 
ATOM     22  O   UNL     1      -1.717   2.259   1.135  0.00  0.00    -0.251 OA
BRANCH  21  23
ATOM     23  C   UNL     1      -0.013   1.086   0.008  0.00  0.00    +0.102 C 
ATOM     24  C   UNL     1      -0.731   1.599  -1.247  0.00  0.00    +0.019 C 
ATOM     25  C   UNL     1      -0.094   0.939  -2.472  0.00  0.00    +0.028 C 
ATOM     26  C   UNL     1       1.400   1.069  -2.411  0.00  0.00    -0.031 C 
ATOM     27  C   UNL     1       2.059   1.361  -1.336  0.00  0.00    -0.030 C 
ATOM     28  C   UNL     1       1.421   1.620  -0.003  0.00  0.00    +0.041 C 
ENDBRANCH  21  23
ENDBRANCH  20  21
ENDBRANCH  19  20
ENDBRANCH  11  19
TORSDOF 6
