REMARK  Name = ZINC12467325
REMARK  8 active torsions:
REMARK  status: ('A' for Active; 'I' for Inactive)
REMARK    1  A    between atoms: C_1  and  O_2
REMARK    2  A    between atoms: O_2  and  C_3
REMARK    3  A    between atoms: C_8  and  C_9
REMARK    4  A    between atoms: C_10  and  C_11
REMARK    5  A    between atoms: N_13  and  C_14
REMARK    6  A    between atoms: C_14  and  N_16
REMARK    7  A    between atoms: N_16  and  C_17
REMARK    8  A    between atoms: C_21  and  C_23
REMARK                            x       y       z     vdW  Elec       q    Type
REMARK                         _______ _______ _______ _____ _____    ______ ____
ROOT
ATOM      1  C   UNL     1       0.211  -5.065  -1.377  0.00  0.00    +0.242 C 
ATOM      2  O   UNL     1      -0.048  -4.592  -2.467  0.00  0.00    -0.270 OA
ATOM      3  N   UNL     1      -0.071  -6.357  -1.119  0.00  0.00    -0.264 N 
ATOM      4  H   UNL     1       0.135  -6.735  -0.249  0.00  0.00    +0.157 HD
ENDROOT
BRANCH   1   6
ATOM      5  C   UNL     1       1.113  -2.938  -0.606  0.00  0.00    +0.016 C 
ATOM      6  C   UNL     1       0.830  -4.233  -0.347  0.00  0.00    +0.068 C 
BRANCH   5  12
ATOM      7  C   UNL     1       2.031  -0.754   0.165  0.00  0.00    +0.127 A 
ATOM      8  C   UNL     1       2.612   0.027   1.151  0.00  0.00    +0.047 A 
ATOM      9  C   UNL     1       2.904  -0.518   2.386  0.00  0.00    +0.019 A 
ATOM     10  C   UNL     1       2.618  -1.849   2.651  0.00  0.00    +0.019 A 
ATOM     11  C   UNL     1       2.039  -2.642   1.683  0.00  0.00    +0.026 A 
ATOM     12  C   UNL     1       1.734  -2.101   0.429  0.00  0.00    +0.018 A 
ATOM     13 BR   UNL     1       3.024  -2.580   4.347  0.00  0.00    -0.050 Br
BRANCH   7  15
ATOM     14  C   UNL     1       2.075   1.158  -1.244  0.00  0.00    +0.277 C 
ATOM     15  O   UNL     1       1.745  -0.218  -1.048  0.00  0.00    -0.495 OA
ENDBRANCH   7  15
ENDBRANCH   5  12
ENDBRANCH   1   6
BRANCH   3  16
ATOM     16  C   UNL     1      -0.641  -7.125  -2.068  0.00  0.00    +0.141 C 
ATOM     17  S   UNL     1      -1.006  -6.459  -3.603  0.00  0.00    -0.018 S 
BRANCH  16  18
ATOM     18  N   UNL     1      -0.924  -8.418  -1.810  0.00  0.00    -0.297 N 
ATOM     19  H   UNL     1      -0.662  -8.812  -0.963  0.00  0.00    +0.154 HD
BRANCH  18  20
ATOM     20  C   UNL     1      -1.596  -9.191  -2.764  0.00  0.00    +0.033 A 
ATOM     21  C   UNL     1      -1.204  -9.145  -4.097  0.00  0.00    +0.025 A 
ATOM     22  C   UNL     1      -1.863  -9.906  -5.044  0.00  0.00    +0.022 A 
ATOM     23  C   UNL     1      -2.917 -10.719  -4.672  0.00  0.00    +0.055 A 
ATOM     24  C   UNL     1      -3.319 -10.772  -3.334  0.00  0.00    +0.083 A 
ATOM     25  C   UNL     1      -2.648 -10.006  -2.378  0.00  0.00    +0.039 A 
ATOM     26 CL   UNL     1      -3.741 -11.672  -5.866  0.00  0.00    -0.083 Cl
BRANCH  24  27
ATOM     27  C   UNL     1      -4.443 -11.638  -2.933  0.00  0.00    +0.388 C 
ATOM     28  O   UNL     1      -4.793 -11.682  -1.762  0.00  0.00    -0.241 OA
ATOM     29  O   UNL     1      -5.026 -12.311  -3.771  0.00  0.00    -0.241 OA
ENDBRANCH  24  27
ENDBRANCH  18  20
ENDBRANCH  16  18
ENDBRANCH   3  16
TORSDOF 7
