REMARK  Name = ZINC38810720
REMARK  5 active torsions:
REMARK  status: ('A' for Active; 'I' for Inactive)
REMARK    1  A    between atoms: C_1  and  C_2
REMARK    2  A    between atoms: N_9  and  N_10
REMARK    3  A    between atoms: C_11  and  C_12
REMARK    4  A    between atoms: C_13  and  C_25
REMARK    5  A    between atoms: N_15  and  C_19
REMARK                            x       y       z     vdW  Elec       q    Type
REMARK                         _______ _______ _______ _____ _____    ______ ____
ROOT
ATOM      1  C   UNL     1      -2.475  -6.870  -0.023  0.00  0.00    +0.027 C 
ATOM      2  C   UNL     1      -3.711  -6.350  -0.021  0.00  0.00    +0.027 C 
ATOM      3  N   UNL     1      -4.671  -7.331  -0.020  0.00  0.00    -0.266 N 
ATOM      4  N   UNL     1      -4.081  -8.601  -0.022  0.00  0.00    -0.231 N 
ATOM      5  C   UNL     1      -2.626  -8.376  -0.031  0.00  0.00    +0.218 C 
ATOM      6 CL   UNL     1      -1.873  -9.090   1.443  0.00  0.00    -0.094 Cl
ATOM      7  C   UNL     1      -4.009  -4.873  -0.019  0.00  0.00    +0.062 C 
ATOM      8  H   UNL     1      -5.627  -7.167  -0.018  0.00  0.00    +0.170 HD
ENDROOT
BRANCH   4   9
ATOM      9  C   UNL     1      -4.739  -9.833  -0.023  0.00  0.00    +0.050 A 
ATOM     10  C   UNL     1      -4.007 -11.014  -0.019  0.00  0.00    +0.025 A 
ATOM     11  C   UNL     1      -4.661 -12.230  -0.018  0.00  0.00    +0.002 A 
ATOM     12  C   UNL     1      -6.043 -12.273  -0.022  0.00  0.00    +0.000 A 
ATOM     13  C   UNL     1      -6.775 -11.100  -0.027  0.00  0.00    +0.002 A 
ATOM     14  C   UNL     1      -6.127  -9.880  -0.021  0.00  0.00    +0.025 A 
ENDBRANCH   4   9
BRANCH   1  16
ATOM     15  N   UNL     1      -1.235  -4.821  -0.018  0.00  0.00    -0.188 NA
ATOM     16  C   UNL     1      -1.218  -6.123  -0.025  0.00  0.00    +0.138 C 
BRANCH  15  25
ATOM     17  C   UNL     1      -0.018   1.503   0.010  0.00  0.00    +0.073 C 
ATOM     18  C   UNL     1       0.002  -0.004   0.002  0.00  0.00    +0.124 A 
ATOM     19  C   UNL     1      -1.250  -0.766   0.004  0.00  0.00    +0.296 A 
ATOM     20  O   UNL     1      -2.324  -0.185   0.012  0.00  0.00    -0.264 OA
ATOM     21  N   UNL     1      -1.206  -2.103  -0.004  0.00  0.00    -0.173 NA
ATOM     22  C   UNL     1      -0.049  -2.736  -0.013  0.00  0.00    +0.233 A 
ATOM     23  N   UNL     1       1.126  -2.053  -0.014  0.00  0.00    -0.247 N 
ATOM     24  N   UNL     1       1.135  -0.652  -0.012  0.00  0.00    -0.171 NA
ATOM     25  N   UNL     1      -0.031  -4.105  -0.020  0.00  0.00    -0.205 N 
ATOM     26  H   UNL     1       0.815  -4.579  -0.026  0.00  0.00    +0.177 HD
ATOM     27  H   UNL     1       1.965  -2.540  -0.020  0.00  0.00    +0.192 HD
ENDBRANCH  15  25
ENDBRANCH   1  16
TORSDOF 3
