REMARK  Name = ZINC38050191
REMARK  5 active torsions:
REMARK  status: ('A' for Active; 'I' for Inactive)
REMARK    1  A    between atoms: C_4  and  S_10
REMARK    2  A    between atoms: C_6  and  N_7
REMARK    3  A    between atoms: S_10  and  N_13
REMARK    4  A    between atoms: N_13  and  C_14
REMARK    5  A    between atoms: C_20  and  N_22
REMARK                            x       y       z     vdW  Elec       q    Type
REMARK                         _______ _______ _______ _____ _____    ______ ____
ROOT
ATOM      1  S   UNL     1       4.000  -0.855  -0.016  0.00  0.00    +0.061 S 
ATOM      2  O   UNL     1       3.695  -2.235  -0.158  0.00  0.00    -0.153 OA
ATOM      3  O   UNL     1       3.023   0.107   0.357  0.00  0.00    -0.153 OA
ENDROOT
BRANCH   1   7
ATOM      4  C   UNL     1       7.325  -0.572   3.046  0.00  0.00    +0.035 A 
ATOM      5  C   UNL     1       7.425  -1.470   2.000  0.00  0.00    +0.042 A 
ATOM      6  C   UNL     1       6.409  -1.558   1.064  0.00  0.00    +0.150 A 
ATOM      7  C   UNL     1       5.294  -0.745   1.176  0.00  0.00    +0.142 A 
ATOM      8  C   UNL     1       5.196   0.152   2.222  0.00  0.00    +0.064 A 
ATOM      9  C   UNL     1       6.211   0.239   3.157  0.00  0.00    +0.128 A 
ATOM     10  F   UNL     1       6.507  -2.435   0.041  0.00  0.00    -0.203 F 
BRANCH   9  11
ATOM     11  N   UNL     1       6.104   1.200   4.277  0.00  0.00    +0.056 N 
ATOM     12  O   UNL     1       6.991   1.275   5.095  0.00  0.00    -0.126 OA
ATOM     13  O   UNL     1       5.130   1.909   4.375  0.00  0.00    -0.126 OA
ENDBRANCH   9  11
ENDBRANCH   1   7
BRANCH   1  14
ATOM     14  N   UNL     1       4.627  -0.356  -1.465  0.00  0.00    -0.188 NA
ATOM     15  H   UNL     1       4.705  -0.983  -2.201  0.00  0.00    +0.148 HD
BRANCH  14  16
ATOM     16  C   UNL     1       5.062   1.032  -1.637  0.00  0.00    +0.062 C 
ATOM     17  C   UNL     1       6.573   1.123  -1.419  0.00  0.00    +0.019 C 
ATOM     18  C   UNL     1       7.290   0.235  -2.437  0.00  0.00    +0.001 C 
ATOM     19  C   UNL     1       6.950   0.705  -3.853  0.00  0.00    -0.001 C 
ATOM     20  C   UNL     1       5.438   0.614  -4.071  0.00  0.00    -0.015 C 
ATOM     21  C   UNL     1       4.721   1.503  -3.052  0.00  0.00    -0.056 C 
BRANCH  21  22
ATOM     22  N   UNL     1       3.270   1.415  -3.261  0.00  0.00    +0.381 N 
ATOM     23  H   UNL     1       2.797   2.001  -2.590  0.00  0.00    -0.090 HD
ATOM     24  H   UNL     1       3.046   1.725  -4.195  0.00  0.00    -0.090 HD
ATOM     25  H   UNL     1       2.970   0.459  -3.144  0.00  0.00    -0.090 HD
ENDBRANCH  21  22
ENDBRANCH  14  16
ENDBRANCH   1  14
TORSDOF 5
