REMARK  Name = ZINC13489281
REMARK  11 active torsions:
REMARK  status: ('A' for Active; 'I' for Inactive)
REMARK    1  A    between atoms: C_1  and  C_2
REMARK    2  A    between atoms: C_5  and  S_9
REMARK    3  A    between atoms: C_6  and  C_8
REMARK    4  A    between atoms: S_9  and  C_10
REMARK    5  A    between atoms: C_10  and  C_11
REMARK    6  A    between atoms: C_11  and  C_13
REMARK    7  A    between atoms: C_11  and  N_16
REMARK    8  A    between atoms: C_23  and  C_28
REMARK    9  A    between atoms: N_30  and  C_31
REMARK   10  A    between atoms: C_31  and  C_32
REMARK   11  A    between atoms: C_37  and  C_38
REMARK                            x       y       z     vdW  Elec       q    Type
REMARK                         _______ _______ _______ _____ _____    ______ ____
ROOT
ATOM      1  N   UNL     1       1.286  -7.024  -1.308  0.00  0.00    -0.229 N 
ATOM      2  C   UNL     1       2.555  -6.708  -1.648  0.00  0.00    +0.349 A 
ATOM      3  O   UNL     1       2.887  -5.933  -2.525  0.00  0.00    -0.245 OA
ATOM      4  N   UNL     1       3.379  -7.392  -0.857  0.00  0.00    -0.226 N 
ATOM      5  N   UNL     1       2.576  -8.168   0.014  0.00  0.00    -0.215 N 
ATOM      6  C   UNL     1       1.305  -7.911  -0.289  0.00  0.00    +0.350 A 
ATOM      7  O   UNL     1       0.331  -8.393   0.255  0.00  0.00    -0.245 OA
ATOM      8  C   UNL     1       3.184  -9.044   1.020  0.00  0.00    +0.219 C 
ATOM      9  C   UNL     1       4.471  -8.391   1.473  0.00  0.00    +0.006 C 
ATOM     10  C   UNL     1       5.211  -7.676   0.670  0.00  0.00    -0.005 C 
ATOM     11  C   UNL     1       4.842  -7.442  -0.777  0.00  0.00    +0.174 C 
ENDROOT
BRANCH   8  12
ATOM     12  C   UNL     1       3.479 -10.392   0.413  0.00  0.00    +0.242 C 
ATOM     13  O   UNL     1       3.208 -10.606  -0.749  0.00  0.00    -0.273 OA
ATOM     14  N   UNL     1       4.043 -11.359   1.163  0.00  0.00    -0.309 N 
ATOM     15  H   UNL     1       4.260 -11.188   2.093  0.00  0.00    +0.149 HD
BRANCH  14  16
ATOM     16  C   UNL     1       4.330 -12.669   0.574  0.00  0.00    +0.141 C 
BRANCH  16  17
ATOM     17  C   UNL     1       4.954 -13.563   1.614  0.00  0.00    -0.011 A 
ATOM     18  C   UNL     1       6.330 -13.750   1.643  0.00  0.00    +0.010 A 
ATOM     19  C   UNL     1       6.863 -14.578   2.614  0.00  0.00    +0.041 A 
ATOM     20  C   UNL     1       6.008 -15.191   3.524  0.00  0.00    +0.094 A 
ATOM     21  N   UNL     1       4.701 -14.988   3.464  0.00  0.00    -0.347 N 
ATOM     22  C   UNL     1       4.166 -14.198   2.551  0.00  0.00    +0.019 A 
ATOM     23  C   UNL     1       2.673 -13.994   2.529  0.00  0.00    +0.063 C 
ATOM     24  N   UNL     1       6.530 -16.026   4.505  0.00  0.00    -0.345 N 
ATOM     25  H   UNL     1       7.487 -16.179   4.553  0.00  0.00    +0.144 HD
ATOM     26  H   UNL     1       5.938 -16.456   5.142  0.00  0.00    +0.144 HD
ATOM     27  H   UNL     1       4.124 -15.426   4.108  0.00  0.00    +0.167 HD
ENDBRANCH  16  17
ENDBRANCH  14  16
ENDBRANCH   8  12
BRANCH   1  28
ATOM     28  C   UNL     1       0.079  -6.484  -1.940  0.00  0.00    +0.219 C 
BRANCH  28  29
ATOM     29  C   UNL     1       0.077  -6.841  -3.404  0.00  0.00    +0.379 C 
ATOM     30  O   UNL     1       1.073  -7.323  -3.916  0.00  0.00    -0.244 OA
ATOM     31  O   UNL     1      -0.921  -6.647  -4.077  0.00  0.00    -0.244 OA
ENDBRANCH  28  29
BRANCH  28  32
ATOM     32  C   UNL     1       0.060  -4.962  -1.785  0.00  0.00    +0.111 C 
BRANCH  32  33
ATOM     33  S   UNL     1       0.063  -4.533  -0.023  0.00  0.00    -0.122 S 
BRANCH  33  38
ATOM     34  C   UNL     1      -0.018   1.503   0.010  0.00  0.00    +0.044 C 
ATOM     35  C   UNL     1       0.002  -0.004   0.002  0.00  0.00    -0.050 A 
ATOM     36  C   UNL     1       0.006  -0.687  -1.201  0.00  0.00    +0.004 A 
ATOM     37  C   UNL     1       0.024  -2.068  -1.212  0.00  0.00    +0.015 A 
ATOM     38  C   UNL     1       0.040  -2.771  -0.013  0.00  0.00    +0.011 A 
ATOM     39  C   UNL     1       0.036  -2.081   1.193  0.00  0.00    -0.037 A 
ATOM     40  C   UNL     1       0.023  -0.700   1.197  0.00  0.00    +0.007 A 
ATOM     41  C   UNL     1       0.052  -2.839   2.495  0.00  0.00    +0.045 C 
ENDBRANCH  33  38
ENDBRANCH  32  33
ENDBRANCH  28  32
ENDBRANCH   1  28
TORSDOF 8
