REMARK  Name = ZINC19869319
REMARK  3 active torsions:
REMARK  status: ('A' for Active; 'I' for Inactive)
REMARK    1  A    between atoms: C_6  and  O_7
REMARK    2  A    between atoms: O_7  and  C_8
REMARK    3  A    between atoms: C_13  and  N_14
REMARK                            x       y       z     vdW  Elec       q    Type
REMARK                         _______ _______ _______ _____ _____    ______ ____
ROOT
ATOM      1  O   UNL     1       1.228  -2.042  -0.021  0.00  0.00    -0.454 OA
ENDROOT
BRANCH   1   7
ATOM      2  C   UNL     1       1.543   0.041  -1.124  0.00  0.00    +0.050 A 
ATOM      3  C   UNL     1       1.529   1.423  -1.093  0.00  0.00    +0.053 A 
ATOM      4  C   UNL     1       1.188   2.088   0.073  0.00  0.00    +0.166 A 
ATOM      5  C   UNL     1       0.858   1.363   1.216  0.00  0.00    +0.170 A 
ATOM      6  C   UNL     1       0.872  -0.021   1.182  0.00  0.00    +0.095 A 
ATOM      7  C   UNL     1       1.214  -0.683   0.012  0.00  0.00    +0.132 A 
ATOM      8  O   UNL     1       0.564   2.240   2.219  0.00  0.00    -0.452 OA
ATOM      9  C   UNL     1       1.111   3.504   1.799  0.00  0.00    +0.466 C 
ATOM     10  O   UNL     1       1.100   3.421   0.361  0.00  0.00    -0.453 OA
ENDBRANCH   1   7
BRANCH   1  11
ATOM     11  C   UNL     1       0.040  -2.696   0.092  0.00  0.00    +0.149 A 
ATOM     12  C   UNL     1      -1.147  -1.981   0.105  0.00  0.00    +0.051 A 
ATOM     13  C   UNL     1      -2.354  -2.646   0.219  0.00  0.00    +0.042 A 
ATOM     14  C   UNL     1      -2.381  -4.027   0.320  0.00  0.00    +0.125 A 
ATOM     15  C   UNL     1      -1.199  -4.747   0.308  0.00  0.00    +0.064 A 
ATOM     16  C   UNL     1       0.015  -4.085   0.188  0.00  0.00    +0.070 A 
ATOM     17  F   UNL     1      -3.562  -4.671   0.431  0.00  0.00    -0.205 F 
BRANCH  16  18
ATOM     18  N   UNL     1       1.210  -4.812   0.169  0.00  0.00    -0.355 N 
ATOM     19  H   UNL     1       1.189  -5.909   0.245  0.00  0.00    +0.142 HD
ATOM     20  H   UNL     1       2.172  -4.285   0.078  0.00  0.00    +0.142 HD
ENDBRANCH  16  18
ENDBRANCH   1  11
TORSDOF 3
