REMARK  Name = ZINC17094627
REMARK  7 active torsions:
REMARK  status: ('A' for Active; 'I' for Inactive)
REMARK    1  A    between atoms: C_1  and  C_2
REMARK    2  A    between atoms: C_2  and  O_3
REMARK    3  A    between atoms: O_3  and  C_4
REMARK    4  A    between atoms: C_6  and  C_11
REMARK    5  A    between atoms: C_9  and  O_10
REMARK    6  A    between atoms: C_21  and  C_23
REMARK    7  A    between atoms: N_24  and  C_25
REMARK                            x       y       z     vdW  Elec       q    Type
REMARK                         _______ _______ _______ _____ _____    ______ ____
ROOT
ATOM      1  C   UNL     1       1.245  -0.709   0.509  0.00  0.00    +0.203 C 
ATOM      2  N   UNL     1      -0.028   0.002   0.325  0.00  0.00    -0.291 N 
ATOM      3  C   UNL     1      -0.027   1.300   0.168  0.00  0.00    +0.220 C 
ATOM      4  N   UNL     1       1.196   1.962   0.152  0.00  0.00    -0.181 NA
ATOM      5  C   UNL     1       2.242   1.292  -0.454  0.00  0.00    +0.229 C 
ATOM      6  N   UNL     1       2.274  -0.066  -0.313  0.00  0.00    -0.213 N 
ATOM      7  C   UNL     1       3.239  -0.782  -0.919  0.00  0.00    +0.249 C 
ATOM      8  O   UNL     1       3.267  -1.998  -0.825  0.00  0.00    -0.270 OA
ATOM      9  C   UNL     1       4.215  -0.094  -1.665  0.00  0.00    +0.091 C 
ATOM     10  C   UNL     1       4.143   1.266  -1.755  0.00  0.00    +0.047 C 
ATOM     11  N   UNL     1       3.157   1.927  -1.148  0.00  0.00    -0.219 NA
ATOM     12  C   UNL     1       5.181   2.022  -2.543  0.00  0.00    +0.066 C 
ATOM     13  N   UNL     1      -1.206   1.994   0.019  0.00  0.00    -0.215 NA
ATOM     14  H   UNL     1      -0.974  -0.558   0.318  0.00  0.00    +0.151 HD
ENDROOT
BRANCH  13  15
ATOM     15  C   UNL     1      -2.417   1.300  -0.085  0.00  0.00    +0.068 A 
ATOM     16  C   UNL     1      -2.457   0.057  -0.703  0.00  0.00    +0.029 A 
ATOM     17  C   UNL     1      -3.652  -0.628  -0.799  0.00  0.00    +0.022 A 
ATOM     18  C   UNL     1      -4.812  -0.071  -0.290  0.00  0.00    +0.041 A 
ATOM     19  C   UNL     1      -4.777   1.170   0.321  0.00  0.00    +0.022 A 
ATOM     20  C   UNL     1      -3.583   1.857   0.425  0.00  0.00    +0.029 A 
ATOM     21 CL   UNL     1      -6.315  -0.931  -0.420  0.00  0.00    -0.084 Cl
ENDBRANCH  13  15
BRANCH   1  24
ATOM     22  C   UNL     1       1.050  -0.531   4.278  0.00  0.00    +0.162 A 
ATOM     23  C   UNL     1       0.680  -0.580   2.943  0.00  0.00    +0.056 A 
ATOM     24  C   UNL     1       1.649  -0.650   1.960  0.00  0.00    -0.005 A 
ATOM     25  C   UNL     1       2.988  -0.662   2.304  0.00  0.00    +0.011 A 
ATOM     26  C   UNL     1       3.364  -0.608   3.633  0.00  0.00    +0.049 A 
ATOM     27  C   UNL     1       2.398  -0.542   4.624  0.00  0.00    +0.158 A 
BRANCH  27  28
ATOM     28  O   UNL     1       2.766  -0.489   5.932  0.00  0.00    -0.503 OA
ATOM     29  H   UNL     1       3.832  -0.498   6.204  0.00  0.00    +0.292 HD
ENDBRANCH  27  28
BRANCH  22  30
ATOM     30  O   UNL     1       0.098  -0.467   5.247  0.00  0.00    -0.489 OA
BRANCH  30  32
ATOM     31  C   UNL     1      -2.183  -0.384   6.039  0.00  0.00    +0.048 C 
ATOM     32  C   UNL     1      -1.265  -0.459   4.818  0.00  0.00    +0.226 C 
ENDBRANCH  30  32
ENDBRANCH  22  30
ENDBRANCH   1  24
TORSDOF 5
