REMARK  Name = ZINC46154951
REMARK  10 active torsions:
REMARK  status: ('A' for Active; 'I' for Inactive)
REMARK    1  A    between atoms: C_1  and  C_2
REMARK    2  A    between atoms: C_5  and  C_9
REMARK    3  A    between atoms: C_7  and  C_8
REMARK    4  A    between atoms: C_9  and  C_11
REMARK    5  A    between atoms: C_9  and  N_12
REMARK    6  A    between atoms: C_13  and  C_15
REMARK    7  A    between atoms: C_15  and  S_16
REMARK    8  A    between atoms: S_16  and  C_19
REMARK    9  A    between atoms: C_19  and  C_20
REMARK   10  A    between atoms: C_22  and  C_25
REMARK                            x       y       z     vdW  Elec       q    Type
REMARK                         _______ _______ _______ _____ _____    ______ ____
ROOT
ATOM      1  N   UNL     1      -0.828  -4.769  -1.077  0.00  0.00    -0.307 N 
ATOM      2  C   UNL     1      -1.371  -5.999  -0.981  0.00  0.00    +0.235 C 
ATOM      3  O   UNL     1      -1.125  -6.697  -0.019  0.00  0.00    -0.274 OA
ATOM      4  H   UNL     1      -1.024  -4.212  -1.846  0.00  0.00    +0.149 HD
ENDROOT
BRANCH   1   5
ATOM      5  C   UNL     1       0.059  -4.275  -0.021  0.00  0.00    +0.100 C 
ATOM      6  C   UNL     1       1.485  -4.766  -0.282  0.00  0.00    +0.033 C 
BRANCH   5  11
ATOM      7  C   UNL     1      -0.018   1.503   0.010  0.00  0.00    +0.044 C 
ATOM      8  C   UNL     1       0.002  -0.004   0.002  0.00  0.00    -0.048 A 
ATOM      9  C   UNL     1       0.006  -0.689  -1.199  0.00  0.00    +0.004 A 
ATOM     10  C   UNL     1       0.025  -2.071  -1.207  0.00  0.00    +0.006 A 
ATOM     11  C   UNL     1       0.040  -2.768  -0.013  0.00  0.00    -0.027 A 
ATOM     12  C   UNL     1       0.037  -2.084   1.188  0.00  0.00    +0.009 A 
ATOM     13  C   UNL     1       0.023  -0.702   1.195  0.00  0.00    -0.047 A 
ATOM     14  C   UNL     1       0.025   0.045   2.504  0.00  0.00    +0.044 C 
ENDBRANCH   5  11
ENDBRANCH   1   5
BRANCH   2  15
ATOM     15  C   UNL     1      -2.284  -6.507  -2.067  0.00  0.00    +0.261 C 
BRANCH  15  16
ATOM     16  S   UNL     1      -2.848  -8.180  -1.649  0.00  0.00    -0.017 S 
ATOM     17  O   UNL     1      -1.724  -9.049  -1.659  0.00  0.00    -0.174 OA
ATOM     18  O   UNL     1      -3.653  -8.104  -0.480  0.00  0.00    -0.174 OA
BRANCH  16  19
ATOM     19  C   UNL     1      -3.915  -8.605  -3.053  0.00  0.00    +0.225 C 
BRANCH  19  20
ATOM     20  C   UNL     1      -4.474  -9.991  -2.857  0.00  0.00    +0.105 A 
ATOM     21  C   UNL     1      -3.881 -11.190  -3.293  0.00  0.00    +0.072 A 
ATOM     22  C   UNL     1      -4.683 -12.209  -2.930  0.00  0.00    +0.135 A 
ATOM     23  O   UNL     1      -5.744 -11.695  -2.289  0.00  0.00    -0.360 OA
ATOM     24  N   UNL     1      -5.588 -10.288  -2.250  0.00  0.00    -0.081 NA
ATOM     25  C   UNL     1      -4.433 -13.671  -3.196  0.00  0.00    +0.089 C 
ENDBRANCH  19  20
ENDBRANCH  16  19
ENDBRANCH  15  16
ENDBRANCH   2  15
TORSDOF 6
