REMARK  Name = ZINC54731131
REMARK  9 active torsions:
REMARK  status: ('A' for Active; 'I' for Inactive)
REMARK    1  A    between atoms: C_1  and  C_2
REMARK    2  A    between atoms: C_2  and  C_3
REMARK    3  A    between atoms: C_2  and  C_4
REMARK    4  A    between atoms: C_4  and  C_6
REMARK    5  A    between atoms: C_4  and  N_22
REMARK    6  A    between atoms: N_8  and  C_9
REMARK    7  A    between atoms: C_12  and  S_15
REMARK    8  A    between atoms: S_15  and  C_16
REMARK    9  A    between atoms: N_20  and  C_21
REMARK                            x       y       z     vdW  Elec       q    Type
REMARK                         _______ _______ _______ _____ _____    ______ ____
ROOT
ATOM      1  C   UNL     1       1.923   0.026   1.925  0.00  0.00    +0.238 C 
ATOM      2  O   UNL     1       2.769  -0.748   2.321  0.00  0.00    -0.273 OA
ATOM      3  N   UNL     1       2.263   1.292   1.611  0.00  0.00    -0.284 N 
ATOM      4  H   UNL     1       1.600   1.894   1.238  0.00  0.00    +0.155 HD
ENDROOT
BRANCH   3   5
ATOM      5  C   UNL     1       3.574   1.739   1.823  0.00  0.00    +0.034 A 
ATOM      6  C   UNL     1       4.643   0.876   1.622  0.00  0.00    +0.024 A 
ATOM      7  C   UNL     1       5.935   1.315   1.831  0.00  0.00    +0.017 A 
ATOM      8  C   UNL     1       6.165   2.622   2.243  0.00  0.00    +0.016 A 
ATOM      9  C   UNL     1       5.096   3.486   2.445  0.00  0.00    +0.017 A 
ATOM     10  C   UNL     1       3.805   3.047   2.230  0.00  0.00    +0.024 A 
BRANCH   8  11
ATOM     11  S   UNL     1       7.814   3.183   2.511  0.00  0.00    -0.050 S 
BRANCH  11  12
ATOM     12  C   UNL     1       8.293   3.857   0.955  0.00  0.00    +0.196 A 
ATOM     13  N   UNL     1       7.533   3.985  -0.107  0.00  0.00    -0.122 NA
ATOM     14  N   UNL     1       8.207   4.515  -1.065  0.00  0.00    -0.137 NA
ATOM     15  C   UNL     1       9.426   4.756  -0.674  0.00  0.00    +0.225 A 
ATOM     16  N   UNL     1       9.523   4.351   0.628  0.00  0.00    -0.311 N 
ATOM     17  C   UNL     1      10.704   4.428   1.493  0.00  0.00    +0.152 C 
ENDBRANCH  11  12
ENDBRANCH   8  11
ENDBRANCH   3   5
BRANCH   1  18
ATOM     18  C   UNL     1       0.493  -0.427   1.785  0.00  0.00    +0.163 C 
BRANCH  18  19
ATOM     19  N   UNL     1       0.255  -1.571   2.668  0.00  0.00    -0.288 N 
ATOM     20  C   UNL     1      -0.992  -1.836   3.107  0.00  0.00    +0.298 C 
ATOM     21  O   UNL     1      -1.919  -1.125   2.770  0.00  0.00    -0.253 OA
ATOM     22  N   UNL     1      -1.211  -2.889   3.919  0.00  0.00    -0.313 N 
ATOM     23  H   UNL     1       0.994  -2.139   2.937  0.00  0.00    +0.151 HD
ATOM     24  H   UNL     1      -0.472  -3.456   4.188  0.00  0.00    +0.146 HD
ATOM     25  H   UNL     1      -2.108  -3.079   4.235  0.00  0.00    +0.146 HD
ENDBRANCH  18  19
BRANCH  18  27
ATOM     26  C   UNL     1       1.220  -1.927  -0.076  0.00  0.00    +0.009 C 
ATOM     27  C   UNL     1       0.228  -0.837   0.335  0.00  0.00    +0.012 C 
ATOM     28  C   UNL     1      -1.200  -1.374   0.210  0.00  0.00    +0.009 C 
ENDBRANCH  18  27
ENDBRANCH   1  18
TORSDOF 6
