REMARK  Name = ZINC17212728
REMARK  2 active torsions:
REMARK  status: ('A' for Active; 'I' for Inactive)
REMARK    1  A    between atoms: C_10  and  N_11
REMARK    2  A    between atoms: C_14  and  C_19
REMARK                            x       y       z     vdW  Elec       q    Type
REMARK                         _______ _______ _______ _____ _____    ______ ____
ROOT
ATOM      1  N   UNL     1       2.131   1.130   1.184  0.00  0.00    -0.310 N 
ATOM      2  C   UNL     1       3.507   1.017   1.168  0.00  0.00    +0.220 A 
ATOM      3  N   UNL     1       4.149   0.577   2.245  0.00  0.00    -0.190 NA
ATOM      4  C   UNL     1       5.476   0.467   2.230  0.00  0.00    +0.223 A 
ATOM      5  N   UNL     1       6.158   0.799   1.135  0.00  0.00    -0.190 NA
ATOM      6  C   UNL     1       5.513   1.239   0.060  0.00  0.00    +0.218 A 
ATOM      7  N   UNL     1       4.188   1.343   0.075  0.00  0.00    -0.181 NA
ATOM      8  N   UNL     1       6.219   1.583  -1.075  0.00  0.00    -0.327 N 
ATOM      9  H   UNL     1       1.634   0.888   1.981  0.00  0.00    +0.149 HD
ATOM     10  H   UNL     1       7.186   1.503  -1.088  0.00  0.00    +0.145 HD
ATOM     11  H   UNL     1       5.749   1.904  -1.861  0.00  0.00    +0.145 HD
ENDROOT
BRANCH   1  21
ATOM     12  C   UNL     1      -1.490   3.616   0.036  0.00  0.00    +0.007 C 
ATOM     13  C   UNL     1      -0.750   3.109   1.275  0.00  0.00    -0.010 C 
ATOM     14  C   UNL     1      -0.729   1.579   1.267  0.00  0.00    +0.009 C 
ATOM     15  C   UNL     1      -0.013   1.086   0.008  0.00  0.00    +0.010 C 
ATOM     16  C   UNL     1      -0.753   1.593  -1.232  0.00  0.00    +0.009 C 
ATOM     17  C   UNL     1      -0.773   3.123  -1.223  0.00  0.00    -0.010 C 
ATOM     18  C   UNL     1       0.662   3.652  -1.234  0.00  0.00    +0.009 C 
ATOM     19  C   UNL     1       1.402   3.145   0.006  0.00  0.00    +0.010 C 
ATOM     20  C   UNL     1       0.686   3.639   1.264  0.00  0.00    +0.009 C 
ATOM     21  C   UNL     1       1.423   1.615  -0.003  0.00  0.00    +0.079 C 
ENDBRANCH   1  21
BRANCH   4  22
ATOM     22  C   UNL     1       6.192  -0.022   3.427  0.00  0.00    +0.285 A 
ATOM     23  N   UNL     1       5.635  -0.369   4.551  0.00  0.00    -0.129 NA
ATOM     24  N   UNL     1       6.653  -0.775   5.426  0.00  0.00    -0.237 N 
ATOM     25  H   UNL     1       6.541  -1.090   6.337  0.00  0.00    +0.193 HD
ATOM     26  C   UNL     1       7.819  -0.638   4.761  0.00  0.00    +0.264 A 
ATOM     27  S   UNL     1       9.380  -0.990   5.369  0.00  0.00    +0.011 S 
ATOM     28  O   UNL     1       7.531  -0.175   3.532  0.00  0.00    -0.409 OA
ENDBRANCH   4  22
TORSDOF 2
