REMARK  Name = ZINC09356988
REMARK  6 active torsions:
REMARK  status: ('A' for Active; 'I' for Inactive)
REMARK    1  A    between atoms: C_1  and  C_2
REMARK    2  A    between atoms: C_4  and  N_37
REMARK    3  A    between atoms: C_7  and  N_8
REMARK    4  A    between atoms: C_13  and  C_29
REMARK    5  A    between atoms: C_29  and  C_30
REMARK    6  A    between atoms: C_33  and  O_36
REMARK                            x       y       z     vdW  Elec       q    Type
REMARK                         _______ _______ _______ _____ _____    ______ ____
ROOT
ATOM      1  N   UNL     1      -1.793   2.682  -2.812  0.00  0.00    -0.210 N 
ATOM      2  C   UNL     1      -0.854   1.708  -2.554  0.00  0.00    +0.228 C 
ATOM      3  O   UNL     1      -0.199   1.076  -3.354  0.00  0.00    -0.275 OA
ATOM      4  C   UNL     1      -0.805   1.613  -1.114  0.00  0.00    +0.074 C 
ATOM      5  C   UNL     1      -0.013   1.086   0.008  0.00  0.00    -0.053 C 
ATOM      6  C   UNL     1      -1.310   2.954   0.773  0.00  0.00    +0.050 C 
ATOM      7  C   UNL     1      -1.031   3.118  -0.700  0.00  0.00    +0.088 C 
ATOM      8  C   UNL     1      -2.093   3.430  -1.706  0.00  0.00    +0.229 C 
ATOM      9  O   UNL     1      -3.027   4.190  -1.569  0.00  0.00    -0.275 OA
ATOM     10  C   UNL     1      -2.772   3.073   1.111  0.00  0.00    -0.028 A 
ATOM     11  C   UNL     1      -3.895   2.381   0.716  0.00  0.00    +0.004 A 
ATOM     12  C   UNL     1      -5.137   2.731   1.215  0.00  0.00    +0.000 A 
ATOM     13  C   UNL     1      -5.248   3.777   2.113  0.00  0.00    +0.002 A 
ATOM     14  C   UNL     1      -4.126   4.471   2.515  0.00  0.00    +0.023 A 
ATOM     15  C   UNL     1      -2.872   4.123   2.019  0.00  0.00    +0.036 A 
ATOM     16  N   UNL     1      -1.609   4.658   2.279  0.00  0.00    -0.286 N 
ATOM     17  C   UNL     1      -0.638   4.027   1.594  0.00  0.00    +0.211 C 
ATOM     18  O   UNL     1       0.549   4.272   1.631  0.00  0.00    -0.277 OA
ATOM     19  H   UNL     1      -1.450   5.400   2.884  0.00  0.00    +0.155 HD
ATOM     20  N   UNL     1      -0.800   1.625   1.161  0.00  0.00    +0.394 N 
ATOM     21  H   UNL     1      -0.197   1.709   1.988  0.00  0.00    -0.083 HD
ATOM     22  H   UNL     1      -1.585   0.997   1.372  0.00  0.00    -0.083 HD
ENDROOT
BRANCH   1  29
ATOM     23  C   UNL     1      -4.179   1.260  -3.433  0.00  0.00    +0.046 C 
ATOM     24  C   UNL     1      -3.542   2.211  -4.413  0.00  0.00    -0.026 A 
ATOM     25  C   UNL     1      -4.118   2.417  -5.652  0.00  0.00    +0.038 A 
ATOM     26  C   UNL     1      -3.531   3.285  -6.553  0.00  0.00    +0.127 A 
ATOM     27  C   UNL     1      -2.369   3.954  -6.216  0.00  0.00    +0.034 A 
ATOM     28  C   UNL     1      -1.791   3.757  -4.978  0.00  0.00    +0.026 A 
ATOM     29  C   UNL     1      -2.378   2.885  -4.070  0.00  0.00    +0.047 A 
BRANCH  26  30
ATOM     30  N   UNL     1      -4.148   3.499  -7.881  0.00  0.00    +0.056 N 
ATOM     31  O   UNL     1      -3.632   4.264  -8.677  0.00  0.00    -0.126 OA
ATOM     32  O   UNL     1      -5.172   2.910  -8.179  0.00  0.00    -0.126 OA
ENDBRANCH  26  30
ENDBRANCH   1  29
BRANCH   5  33
ATOM     33  C   UNL     1       1.408   1.655  -0.003  0.00  0.00    +0.020 C 
BRANCH  33  34
ATOM     34  C   UNL     1       2.193   1.065   1.141  0.00  0.00    -0.049 A 
ATOM     35  C   UNL     1       2.202   1.698   2.370  0.00  0.00    +0.007 A 
ATOM     36  C   UNL     1       2.917   1.157   3.421  0.00  0.00    +0.045 A 
ATOM     37  C   UNL     1       3.635  -0.016   3.239  0.00  0.00    +0.117 A 
ATOM     38  C   UNL     1       3.629  -0.646   2.003  0.00  0.00    +0.045 A 
ATOM     39  C   UNL     1       2.908  -0.104   0.957  0.00  0.00    +0.007 A 
BRANCH  37  40
ATOM     40  O   UNL     1       4.343  -0.547   4.270  0.00  0.00    -0.507 OA
ATOM     41  H   UNL     1       5.255  -0.231   4.326  0.00  0.00    +0.292 HD
ENDBRANCH  37  40
ENDBRANCH  33  34
ENDBRANCH   5  33
TORSDOF 5
