REMARK  Name = ZINC57152806
REMARK  7 active torsions:
REMARK  status: ('A' for Active; 'I' for Inactive)
REMARK    1  A    between atoms: C_1  and  C_2
REMARK    2  A    between atoms: C_5  and  C_29
REMARK    3  A    between atoms: C_8  and  C_28
REMARK    4  A    between atoms: C_9  and  C_11
REMARK    5  A    between atoms: N_13  and  N_14
REMARK    6  A    between atoms: C_17  and  C_21
REMARK    7  A    between atoms: C_17  and  C_22
REMARK                            x       y       z     vdW  Elec       q    Type
REMARK                         _______ _______ _______ _____ _____    ______ ____
ROOT
ATOM      1  C   UNL     1       0.068  -1.578   4.791  0.00  0.00    +0.296 C 
ATOM      2  O   UNL     1       0.060  -0.566   5.466  0.00  0.00    -0.265 OA
ATOM      3  N   UNL     1       0.090  -2.786   5.388  0.00  0.00    -0.217 N 
ATOM      4  H   UNL     1       0.096  -3.593   4.850  0.00  0.00    +0.174 HD
ENDROOT
BRANCH   1  13
ATOM      5  C   UNL     1      -0.018   1.503   0.010  0.00  0.00    +0.044 C 
ATOM      6  C   UNL     1       0.002  -0.004   0.002  0.00  0.00    -0.039 A 
ATOM      7  C   UNL     1       0.006  -0.684  -1.183  0.00  0.00    +0.004 A 
ATOM      8  C   UNL     1       0.025  -2.072  -1.198  0.00  0.00    +0.007 A 
ATOM      9  C   UNL     1       0.041  -2.789  -0.021  0.00  0.00    -0.008 A 
ATOM     10  C   UNL     1       0.037  -2.119   1.197  0.00  0.00    +0.139 A 
ATOM     11  C   UNL     1       0.023  -0.712   1.206  0.00  0.00    +0.027 A 
ATOM     12  C   UNL     1       0.030  -0.325   2.616  0.00  0.00    +0.008 A 
ATOM     13  C   UNL     1       0.053  -1.483   3.324  0.00  0.00    +0.195 A 
ATOM     14  O   UNL     1       0.049  -2.535   2.478  0.00  0.00    -0.450 OA
ATOM     15  C   UNL     1       0.016   1.076   3.171  0.00  0.00    +0.048 C 
ATOM     16  C   UNL     1       0.061  -4.295  -0.055  0.00  0.00    +0.047 C 
ENDBRANCH   1  13
BRANCH   3  17
ATOM     17  N   UNL     1       0.104  -2.876   6.786  0.00  0.00    -0.137 N 
ATOM     18  C   UNL     1       1.194  -3.193   7.513  0.00  0.00    +0.267 C 
ATOM     19  O   UNL     1       2.304  -3.444   7.096  0.00  0.00    -0.271 OA
ATOM     20  C   UNL     1       0.743  -3.169   8.960  0.00  0.00    +0.137 C 
ATOM     21  N   UNL     1      -0.683  -2.808   8.872  0.00  0.00    -0.280 N 
ATOM     22  C   UNL     1      -0.961  -2.653   7.565  0.00  0.00    +0.327 C 
ATOM     23  O   UNL     1      -2.057  -2.348   7.138  0.00  0.00    -0.251 OA
ATOM     24  C   UNL     1       0.909  -4.549   9.599  0.00  0.00    +0.047 C 
ATOM     25  H   UNL     1      -1.300  -2.700   9.612  0.00  0.00    +0.152 HD
BRANCH  20  26
ATOM     26  C   UNL     1       1.506  -2.128   9.736  0.00  0.00    -0.015 A 
ATOM     27  C   UNL     1       2.799  -1.802   9.370  0.00  0.00    +0.006 A 
ATOM     28  C   UNL     1       3.500  -0.847  10.082  0.00  0.00    +0.000 A 
ATOM     29  C   UNL     1       2.908  -0.217  11.161  0.00  0.00    +0.000 A 
ATOM     30  C   UNL     1       1.615  -0.542  11.527  0.00  0.00    +0.000 A 
ATOM     31  C   UNL     1       0.913  -1.494  10.812  0.00  0.00    +0.006 A 
ENDBRANCH  20  26
ENDBRANCH   3  17
TORSDOF 3
