REMARK  Name = ZINC36206470
REMARK  17 active torsions:
REMARK  status: ('A' for Active; 'I' for Inactive)
REMARK    1  A    between atoms: C_1  and  C_2
REMARK    2  A    between atoms: C_2  and  C_3
REMARK    3  A    between atoms: C_3  and  N_4
REMARK    4  A    between atoms: N_4  and  C_5
REMARK    5  A    between atoms: N_4  and  C_25
REMARK    6  A    between atoms: C_5  and  C_6
REMARK    7  A    between atoms: C_12  and  C_17
REMARK    8  A    between atoms: C_20  and  C_24
REMARK    9  A    between atoms: C_22  and  C_23
REMARK   10  A    between atoms: C_25  and  C_26
REMARK   11  A    between atoms: C_26  and  C_28
REMARK   12  A    between atoms: C_26  and  O_34
REMARK   13  A    between atoms: C_28  and  O_29
REMARK   14  A    between atoms: O_29  and  C_30
REMARK   15  A    between atoms: C_30  and  C_31
REMARK   16  A    between atoms: C_30  and  C_32
REMARK   17  A    between atoms: C_30  and  C_33
REMARK                            x       y       z     vdW  Elec       q    Type
REMARK                         _______ _______ _______ _____ _____    ______ ____
ROOT
ATOM      1  C   UNL     1       0.685  -2.342  -1.316  0.00  0.00    +0.094 A 
ATOM      2  N   UNL     1       1.223  -2.847  -2.455  0.00  0.00    -0.312 N 
ATOM      3  H   UNL     1       2.008  -3.414  -2.400  0.00  0.00    +0.170 HD
ATOM      4  C   UNL     1       0.688  -2.578  -3.661  0.00  0.00    +0.260 A 
ATOM      5  O   UNL     1       1.183  -3.039  -4.675  0.00  0.00    -0.267 OA
ATOM      6  C   UNL     1      -0.470  -1.740  -3.734  0.00  0.00    +0.080 A 
ATOM      7  C   UNL     1      -1.224  -1.308  -4.905  0.00  0.00    +0.004 A 
ATOM      8  C   UNL     1      -2.301  -0.506  -4.726  0.00  0.00    +0.056 A 
ATOM      9  S   UNL     1      -2.363  -0.284  -2.959  0.00  0.00    -0.076 S 
ATOM     10  C   UNL     1      -0.956  -1.264  -2.505  0.00  0.00    +0.116 A 
ATOM     11  N   UNL     1      -0.375  -1.580  -1.350  0.00  0.00    -0.229 NA
ENDROOT
BRANCH   7  12
ATOM     12  C   UNL     1      -0.819  -1.738  -6.264  0.00  0.00    -0.014 A 
ATOM     13  C   UNL     1      -0.370  -0.798  -7.191  0.00  0.00    +0.009 A 
ATOM     14  C   UNL     1       0.006  -1.204  -8.455  0.00  0.00    +0.004 A 
ATOM     15  C   UNL     1      -0.062  -2.541  -8.803  0.00  0.00    -0.050 A 
ATOM     16  C   UNL     1      -0.507  -3.478  -7.889  0.00  0.00    +0.007 A 
ATOM     17  C   UNL     1      -0.880  -3.084  -6.620  0.00  0.00    -0.042 A 
ATOM     18  C   UNL     1      -1.359  -4.108  -5.622  0.00  0.00    +0.044 C 
ATOM     19  C   UNL     1       0.350  -2.978 -10.186  0.00  0.00    +0.044 C 
ENDBRANCH   7  12
BRANCH   1  20
ATOM     20  C   UNL     1       1.318  -2.672   0.011  0.00  0.00    -0.003 C 
BRANCH  20  21
ATOM     21  N   UNL     1       0.655  -1.905   1.074  0.00  0.00    +0.386 N 
ATOM     22  H   UNL     1      -0.341  -2.066   1.035  0.00  0.00    -0.081 HD
BRANCH  21  23
ATOM     23  C   UNL     1       0.926  -0.473   0.887  0.00  0.00    -0.078 C 
BRANCH  23  25
ATOM     24  C   UNL     1       2.726   1.254   0.754  0.00  0.00    +0.002 C 
ATOM     25  C   UNL     1       2.420  -0.208   1.085  0.00  0.00    -0.022 C 
ENDBRANCH  23  25
ENDBRANCH  21  23
BRANCH  21  26
ATOM     26  C   UNL     1       1.169  -2.334   2.382  0.00  0.00    -0.044 C 
BRANCH  26  27
ATOM     27  C   UNL     1       0.357  -1.665   3.493  0.00  0.00    +0.124 C 
BRANCH  27  28
ATOM     28  O   UNL     1       0.597  -0.256   3.476  0.00  0.00    -0.391 OA
ATOM     29  H   UNL     1       1.523  -0.013   3.613  0.00  0.00    +0.210 HD
ENDBRANCH  27  28
BRANCH  27  30
ATOM     30  C   UNL     1       0.779  -2.238   4.848  0.00  0.00    +0.189 C 
BRANCH  30  31
ATOM     31  O   UNL     1      -0.057  -1.700   5.874  0.00  0.00    -0.372 OA
BRANCH  31  32
ATOM     32  C   UNL     1       0.254  -2.173   7.186  0.00  0.00    +0.061 C 
ATOM     33  C   UNL     1       1.696  -1.797   7.535  0.00  0.00    +0.041 C 
ATOM     34  C   UNL     1      -0.699  -1.534   8.198  0.00  0.00    +0.041 C 
ATOM     35  C   UNL     1       0.099  -3.694   7.229  0.00  0.00    +0.041 C 
ENDBRANCH  31  32
ENDBRANCH  30  31
ENDBRANCH  27  30
ENDBRANCH  26  27
ENDBRANCH  21  26
ENDBRANCH  20  21
ENDBRANCH   1  20
TORSDOF 11
