REMARK  Name = ZINC22702324
REMARK  11 active torsions:
REMARK  status: ('A' for Active; 'I' for Inactive)
REMARK    1  A    between atoms: C_1  and  C_2
REMARK    2  A    between atoms: C_5  and  N_13
REMARK    3  A    between atoms: C_7  and  S_8
REMARK    4  A    between atoms: S_8  and  N_11
REMARK    5  A    between atoms: N_11  and  C_12
REMARK    6  A    between atoms: C_14  and  C_16
REMARK    7  A    between atoms: C_19  and  C_21
REMARK    8  A    between atoms: C_21  and  C_22
REMARK    9  A    between atoms: C_22  and  N_23
REMARK   10  A    between atoms: N_23  and  S_24
REMARK   11  A    between atoms: S_24  and  C_27
REMARK                            x       y       z     vdW  Elec       q    Type
REMARK                         _______ _______ _______ _____ _____    ______ ____
ROOT
ATOM      1  N   UNL     1      -1.376   2.009  -0.448  0.00  0.00    -0.281 N 
ATOM      2  C   UNL     1      -1.440   3.355  -0.402  0.00  0.00    +0.255 C 
ATOM      3  O   UNL     1      -0.416   4.011  -0.358  0.00  0.00    -0.269 OA
ATOM      4  H   UNL     1      -2.297   1.419  -0.565  0.00  0.00    +0.155 HD
ENDROOT
BRANCH   1   9
ATOM      5  C   UNL     1       3.635  -0.618  -0.048  0.00  0.00    +0.046 C 
ATOM      6  C   UNL     1       2.304   0.081  -0.153  0.00  0.00    -0.024 A 
ATOM      7  C   UNL     1       2.212   1.294  -0.810  0.00  0.00    +0.007 A 
ATOM      8  C   UNL     1       0.993   1.937  -0.909  0.00  0.00    +0.024 A 
ATOM      9  C   UNL     1      -0.140   1.364  -0.345  0.00  0.00    +0.036 A 
ATOM     10  C   UNL     1      -0.043   0.145   0.314  0.00  0.00    +0.052 A 
ATOM     11  C   UNL     1       1.178  -0.492   0.408  0.00  0.00    +0.110 A 
BRANCH  11  12
ATOM     12  S   UNL     1       1.302  -2.038   1.245  0.00  0.00    +0.058 S 
ATOM     13  O   UNL     1       0.003  -2.339   1.736  0.00  0.00    -0.153 OA
ATOM     14  O   UNL     1       2.010  -2.914   0.378  0.00  0.00    -0.153 OA
BRANCH  12  15
ATOM     15  N   UNL     1       2.266  -1.802   2.570  0.00  0.00    -0.193 NA
ATOM     16  C   UNL     1       1.848  -0.873   3.624  0.00  0.00    +0.127 C 
ATOM     17  H   UNL     1       3.285  -2.216   2.574  0.00  0.00    +0.148 HD
ENDBRANCH  12  15
ENDBRANCH  11  12
ENDBRANCH   1   9
BRANCH   2  18
ATOM     18  C   UNL     1      -2.742   4.027  -0.404  0.00  0.00    +0.074 A 
ATOM     19  C   UNL     1      -3.024   5.384  -0.362  0.00  0.00    +0.021 A 
ATOM     20  C   UNL     1      -4.348   5.747  -0.375  0.00  0.00    +0.012 A 
ATOM     21  C   UNL     1      -5.301   4.780  -0.428  0.00  0.00    -0.008 A 
ATOM     22  S   UNL     1      -4.376   3.314  -0.469  0.00  0.00    -0.089 S 
BRANCH  21  23
ATOM     23  C   UNL     1      -6.799   4.942  -0.453  0.00  0.00    +0.059 C 
BRANCH  23  24
ATOM     24  C   UNL     1      -7.277   5.047  -1.902  0.00  0.00    +0.110 C 
BRANCH  24  25
ATOM     25  N   UNL     1      -8.733   5.205  -1.926  0.00  0.00    -0.194 NA
ATOM     26  H   UNL     1      -9.340   4.834  -1.087  0.00  0.00    +0.148 HD
BRANCH  25  27
ATOM     27  S   UNL     1      -9.489   5.711  -3.310  0.00  0.00    +0.027 S 
ATOM     28  O   UNL     1     -10.867   5.774  -2.969  0.00  0.00    -0.158 OA
ATOM     29  O   UNL     1      -8.785   6.883  -3.700  0.00  0.00    -0.158 OA
ATOM     30  C   UNL     1      -9.202   4.382  -4.510  0.00  0.00    +0.214 C 
ENDBRANCH  25  27
ENDBRANCH  24  25
ENDBRANCH  23  24
ENDBRANCH  21  23
ENDBRANCH   2  18
TORSDOF 8
