REMARK  Name = ZINC59264381
REMARK  7 active torsions:
REMARK  status: ('A' for Active; 'I' for Inactive)
REMARK    1  A    between atoms: C_1  and  C_2
REMARK    2  A    between atoms: N_5  and  C_8
REMARK    3  A    between atoms: C_8  and  C_10
REMARK    4  A    between atoms: C_8  and  C_26
REMARK    5  A    between atoms: C_10  and  N_11
REMARK    6  A    between atoms: C_18  and  C_20
REMARK    7  A    between atoms: N_24  and  C_25
REMARK                            x       y       z     vdW  Elec       q    Type
REMARK                         _______ _______ _______ _____ _____    ______ ____
ROOT
ATOM      1  C   UNL     1       2.527  -4.226  -1.280  0.00  0.00    +0.095 C 
ENDROOT
BRANCH   1   2
ATOM      2  N   UNL     1       1.905  -3.595  -2.446  0.00  0.00    -0.300 N 
ATOM      3  C   UNL     1       2.402  -3.820  -3.679  0.00  0.00    +0.303 C 
ATOM      4  O   UNL     1       3.366  -4.547  -3.823  0.00  0.00    -0.253 OA
ATOM      5  N   UNL     1       1.830  -3.239  -4.752  0.00  0.00    -0.277 N 
ATOM      6  C   UNL     1       0.666  -2.335  -4.721  0.00  0.00    +0.110 C 
ATOM      7  C   UNL     1       0.039  -2.447  -6.133  0.00  0.00    +0.021 C 
ATOM      8  C   UNL     1       1.301  -2.575  -7.026  0.00  0.00    +0.030 C 
ATOM      9  C   UNL     1       2.267  -3.397  -6.147  0.00  0.00    +0.124 C 
ATOM     10  H   UNL     1       1.136  -3.015  -2.332  0.00  0.00    +0.150 HD
BRANCH   9  11
ATOM     11  C   UNL     1       3.674  -2.881  -6.305  0.00  0.00    +0.039 A 
ATOM     12  C   UNL     1       4.217  -1.848  -5.629  0.00  0.00    +0.024 A 
ATOM     13  C   UNL     1       5.545  -1.702  -6.079  0.00  0.00    +0.019 A 
ATOM     14  C   UNL     1       5.761  -2.650  -7.012  0.00  0.00    +0.085 A 
ATOM     15  N   UNL     1       4.619  -3.381  -7.151  0.00  0.00    -0.352 N 
ATOM     16  C   UNL     1       4.435  -4.514  -8.061  0.00  0.00    +0.148 C 
ENDBRANCH   9  11
ENDBRANCH   1   2
BRANCH   1  17
ATOM     17  C   UNL     1       1.701  -3.915  -0.030  0.00  0.00    -0.013 C 
BRANCH  17  22
ATOM     18  C   UNL     1       4.253  -5.017   4.949  0.00  0.00    +0.007 C 
ATOM     19  C   UNL     1       3.566  -4.307   3.781  0.00  0.00    -0.018 C 
ATOM     20  C   UNL     1       4.403  -4.484   2.511  0.00  0.00    -0.015 C 
ATOM     21  C   UNL     1       3.672  -3.840   1.331  0.00  0.00    -0.078 C 
ATOM     22  N   UNL     1       2.365  -4.483   1.150  0.00  0.00    +0.386 N 
ATOM     23  C   UNL     1       1.531  -4.256   2.336  0.00  0.00    -0.078 C 
ATOM     24  C   UNL     1       2.179  -4.916   3.555  0.00  0.00    -0.015 C 
ATOM     25  H   UNL     1       2.495  -5.474   1.016  0.00  0.00    -0.081 HD
ENDBRANCH  17  22
BRANCH  17  26
ATOM     26  C   UNL     1       0.328  -4.519  -0.173  0.00  0.00    -0.022 A 
ATOM     27  C   UNL     1      -0.834  -3.922  -0.537  0.00  0.00    +0.009 A 
ATOM     28  C   UNL     1      -1.986  -4.683  -0.601  0.00  0.00    +0.008 A 
ATOM     29  C   UNL     1      -1.921  -6.002  -0.299  0.00  0.00    +0.045 A 
ATOM     30  S   UNL     1      -0.190  -6.208   0.086  0.00  0.00    -0.103 S 
ENDBRANCH  17  26
ENDBRANCH   1  17
TORSDOF 5
