REMARK  Name = ZINC06860675
REMARK  14 active torsions:
REMARK  status: ('A' for Active; 'I' for Inactive)
REMARK    1  A    between atoms: C_1  and  C_2
REMARK    2  A    between atoms: C_2  and  C_3
REMARK    3  A    between atoms: C_8  and  N_9
REMARK    4  A    between atoms: N_9  and  C_10
REMARK    5  A    between atoms: C_10  and  C_12
REMARK    6  A    between atoms: C_10  and  C_19
REMARK    7  A    between atoms: N_21  and  C_22
REMARK    8  A    between atoms: C_22  and  C_23
REMARK    9  A    between atoms: C_23  and  C_24
REMARK   10  A    between atoms: C_24  and  C_25
REMARK   11  A    between atoms: C_24  and  C_26
REMARK   12  A    between atoms: C_27  and  C_29
REMARK   13  A    between atoms: C_30  and  N_37
REMARK   14  A    between atoms: C_31  and  C_34
REMARK                            x       y       z     vdW  Elec       q    Type
REMARK                         _______ _______ _______ _____ _____    ______ ____
ROOT
ATOM      1  N   UNL     1      -5.515   1.720   0.291  0.00  0.00    -0.251 N 
ATOM      2  C   UNL     1      -4.645   1.130  -0.553  0.00  0.00    +0.262 C 
ATOM      3  O   UNL     1      -4.970   0.909  -1.705  0.00  0.00    -0.269 OA
ENDROOT
BRANCH   1   9
ATOM      4  C   UNL     1      -5.487   1.079   2.619  0.00  0.00    -0.026 A 
ATOM      5  C   UNL     1      -5.113   1.332   3.925  0.00  0.00    +0.005 A 
ATOM      6  C   UNL     1      -4.403   2.478   4.233  0.00  0.00    +0.000 A 
ATOM      7  C   UNL     1      -4.062   3.373   3.236  0.00  0.00    +0.002 A 
ATOM      8  C   UNL     1      -4.429   3.124   1.928  0.00  0.00    +0.024 A 
ATOM      9  C   UNL     1      -5.141   1.974   1.615  0.00  0.00    +0.041 A 
BRANCH   4  11
ATOM     10  C   UNL     1      -5.317  -1.222   1.713  0.00  0.00    +0.009 C 
ATOM     11  C   UNL     1      -6.265  -0.167   2.285  0.00  0.00    +0.033 C 
ENDBRANCH   4  11
ENDBRANCH   1   9
BRANCH   2  12
ATOM     12  C   UNL     1      -3.310   0.756  -0.085  0.00  0.00    +0.116 A 
ATOM     13  C   UNL     1      -2.264   0.149  -0.784  0.00  0.00    +0.076 A 
ATOM     14  C   UNL     1      -1.136  -0.052   0.011  0.00  0.00    +0.155 A 
ATOM     15  N   UNL     1      -1.157   0.335   1.268  0.00  0.00    -0.203 NA
ATOM     16  S   UNL     1      -2.580   0.961   1.527  0.00  0.00    +0.019 S 
BRANCH  14  17
ATOM     17  C   UNL     1       0.070  -0.686  -0.553  0.00  0.00    +0.262 C 
ATOM     18  O   UNL     1       0.082  -1.040  -1.716  0.00  0.00    -0.269 OA
ATOM     19  N   UNL     1       1.160  -0.867   0.218  0.00  0.00    -0.324 N 
ATOM     20  H   UNL     1       1.954  -1.280  -0.154  0.00  0.00    +0.145 HD
ATOM     21  H   UNL     1       1.150  -0.584   1.146  0.00  0.00    +0.145 HD
ENDBRANCH  14  17
BRANCH  13  22
ATOM     22  N   UNL     1      -2.341  -0.218  -2.121  0.00  0.00    -0.355 N 
ATOM     23  H   UNL     1      -1.582  -0.640  -2.552  0.00  0.00    +0.142 HD
ATOM     24  H   UNL     1      -3.154  -0.052  -2.623  0.00  0.00    +0.142 HD
ENDBRANCH  13  22
ENDBRANCH   2  12
BRANCH   1  25
ATOM     25  C   UNL     1      -6.851   2.094  -0.177  0.00  0.00    +0.197 C 
BRANCH  25  26
ATOM     26  C   UNL     1      -6.736   3.204  -1.190  0.00  0.00    -0.018 A 
ATOM     27  C   UNL     1      -5.964   4.316  -0.910  0.00  0.00    +0.009 A 
ATOM     28  C   UNL     1      -5.853   5.333  -1.840  0.00  0.00    +0.038 A 
ATOM     29  C   UNL     1      -6.525   5.242  -3.047  0.00  0.00    +0.123 A 
ATOM     30  C   UNL     1      -7.303   4.130  -3.324  0.00  0.00    +0.038 A 
ATOM     31  C   UNL     1      -7.407   3.112  -2.395  0.00  0.00    +0.009 A 
ATOM     32  F   UNL     1      -6.422   6.237  -3.955  0.00  0.00    -0.205 F 
ENDBRANCH  25  26
BRANCH  25  33
ATOM     33  C   UNL     1      -7.680   2.563   0.991  0.00  0.00    +0.238 C 
ATOM     34  O   UNL     1      -7.187   3.282   1.833  0.00  0.00    -0.273 OA
ATOM     35  N   UNL     1      -8.969   2.183   1.098  0.00  0.00    -0.313 N 
ATOM     36  H   UNL     1      -9.363   1.608   0.424  0.00  0.00    +0.149 HD
BRANCH  35  37
ATOM     37  C   UNL     1      -9.774   2.640   2.234  0.00  0.00    +0.104 C 
BRANCH  37  38
ATOM     38  C   UNL     1     -11.190   2.070   2.116  0.00  0.00    +0.022 C 
BRANCH  38  39
ATOM     39  C   UNL     1     -12.031   2.546   3.302  0.00  0.00    -0.016 C 
ATOM     40  C   UNL     1     -12.199   4.065   3.231  0.00  0.00    +0.007 C 
ATOM     41  C   UNL     1     -13.406   1.878   3.253  0.00  0.00    +0.007 C 
ENDBRANCH  38  39
ENDBRANCH  37  38
ENDBRANCH  35  37
ENDBRANCH  25  33
ENDBRANCH   1  25
TORSDOF 11
