REMARK  Name = ZINC12734602
REMARK  4 active torsions:
REMARK  status: ('A' for Active; 'I' for Inactive)
REMARK    1  A    between atoms: C_1  and  C_2
REMARK    2  A    between atoms: C_2  and  C_4
REMARK    3  A    between atoms: C_2  and  N_13
REMARK    4  A    between atoms: C_14  and  C_16
REMARK                            x       y       z     vdW  Elec       q    Type
REMARK                         _______ _______ _______ _____ _____    ______ ____
ROOT
ATOM      1  N   UNL     1       3.714  -2.036  -0.045  0.00  0.00    -0.302 N 
ATOM      2  C   UNL     1       3.694  -0.689  -0.037  0.00  0.00    +0.246 C 
ATOM      3  O   UNL     1       4.738  -0.065  -0.044  0.00  0.00    -0.270 OA
ATOM      4  H   UNL     1       2.881  -2.534  -0.040  0.00  0.00    +0.150 HD
ENDROOT
BRANCH   2   5
ATOM      5  C   UNL     1       2.404   0.031  -0.021  0.00  0.00    +0.056 A 
ATOM      6  C   UNL     1       1.203  -0.681  -0.014  0.00  0.00    +0.014 A 
ATOM      7  C   UNL     1       0.002  -0.004   0.002  0.00  0.00    +0.002 A 
ATOM      8  C   UNL     1      -0.017   1.380   0.010  0.00  0.00    +0.021 A 
ATOM      9  C   UNL     1       1.168   2.094   0.002  0.00  0.00    +0.060 A 
ATOM     10  C   UNL     1       2.380   1.428  -0.013  0.00  0.00    +0.071 A 
ATOM     11 CL   UNL     1       3.866   2.324  -0.023  0.00  0.00    -0.081 Cl
ATOM     12 CL   UNL     1       1.134   3.830   0.011  0.00  0.00    -0.082 Cl
ENDBRANCH   2   5
BRANCH   1  14
ATOM     13  C   UNL     1       5.486  -2.881  -1.504  0.00  0.00    +0.036 C 
ATOM     14  C   UNL     1       4.993  -2.750  -0.061  0.00  0.00    +0.136 C 
BRANCH  14  15
ATOM     15  C   UNL     1       4.810  -4.122   0.534  0.00  0.00    +0.126 A 
ATOM     16  C   UNL     1       5.684  -4.728   1.349  0.00  0.00    +0.055 A 
ATOM     17  C   UNL     1       5.100  -6.033   1.679  0.00  0.00    +0.020 A 
ATOM     18  C   UNL     1       5.504  -7.112   2.464  0.00  0.00    +0.011 A 
ATOM     19  C   UNL     1       4.702  -8.215   2.565  0.00  0.00    +0.001 A 
ATOM     20  C   UNL     1       3.491  -8.267   1.890  0.00  0.00    +0.004 A 
ATOM     21  C   UNL     1       3.075  -7.210   1.109  0.00  0.00    +0.047 A 
ATOM     22  C   UNL     1       3.875  -6.080   0.993  0.00  0.00    +0.135 A 
ATOM     23  O   UNL     1       3.744  -4.915   0.328  0.00  0.00    -0.458 OA
ENDBRANCH  14  15
ENDBRANCH   1  14
TORSDOF 3
