REMARK  Name = ZINC39345178
REMARK  10 active torsions:
REMARK  status: ('A' for Active; 'I' for Inactive)
REMARK    1  A    between atoms: C_1  and  C_2
REMARK    2  A    between atoms: C_4  and  C_9
REMARK    3  A    between atoms: C_5  and  O_8
REMARK    4  A    between atoms: C_9  and  C_11
REMARK    5  A    between atoms: C_9  and  C_22
REMARK    6  A    between atoms: C_13  and  N_19
REMARK    7  A    between atoms: C_14  and  O_18
REMARK    8  A    between atoms: C_16  and  O_17
REMARK    9  A    between atoms: C_24  and  C_29
REMARK   10  A    between atoms: C_27  and  O_28
REMARK                            x       y       z     vdW  Elec       q    Type
REMARK                         _______ _______ _______ _____ _____    ______ ____
ROOT
ATOM      1  C   UNL     1       0.129  -0.080  -2.825  0.00  0.00    +0.093 C 
ENDROOT
BRANCH   1   2
ATOM      2  C   UNL     1       0.179   1.295  -3.439  0.00  0.00    +0.047 A 
ATOM      3  C   UNL     1       1.264   2.101  -3.501  0.00  0.00    +0.041 A 
ATOM      4  N   UNL     1       0.899   3.240  -4.125  0.00  0.00    -0.278 N 
ATOM      5  N   UNL     1      -0.458   3.134  -4.460  0.00  0.00    -0.136 NA
ATOM      6  C   UNL     1      -0.889   1.965  -4.053  0.00  0.00    +0.236 A 
ATOM      7  C   UNL     1       2.638   1.783  -2.967  0.00  0.00    +0.065 C 
ATOM      8  H   UNL     1       1.474   3.999  -4.310  0.00  0.00    +0.189 HD
BRANCH   6  10
ATOM      9  H   UNL     1      -2.769   1.784  -3.515  0.00  0.00    +0.294 HD
ATOM     10  O   UNL     1      -2.154   1.486  -4.199  0.00  0.00    -0.491 OA
ENDBRANCH   6  10
ENDBRANCH   1   2
BRANCH   1  13
ATOM     11  C   UNL     1      -0.032   2.281  -0.550  0.00  0.00    +0.039 C 
ATOM     12  C   UNL     1      -0.058   0.780  -0.252  0.00  0.00    +0.157 C 
ATOM     13  C   UNL     1       0.574  -0.004  -1.387  0.00  0.00    +0.031 C 
ATOM     14  C   UNL     1       1.620  -0.615  -0.813  0.00  0.00    +0.234 C 
ATOM     15  N   UNL     1       1.693  -0.300   0.503  0.00  0.00    -0.116 NA
ATOM     16  N   UNL     1       0.805   0.463   0.899  0.00  0.00    -0.176 NA
BRANCH  14  17
ATOM     17  O   UNL     1       2.486  -1.437  -1.462  0.00  0.00    -0.491 OA
ATOM     18  H   UNL     1       3.186  -1.794  -0.898  0.00  0.00    +0.294 HD
ENDBRANCH  14  17
ENDBRANCH   1  13
BRANCH   1  19
ATOM     19  C   UNL     1      -1.281  -0.607  -2.887  0.00  0.00    +0.008 A 
ATOM     20  C   UNL     1      -2.275  -0.010  -2.134  0.00  0.00    +0.044 A 
ATOM     21  C   UNL     1      -3.569  -0.491  -2.189  0.00  0.00    +0.168 A 
ATOM     22  C   UNL     1      -3.874  -1.574  -3.001  0.00  0.00    +0.150 A 
ATOM     23  C   UNL     1      -2.879  -2.175  -3.757  0.00  0.00    +0.093 A 
ATOM     24  C   UNL     1      -1.583  -1.687  -3.704  0.00  0.00    +0.125 A 
BRANCH  21  25
ATOM     25  N   UNL     1      -4.631   0.150  -1.381  0.00  0.00    +0.060 N 
ATOM     26  O   UNL     1      -4.365   1.094  -0.674  0.00  0.00    -0.126 OA
ATOM     27  O   UNL     1      -5.763  -0.270  -1.429  0.00  0.00    -0.126 OA
ENDBRANCH  21  25
BRANCH  24  28
ATOM     28  O   UNL     1      -0.606  -2.269  -4.449  0.00  0.00    -0.506 OA
ATOM     29  H   UNL     1      -0.146  -2.991  -3.998  0.00  0.00    +0.292 HD
ENDBRANCH  24  28
BRANCH  22  30
ATOM     30  O   UNL     1      -5.147  -2.047  -3.054  0.00  0.00    -0.504 OA
ATOM     31  H   UNL     1      -5.692  -1.634  -3.738  0.00  0.00    +0.292 HD
ENDBRANCH  22  30
ENDBRANCH   1  19
TORSDOF 8
