REMARK  Name = ZINC33912079
REMARK  6 active torsions:
REMARK  status: ('A' for Active; 'I' for Inactive)
REMARK    1  A    between atoms: C_1  and  C_2
REMARK    2  A    between atoms: C_7  and  N_8
REMARK    3  A    between atoms: C_9  and  C_27
REMARK    4  A    between atoms: C_11  and  C_14
REMARK    5  A    between atoms: C_12  and  C_13
REMARK    6  A    between atoms: C_24  and  C_26
REMARK                            x       y       z     vdW  Elec       q    Type
REMARK                         _______ _______ _______ _____ _____    ______ ____
ROOT
ATOM      1  N   UNL     1      -0.268  -0.378   2.869  0.00  0.00    -0.317 N 
ATOM      2  C   UNL     1      -1.282  -0.051   3.727  0.00  0.00    +0.022 A 
ATOM      3  C   UNL     1      -0.795   0.718   4.715  0.00  0.00    +0.031 A 
ATOM      4  C   UNL     1       0.641   0.882   4.445  0.00  0.00    -0.003 A 
ATOM      5  C   UNL     1       0.893   0.167   3.285  0.00  0.00    +0.028 A 
ATOM      6  C   UNL     1       2.231   0.026   2.606  0.00  0.00    +0.064 C 
ATOM      7  C   UNL     1      -2.718  -0.486   3.587  0.00  0.00    +0.064 C 
ENDROOT
BRANCH   4   8
ATOM      8  C   UNL     1       1.577   1.617   5.217  0.00  0.00    +0.026 C 
ATOM      9  C   UNL     1       1.182   2.767   5.869  0.00  0.00    +0.081 C 
ATOM     10  C   UNL     1       2.080   3.474   6.824  0.00  0.00    +0.152 C 
ATOM     11  N   UNL     1       3.380   3.515   6.691  0.00  0.00    -0.283 NA
ATOM     12  N   UNL     1       1.389   4.097   7.885  0.00  0.00    -0.152 N 
ATOM     13  C   UNL     1       0.064   4.416   7.681  0.00  0.00    +0.181 C 
ATOM     14  N   UNL     1      -0.676   4.124   6.641  0.00  0.00    -0.152 NA
ATOM     15  C   UNL     1      -0.156   3.367   5.652  0.00  0.00    +0.273 C 
ATOM     16  O   UNL     1      -0.768   3.179   4.613  0.00  0.00    -0.268 OA
ATOM     17  S   UNL     1      -0.345   5.277   9.176  0.00  0.00    -0.038 S 
ATOM     18  C   UNL     1       1.226   5.069  10.004  0.00  0.00    +0.097 C 
ATOM     19  N   UNL     1       1.925   4.429   9.111  0.00  0.00    -0.170 NA
ATOM     20  C   UNL     1       1.636   5.519  11.382  0.00  0.00    +0.075 C 
ATOM     21  H   UNL     1       3.919   3.991   7.342  0.00  0.00    +0.188 HD
ENDBRANCH   4   8
BRANCH   1  28
ATOM     22  C   UNL     1      -0.884   0.913   0.409  0.00  0.00    +0.046 C 
ATOM     23  C   UNL     1      -0.714  -0.581   0.503  0.00  0.00    -0.027 A 
ATOM     24  C   UNL     1      -0.852  -1.365  -0.626  0.00  0.00    +0.007 A 
ATOM     25  C   UNL     1      -0.696  -2.736  -0.542  0.00  0.00    +0.020 A 
ATOM     26  C   UNL     1      -0.403  -3.328   0.674  0.00  0.00    +0.043 A 
ATOM     27  C   UNL     1      -0.264  -2.549   1.808  0.00  0.00    +0.046 A 
ATOM     28  C   UNL     1      -0.414  -1.171   1.723  0.00  0.00    +0.051 A 
ATOM     29 CL   UNL     1      -0.209  -5.050   0.777  0.00  0.00    -0.083 Cl
ENDBRANCH   1  28
TORSDOF 2
