REMARK  Name = ZINC46953283
REMARK  6 active torsions:
REMARK  status: ('A' for Active; 'I' for Inactive)
REMARK    1  A    between atoms: C_1  and  C_2
REMARK    2  A    between atoms: N_6  and  C_8
REMARK    3  A    between atoms: C_8  and  C_9
REMARK    4  A    between atoms: C_8  and  C_10
REMARK    5  A    between atoms: C_10  and  N_11
REMARK    6  A    between atoms: C_12  and  C_14
REMARK                            x       y       z     vdW  Elec       q    Type
REMARK                         _______ _______ _______ _____ _____    ______ ____
ROOT
ATOM      1  N   UNL     1       1.985  -4.564   1.357  0.00  0.00    -0.317 N 
ATOM      2  C   UNL     1       1.944  -5.894   1.143  0.00  0.00    +0.216 C 
ATOM      3  O   UNL     1       1.344  -6.614   1.913  0.00  0.00    -0.276 OA
ATOM      4  H   UNL     1       2.465  -3.989   0.741  0.00  0.00    +0.149 HD
ENDROOT
BRANCH   2   5
ATOM      5  C   UNL     1       2.643  -6.487  -0.053  0.00  0.00    +0.078 C 
ATOM      6  C   UNL     1       2.059  -5.886  -1.334  0.00  0.00    +0.032 C 
ATOM      7  C   UNL     1       2.796  -6.465  -2.547  0.00  0.00    +0.110 C 
ATOM      8  N   UNL     1       2.731  -7.931  -2.484  0.00  0.00    -0.286 N 
ATOM      9  C   UNL     1       3.183  -8.607  -1.260  0.00  0.00    +0.110 C 
ATOM     10  C   UNL     1       2.442  -8.004  -0.062  0.00  0.00    +0.032 C 
ATOM     11  C   UNL     1       2.265  -8.643  -3.529  0.00  0.00    +0.300 C 
ATOM     12  O   UNL     1       1.808  -8.071  -4.500  0.00  0.00    -0.253 OA
ATOM     13  N   UNL     1       2.304  -9.990  -3.498  0.00  0.00    -0.313 N 
ATOM     14  H   UNL     1       2.602 -10.448  -2.696  0.00  0.00    +0.146 HD
ATOM     15  H   UNL     1       2.036 -10.501  -4.277  0.00  0.00    +0.146 HD
ENDBRANCH   2   5
BRANCH   1  16
ATOM     16  C   UNL     1       1.306  -3.988   2.520  0.00  0.00    +0.088 C 
BRANCH  16  17
ATOM     17  C   UNL     1       1.397  -2.462   2.461  0.00  0.00    -0.054 C 
ATOM     18  C   UNL     1       0.589  -1.857   3.610  0.00  0.00    -0.012 C 
BRANCH  17  24
ATOM     19  C   UNL     1      -2.594  -2.300  -0.370  0.00  0.00    +0.005 C 
ATOM     20  C   UNL     1      -1.112  -1.928  -0.278  0.00  0.00    -0.031 C 
ATOM     21  C   UNL     1      -0.954  -0.414  -0.443  0.00  0.00    -0.001 C 
ATOM     22  C   UNL     1       0.522  -0.043  -0.272  0.00  0.00    -0.018 C 
ATOM     23  C   UNL     1       1.010  -0.532   1.094  0.00  0.00    -0.078 C 
ATOM     24  N   UNL     1       0.857  -1.989   1.179  0.00  0.00    +0.383 N 
ATOM     25  C   UNL     1      -0.564  -2.347   1.088  0.00  0.00    -0.075 C 
ATOM     26  H   UNL     1       1.361  -2.424   0.422  0.00  0.00    -0.081 HD
ENDBRANCH  17  24
ENDBRANCH  16  17
ENDBRANCH   1  16
TORSDOF 4
