REMARK  Name = ZINC17263722
REMARK  15 active torsions:
REMARK  status: ('A' for Active; 'I' for Inactive)
REMARK    1  A    between atoms: C_3  and  O_40
REMARK    2  A    between atoms: C_4  and  O_39
REMARK    3  A    between atoms: C_6  and  C_7
REMARK    4  A    between atoms: C_8  and  C_9
REMARK    5  A    between atoms: C_9  and  O_11
REMARK    6  A    between atoms: O_11  and  C_12
REMARK    7  A    between atoms: C_16  and  C_23
REMARK    8  A    between atoms: C_16  and  O_26
REMARK    9  A    between atoms: C_17  and  O_22
REMARK   10  A    between atoms: C_19  and  O_21
REMARK   11  A    between atoms: O_26  and  C_27
REMARK   12  A    between atoms: C_27  and  C_29
REMARK   13  A    between atoms: C_30  and  C_31
REMARK   14  A    between atoms: C_34  and  O_38
REMARK   15  A    between atoms: C_35  and  O_37
REMARK                            x       y       z     vdW  Elec       q    Type
REMARK                         _______ _______ _______ _____ _____    ______ ____
ROOT
ATOM      1  C   UNL     1      -6.021  -0.968   0.057  0.00  0.00    +0.208 C 
ATOM      2  C   UNL     1      -6.459  -1.245  -1.383  0.00  0.00    +0.052 C 
ATOM      3  C   UNL     1      -7.729  -2.098  -1.375  0.00  0.00    +0.066 C 
ATOM      4  C   UNL     1      -8.842  -1.349  -0.639  0.00  0.00    +0.241 C 
ATOM      5  C   UNL     1      -8.404  -1.072   0.801  0.00  0.00    +0.201 C 
ATOM      6  C   UNL     1      -7.134  -0.219   0.793  0.00  0.00    +0.188 C 
ENDROOT
BRANCH   4   7
ATOM      7  C   UNL     1     -10.093  -2.189  -0.631  0.00  0.00    +0.402 C 
ATOM      8  O   UNL     1     -10.084  -3.290  -0.109  0.00  0.00    -0.242 OA
ATOM      9  O   UNL     1     -11.114  -1.766  -1.146  0.00  0.00    -0.242 OA
ENDBRANCH   4   7
BRANCH   6  10
ATOM     10  O   UNL     1      -7.395   1.019   0.129  0.00  0.00    -0.385 OA
ATOM     11  H   UNL     1      -6.632   1.611   0.086  0.00  0.00    +0.210 HD
ENDBRANCH   6  10
BRANCH   5  12
ATOM     12  O   UNL     1      -8.142  -2.310   1.466  0.00  0.00    -0.385 OA
ATOM     13  H   UNL     1      -7.859  -2.211   2.385  0.00  0.00    +0.210 HD
ENDBRANCH   5  12
BRANCH   1  14
ATOM     14  O   UNL     1      -4.835  -0.172   0.049  0.00  0.00    -0.456 OA
BRANCH  14  15
ATOM     15  C   UNL     1      -3.656  -0.828   0.034  0.00  0.00    +0.332 C 
ATOM     16  O   UNL     1      -3.638  -2.045   0.027  0.00  0.00    -0.246 OA
BRANCH  15  18
ATOM     17  C   UNL     1      -1.259  -0.758   0.011  0.00  0.00    +0.015 C 
ATOM     18  C   UNL     1      -2.439  -0.101   0.026  0.00  0.00    +0.092 C 
BRANCH  17  24
ATOM     19  C   UNL     1      -0.017   1.395   0.010  0.00  0.00    +0.012 A 
ATOM     20  C   UNL     1       1.167   2.100   0.002  0.00  0.00    +0.050 A 
ATOM     21  C   UNL     1       2.380   1.425  -0.013  0.00  0.00    +0.158 A 
ATOM     22  C   UNL     1       2.408   0.031  -0.021  0.00  0.00    +0.159 A 
ATOM     23  C   UNL     1       1.226  -0.683  -0.014  0.00  0.00    +0.057 A 
ATOM     24  C   UNL     1       0.002  -0.004   0.002  0.00  0.00    -0.021 A 
BRANCH  22  25
ATOM     25  O   UNL     1       3.599  -0.626  -0.037  0.00  0.00    -0.503 OA
ATOM     26  H   UNL     1       3.952  -0.821   0.842  0.00  0.00    +0.292 HD
ENDBRANCH  22  25
BRANCH  21  27
ATOM     27  O   UNL     1       3.544   2.125  -0.020  0.00  0.00    -0.503 OA
ATOM     28  H   UNL     1       3.890   2.323   0.861  0.00  0.00    +0.292 HD
ENDBRANCH  21  27
ENDBRANCH  17  24
ENDBRANCH  15  18
ENDBRANCH  14  15
ENDBRANCH   1  14
BRANCH   4  29
ATOM     29  O   UNL     1      -9.103  -0.111  -1.303  0.00  0.00    -0.441 OA
BRANCH  29  30
ATOM     30  C   UNL     1      -9.502  -0.179  -2.590  0.00  0.00    +0.333 C 
ATOM     31  O   UNL     1      -9.625  -1.261  -3.133  0.00  0.00    -0.246 OA
BRANCH  30  32
ATOM     32  C   UNL     1      -9.779   1.011  -3.310  0.00  0.00    +0.092 C 
ATOM     33  C   UNL     1     -10.179   0.943  -4.599  0.00  0.00    +0.015 C 
BRANCH  33  34
ATOM     34  C   UNL     1     -10.466   2.175  -5.346  0.00  0.00    -0.021 A 
ATOM     35  C   UNL     1     -10.320   3.422  -4.725  0.00  0.00    +0.012 A 
ATOM     36  C   UNL     1     -10.590   4.576  -5.427  0.00  0.00    +0.050 A 
ATOM     37  C   UNL     1     -11.006   4.507  -6.750  0.00  0.00    +0.158 A 
ATOM     38  C   UNL     1     -11.154   3.269  -7.375  0.00  0.00    +0.159 A 
ATOM     39  C   UNL     1     -10.880   2.107  -6.681  0.00  0.00    +0.057 A 
BRANCH  38  40
ATOM     40  O   UNL     1     -11.562   3.206  -8.671  0.00  0.00    -0.503 OA
ATOM     41  H   UNL     1     -10.838   3.223  -9.313  0.00  0.00    +0.292 HD
ENDBRANCH  38  40
BRANCH  37  42
ATOM     42  O   UNL     1     -11.271   5.648  -7.437  0.00  0.00    -0.503 OA
ATOM     43  H   UNL     1     -10.506   6.013  -7.903  0.00  0.00    +0.292 HD
ENDBRANCH  37  42
ENDBRANCH  33  34
ENDBRANCH  30  32
ENDBRANCH  29  30
ENDBRANCH   4  29
TORSDOF 15
