REMARK  Name = ZINC04292990
REMARK  11 active torsions:
REMARK  status: ('A' for Active; 'I' for Inactive)
REMARK    1  A    between atoms: C_1  and  C_2
REMARK    2  A    between atoms: C_2  and  C_4
REMARK    3  A    between atoms: C_2  and  C_10
REMARK    4  A    between atoms: C_4  and  C_5
REMARK    5  A    between atoms: C_5  and  C_6
REMARK    6  A    between atoms: C_6  and  O_8
REMARK    7  A    between atoms: O_8  and  C_9
REMARK    8  A    between atoms: C_16  and  C_37
REMARK    9  A    between atoms: C_23  and  O_36
REMARK   10  A    between atoms: C_25  and  O_35
REMARK   11  A    between atoms: C_29  and  C_34
REMARK                            x       y       z     vdW  Elec       q    Type
REMARK                         _______ _______ _______ _____ _____    ______ ____
ROOT
ATOM      1  C   UNL     1       1.879  -3.820  -4.518  0.00  0.00    -0.002 C 
ATOM      2  C   UNL     1       3.316  -3.301  -4.236  0.00  0.00    +0.004 C 
ATOM      3  C   UNL     1       3.195  -2.294  -3.052  0.00  0.00    +0.005 C 
ATOM      4  C   UNL     1       1.809  -2.635  -2.494  0.00  0.00    +0.001 C 
ATOM      5  C   UNL     1       0.986  -2.793  -3.783  0.00  0.00    -0.026 C 
ATOM      6  C   UNL     1      -0.417  -3.247  -3.474  0.00  0.00    +0.007 C 
ATOM      7  C   UNL     1      -1.054  -2.282  -2.451  0.00  0.00    +0.005 C 
ATOM      8  C   UNL     1      -0.237  -2.265  -1.173  0.00  0.00    +0.001 C 
ATOM      9  C   UNL     1       1.199  -1.791  -1.429  0.00  0.00    +0.027 C 
ATOM     10  C   UNL     1       1.288  -0.289  -1.597  0.00  0.00    +0.147 C 
ATOM     11  C   UNL     1       0.747   0.373  -0.316  0.00  0.00    +0.147 C 
ATOM     12  C   UNL     1      -0.733   0.000  -0.185  0.00  0.00    +0.026 C 
ATOM     13  C   UNL     1      -0.876  -1.509  -0.016  0.00  0.00    -0.024 C 
ATOM     14  C   UNL     1      -0.184  -1.942   1.284  0.00  0.00    +0.007 C 
ATOM     15  C   UNL     1      -0.765  -1.204   2.485  0.00  0.00    +0.001 C 
ATOM     16  C   UNL     1      -0.630   0.306   2.298  0.00  0.00    +0.000 C 
ATOM     17  C   UNL     1      -1.331   0.739   1.012  0.00  0.00    +0.007 C 
ATOM     18  C   UNL     1      -2.361  -1.879   0.082  0.00  0.00    +0.012 C 
ATOM     19  C   UNL     1       0.966  -1.546  -4.665  0.00  0.00    +0.012 C 
ENDROOT
BRANCH   1  21
ATOM     20  C   UNL     1       2.447  -4.827  -6.728  0.00  0.00    +0.008 C 
ATOM     21  C   UNL     1       1.581  -3.788  -6.013  0.00  0.00    -0.010 C 
BRANCH  21  22
ATOM     22  C   UNL     1       0.103  -4.110  -6.245  0.00  0.00    +0.014 C 
BRANCH  22  23
ATOM     23  C   UNL     1      -0.193  -4.092  -7.746  0.00  0.00    +0.121 C 
BRANCH  23  24
ATOM     24  C   UNL     1      -1.649  -4.408  -7.974  0.00  0.00    +0.307 C 
ATOM     25  O   UNL     1      -2.374  -4.626  -7.034  0.00  0.00    -0.251 OA
BRANCH  24  26
ATOM     26  O   UNL     1      -2.139  -4.448  -9.223  0.00  0.00    -0.468 OA
ATOM     27  C   UNL     1      -3.549  -4.760  -9.368  0.00  0.00    +0.280 C 
ENDBRANCH  24  26
ENDBRANCH  23  24
ENDBRANCH  22  23
ENDBRANCH  21  22
ENDBRANCH   1  21
BRANCH  11  28
ATOM     28  O   UNL     1       0.876   1.790  -0.437  0.00  0.00    -0.389 OA
ATOM     29  H   UNL     1       1.787   2.093  -0.554  0.00  0.00    +0.210 HD
ENDBRANCH  11  28
BRANCH  10  30
ATOM     30  O   UNL     1       0.507   0.208  -2.678  0.00  0.00    -0.389 OA
ATOM     31  H   UNL     1       0.549   1.168  -2.785  0.00  0.00    +0.210 HD
ENDBRANCH  10  30
TORSDOF 7
