REMARK  Name = ZINC43556684
REMARK  5 active torsions:
REMARK  status: ('A' for Active; 'I' for Inactive)
REMARK    1  A    between atoms: C_1  and  C_2
REMARK    2  A    between atoms: C_2  and  C_3
REMARK    3  A    between atoms: C_3  and  C_5
REMARK    4  A    between atoms: C_3  and  N_7
REMARK    5  A    between atoms: C_12  and  C_14
REMARK                            x       y       z     vdW  Elec       q    Type
REMARK                         _______ _______ _______ _____ _____    ______ ____
ROOT
ATOM      1  N   UNL     1      -2.464   0.000   0.561  0.00  0.00    -0.276 NA
ATOM      2  C   UNL     1      -2.616   1.460   0.590  0.00  0.00    +0.086 C 
ATOM      3  C   UNL     1      -2.458   1.963   2.026  0.00  0.00    +0.015 C 
ATOM      4  C   UNL     1      -3.519   1.303   2.912  0.00  0.00    +0.003 C 
ATOM      5  C   UNL     1      -3.370  -0.218   2.826  0.00  0.00    +0.028 C 
ATOM      6  C   UNL     1      -3.501  -0.658   1.366  0.00  0.00    +0.144 C 
ENDROOT
BRANCH   6   7
ATOM      7  C   UNL     1      -3.335  -2.153   1.275  0.00  0.00    +0.228 C 
ATOM      8  O   UNL     1      -2.238  -2.630   1.073  0.00  0.00    -0.274 OA
ATOM      9  N   UNL     1      -4.405  -2.960   1.418  0.00  0.00    -0.328 N 
ATOM     10  H   UNL     1      -5.282  -2.578   1.579  0.00  0.00    +0.145 HD
ATOM     11  H   UNL     1      -4.298  -3.922   1.359  0.00  0.00    +0.145 HD
ENDBRANCH   6   7
BRANCH   1  12
ATOM     12  C   UNL     1      -2.471  -0.503  -0.819  0.00  0.00    +0.160 C 
BRANCH  12  14
ATOM     13  C   UNL     1      -4.915  -0.042  -1.056  0.00  0.00    +0.006 C 
ATOM     14  C   UNL     1      -3.527   0.249  -1.631  0.00  0.00    +0.031 C 
ENDBRANCH  12  14
BRANCH  12  15
ATOM     15  C   UNL     1      -1.146  -0.294  -1.425  0.00  0.00    +0.081 C 
ATOM     16  N   UNL     1      -0.123  -0.132  -1.892  0.00  0.00    -0.195 NA
ENDBRANCH  12  15
ENDBRANCH   1  12
TORSDOF 4
