REMARK  Name = ZINC39666231
REMARK  8 active torsions:
REMARK  status: ('A' for Active; 'I' for Inactive)
REMARK    1  A    between atoms: C_1  and  C_2
REMARK    2  A    between atoms: C_5  and  O_8
REMARK    3  A    between atoms: O_8  and  C_9
REMARK    4  A    between atoms: C_9  and  C_11
REMARK    5  A    between atoms: C_9  and  C_12
REMARK    6  A    between atoms: C_12  and  N_13
REMARK    7  A    between atoms: C_14  and  C_16
REMARK    8  A    between atoms: C_27  and  C_29
REMARK                            x       y       z     vdW  Elec       q    Type
REMARK                         _______ _______ _______ _____ _____    ______ ____
ROOT
ATOM      1  C   UNL     1      -2.761  -7.067  -0.028  0.00  0.00    +0.100 C 
ATOM      2  C   UNL     1      -3.318  -6.543  -1.371  0.00  0.00    +0.121 C 
ATOM      3  N   UNL     1      -3.490  -7.756  -2.204  0.00  0.00    -0.300 N 
ATOM      4  C   UNL     1      -4.001  -8.781  -1.261  0.00  0.00    +0.115 C 
ATOM      5  C   UNL     1      -3.215  -8.535   0.042  0.00  0.00    -0.004 C 
ATOM      6  C   UNL     1      -4.117  -8.752   1.252  0.00  0.00    -0.010 C 
ATOM      7  C   UNL     1      -4.508 -10.231   1.333  0.00  0.00    -0.082 C 
ATOM      8  N   UNL     1      -3.297 -11.053   1.447  0.00  0.00    +0.379 N 
ATOM      9  C   UNL     1      -2.480 -10.910   0.236  0.00  0.00    -0.082 C 
ATOM     10  C   UNL     1      -2.003  -9.460   0.109  0.00  0.00    -0.010 C 
ATOM     11  C   UNL     1      -3.240  -7.897  -3.520  0.00  0.00    +0.219 C 
ATOM     12  O   UNL     1      -2.924  -6.932  -4.184  0.00  0.00    -0.275 OA
ATOM     13  H   UNL     1      -2.763 -10.755   2.249  0.00  0.00    -0.086 HD
ATOM     14  H   UNL     1      -3.559 -12.021   1.561  0.00  0.00    -0.086 HD
ENDROOT
BRANCH  11  15
ATOM     15  C   UNL     1      -3.353  -9.253  -4.168  0.00  0.00    +0.079 C 
ATOM     16  C   UNL     1      -2.412  -9.326  -5.378  0.00  0.00    +0.017 C 
ATOM     17  C   UNL     1      -2.413 -10.762  -5.905  0.00  0.00    +0.027 C 
ATOM     18  C   UNL     1      -3.823 -11.248  -6.077  0.00  0.00    -0.031 C 
ATOM     19  C   UNL     1      -4.854 -10.690  -5.531  0.00  0.00    -0.030 C 
ATOM     20  C   UNL     1      -4.788  -9.474  -4.652  0.00  0.00    +0.039 C 
ENDBRANCH  11  15
BRANCH   1  22
ATOM     21  N   UNL     1      -0.601  -6.817   1.151  0.00  0.00    -0.312 N 
ATOM     22  C   UNL     1      -1.256  -6.982  -0.015  0.00  0.00    +0.218 C 
ATOM     23  O   UNL     1      -0.635  -7.061  -1.053  0.00  0.00    -0.275 OA
ATOM     24  H   UNL     1      -1.098  -6.754   1.982  0.00  0.00    +0.149 HD
BRANCH  21  25
ATOM     25  C   UNL     1       0.862  -6.735   1.164  0.00  0.00    +0.148 C 
BRANCH  25  26
ATOM     26  C   UNL     1       1.349  -6.550   2.603  0.00  0.00    +0.187 C 
ATOM     27  C   UNL     1       2.877  -6.463   2.616  0.00  0.00    +0.053 C 
BRANCH  26  28
ATOM     28  O   UNL     1       0.799  -5.346   3.141  0.00  0.00    -0.488 OA
BRANCH  28  33
ATOM     29  C   UNL     1       0.182  -5.094   8.734  0.00  0.00    +0.044 C 
ATOM     30  C   UNL     1       0.347  -5.161   7.237  0.00  0.00    -0.050 A 
ATOM     31  C   UNL     1       0.976  -6.249   6.661  0.00  0.00    +0.007 A 
ATOM     32  C   UNL     1       1.129  -6.313   5.289  0.00  0.00    +0.046 A 
ATOM     33  C   UNL     1       0.650  -5.285   4.490  0.00  0.00    +0.121 A 
ATOM     34  C   UNL     1       0.018  -4.195   5.071  0.00  0.00    +0.046 A 
ATOM     35  C   UNL     1      -0.137  -4.138   6.443  0.00  0.00    +0.007 A 
ENDBRANCH  28  33
ENDBRANCH  26  28
ENDBRANCH  25  26
ENDBRANCH  21  25
ENDBRANCH   1  22
TORSDOF 6
