REMARK  Name = ZINC36061317
REMARK  11 active torsions:
REMARK  status: ('A' for Active; 'I' for Inactive)
REMARK    1  A    between atoms: C_1  and  C_2
REMARK    2  A    between atoms: C_5  and  C_8
REMARK    3  A    between atoms: C_10  and  C_28
REMARK    4  A    between atoms: C_11  and  C_27
REMARK    5  A    between atoms: C_15  and  C_18
REMARK    6  A    between atoms: C_19  and  N_21
REMARK    7  A    between atoms: C_28  and  O_30
REMARK    8  A    between atoms: O_30  and  C_31
REMARK    9  A    between atoms: C_31  and  C_32
REMARK   10  A    between atoms: C_31  and  C_33
REMARK   11  A    between atoms: C_31  and  C_34
REMARK                            x       y       z     vdW  Elec       q    Type
REMARK                         _______ _______ _______ _____ _____    ______ ____
ROOT
ATOM      1  C   UNL     1      -0.054  -4.035   0.047  0.00  0.00    +0.150 C 
ATOM      2  C   UNL     1       1.286  -4.676  -0.235  0.00  0.00    +0.083 C 
ATOM      3  C   UNL     1       1.629  -5.799   0.494  0.00  0.00    +0.053 C 
ATOM      4  N   UNL     1       0.802  -6.285   1.405  0.00  0.00    -0.230 NA
ATOM      5  C   UNL     1      -0.376  -5.775   1.699  0.00  0.00    +0.166 C 
ATOM      6  N   UNL     1      -0.900  -4.668   1.094  0.00  0.00    -0.267 N 
ATOM      7  C   UNL     1      -2.149  -4.257   1.514  0.00  0.00    +0.048 C 
ATOM      8  C   UNL     1      -2.753  -4.978   2.485  0.00  0.00    +0.072 C 
ATOM      9  S   UNL     1      -1.546  -6.246   2.807  0.00  0.00    -0.060 S 
ATOM     10  C   UNL     1       2.954  -6.474   0.249  0.00  0.00    +0.066 C 
ENDROOT
BRANCH   1  15
ATOM     11  C   UNL     1       0.888   1.450   1.601  0.00  0.00    +0.044 C 
ATOM     12  C   UNL     1       0.642   0.020   1.196  0.00  0.00    -0.050 A 
ATOM     13  C   UNL     1       0.196  -0.270  -0.080  0.00  0.00    +0.004 A 
ATOM     14  C   UNL     1      -0.029  -1.582  -0.452  0.00  0.00    +0.006 A 
ATOM     15  C   UNL     1       0.192  -2.604   0.452  0.00  0.00    -0.022 A 
ATOM     16  C   UNL     1       0.639  -2.314   1.728  0.00  0.00    +0.006 A 
ATOM     17  C   UNL     1       0.868  -1.003   2.098  0.00  0.00    +0.004 A 
ENDBRANCH   1  15
BRANCH   7  18
ATOM     18  C   UNL     1      -2.800  -3.078   0.925  0.00  0.00    +0.091 C 
ATOM     19  C   UNL     1      -4.072  -2.779   1.250  0.00  0.00    +0.241 C 
ATOM     20  O   UNL     1      -4.713  -3.492   2.208  0.00  0.00    -0.271 OA
BRANCH  19  21
ATOM     21  N   UNL     1      -4.726  -1.742   0.606  0.00  0.00    -0.294 N 
ATOM     22  C   UNL     1      -4.421  -1.407  -0.794  0.00  0.00    +0.136 C 
ATOM     23  C   UNL     1      -5.739  -1.331  -1.571  0.00  0.00    +0.179 C 
ATOM     24  O   UNL     1      -6.638  -0.452  -0.890  0.00  0.00    -0.377 OA
ATOM     25  C   UNL     1      -7.001  -0.888   0.422  0.00  0.00    +0.179 C 
ATOM     26  C   UNL     1      -5.751  -0.945   1.300  0.00  0.00    +0.136 C 
ENDBRANCH  19  21
ENDBRANCH   7  18
BRANCH   2  27
ATOM     27  C   UNL     1       2.150  -4.151  -1.204  0.00  0.00    +0.340 C 
ATOM     28  O   UNL     1       3.271  -4.610  -1.333  0.00  0.00    -0.245 OA
BRANCH  27  29
ATOM     29  O   UNL     1       1.740  -3.134  -1.994  0.00  0.00    -0.456 OA
BRANCH  29  30
ATOM     30  C   UNL     1       2.674  -2.647  -2.961  0.00  0.00    +0.106 C 
ATOM     31  C   UNL     1       3.058  -3.780  -3.914  0.00  0.00    +0.055 C 
ATOM     32  C   UNL     1       2.036  -1.506  -3.756  0.00  0.00    +0.055 C 
ATOM     33  C   UNL     1       3.926  -2.134  -2.247  0.00  0.00    +0.055 C 
ENDBRANCH  29  30
ENDBRANCH  27  29
ENDBRANCH   2  27
TORSDOF 6
