REMARK  Name = ZINC04773054
REMARK  7 active torsions:
REMARK  status: ('A' for Active; 'I' for Inactive)
REMARK    1  A    between atoms: C_1  and  C_2
REMARK    2  A    between atoms: C_2  and  C_3
REMARK    3  A    between atoms: C_2  and  C_4
REMARK    4  A    between atoms: C_2  and  N_5
REMARK    5  A    between atoms: N_5  and  O_12
REMARK    6  A    between atoms: N_8  and  C_9
REMARK    7  A    between atoms: C_9  and  C_10
REMARK                            x       y       z     vdW  Elec       q    Type
REMARK                         _______ _______ _______ _____ _____    ______ ____
ROOT
ATOM      1  N   UNL     1      -0.017   1.412   0.010  0.00  0.00    -0.162 N 
ATOM      2  C   UNL     1       1.141   2.102   0.003  0.00  0.00    +0.326 C 
ATOM      3  O   UNL     1       1.124   3.317   0.009  0.00  0.00    -0.250 OA
ATOM      4  N   UNL     1       2.317   1.444  -0.012  0.00  0.00    -0.296 N 
ATOM      5  H   UNL     1       2.330   0.474  -0.018  0.00  0.00    +0.150 HD
ENDROOT
BRANCH   1   7
ATOM      6  C   UNL     1      -2.445   1.117   0.020  0.00  0.00    +0.034 C 
ATOM      7  C   UNL     1      -1.296   2.127   0.020  0.00  0.00    +0.057 C 
ATOM      8  C   UNL     1      -1.383   2.999   1.274  0.00  0.00    +0.034 C 
ATOM      9  C   UNL     1      -1.395   3.012  -1.224  0.00  0.00    +0.034 C 
ENDBRANCH   1   7
BRANCH   1  10
ATOM     10  O   UNL     1       0.002  -0.004   0.002  0.00  0.00    -0.291 OA
ATOM     11  H   UNL     1      -0.876  -0.409   0.008  0.00  0.00    +0.242 HD
ENDBRANCH   1  10
BRANCH   4  12
ATOM     12  C   UNL     1       3.576   2.193  -0.020  0.00  0.00    +0.121 C 
BRANCH  12  13
ATOM     13  C   UNL     1       4.752   1.215  -0.037  0.00  0.00    +0.127 C 
ATOM     14 CL   UNL     1       6.301   2.138  -0.047  0.00  0.00    -0.124 Cl
ENDBRANCH  12  13
ENDBRANCH   4  12
TORSDOF 4
