REMARK  Name = ZINC40332530
REMARK  6 active torsions:
REMARK  status: ('A' for Active; 'I' for Inactive)
REMARK    1  A    between atoms: C_8  and  C_10
REMARK    2  A    between atoms: C_10  and  N_11
REMARK    3  A    between atoms: N_11  and  S_12
REMARK    4  A    between atoms: S_12  and  C_15
REMARK    5  A    between atoms: C_18  and  O_22
REMARK    6  A    between atoms: C_19  and  N_21
REMARK                            x       y       z     vdW  Elec       q    Type
REMARK                         _______ _______ _______ _____ _____    ______ ____
ROOT
ATOM      1  S   UNL     1       6.505  -1.080  -2.252  0.00  0.00    +0.058 S 
ATOM      2  O   UNL     1       7.588  -0.233  -1.892  0.00  0.00    -0.153 OA
ATOM      3  O   UNL     1       6.628  -2.494  -2.304  0.00  0.00    -0.153 OA
ENDROOT
BRANCH   1   4
ATOM      4  C   UNL     1       5.970  -0.562  -3.849  0.00  0.00    +0.107 A 
ATOM      5  C   UNL     1       5.294  -1.446  -4.670  0.00  0.00    +0.032 A 
ATOM      6  C   UNL     1       4.872  -1.046  -5.924  0.00  0.00    +0.049 A 
ATOM      7  C   UNL     1       5.125   0.244  -6.362  0.00  0.00    +0.137 A 
ATOM      8  C   UNL     1       5.807   1.135  -5.536  0.00  0.00    +0.068 A 
ATOM      9  C   UNL     1       6.223   0.728  -4.277  0.00  0.00    +0.055 A 
BRANCH   8  10
ATOM     10  N   UNL     1       6.066   2.439  -5.973  0.00  0.00    -0.355 N 
ATOM     11  H   UNL     1       5.772   2.723  -6.852  0.00  0.00    +0.142 HD
ATOM     12  H   UNL     1       6.541   3.058  -5.396  0.00  0.00    +0.142 HD
ENDBRANCH   8  10
BRANCH   7  13
ATOM     13  O   UNL     1       4.711   0.639  -7.596  0.00  0.00    -0.505 OA
ATOM     14  H   UNL     1       3.823   1.021  -7.608  0.00  0.00    +0.292 HD
ENDBRANCH   7  13
ENDBRANCH   1   4
BRANCH   1  15
ATOM     15  N   UNL     1       5.275  -0.750  -1.193  0.00  0.00    -0.189 NA
ATOM     16  H   UNL     1       5.403  -0.093  -0.491  0.00  0.00    +0.148 HD
BRANCH  15  17
ATOM     17  C   UNL     1       3.994  -1.450  -1.317  0.00  0.00    +0.114 C 
BRANCH  17  25
ATOM     18  C   UNL     1      -0.017   1.376   0.010  0.00  0.00    +0.000 A 
ATOM     19  C   UNL     1       1.169   2.087   0.002  0.00  0.00    +0.000 A 
ATOM     20  C   UNL     1       2.374   1.411  -0.013  0.00  0.00    +0.004 A 
ATOM     21  C   UNL     1       2.394   0.028  -0.021  0.00  0.00    -0.040 A 
ATOM     22  C   UNL     1       1.211  -0.689  -0.014  0.00  0.00    -0.043 A 
ATOM     23  C   UNL     1       0.002  -0.004   0.002  0.00  0.00    +0.004 A 
ATOM     24  C   UNL     1       1.874  -2.050  -0.028  0.00  0.00    +0.045 C 
ATOM     25  C   UNL     1       3.181  -1.257  -0.036  0.00  0.00    +0.039 C 
ENDBRANCH  17  25
ENDBRANCH  15  17
ENDBRANCH   1  15
TORSDOF 6
