REMARK  Name = ZINC00900588
REMARK  5 active torsions:
REMARK  status: ('A' for Active; 'I' for Inactive)
REMARK    1  A    between atoms: C_1  and  C_2
REMARK    2  A    between atoms: C_5  and  C_25
REMARK    3  A    between atoms: C_10  and  C_12
REMARK    4  A    between atoms: N_14  and  C_15
REMARK    5  A    between atoms: C_20  and  C_21
REMARK                            x       y       z     vdW  Elec       q    Type
REMARK                         _______ _______ _______ _____ _____    ______ ____
ROOT
ATOM      1  C   UNL     1      -0.030   1.478  -0.005  0.00  0.00    +0.028 C 
ATOM      2  C   UNL     1      -0.009  -0.051  -0.002  0.00  0.00    +0.072 C 
ATOM      3  C   UNL     1      -1.445  -0.586   0.023  0.00  0.00    +0.054 C 
ATOM      4  C   UNL     1      -2.183  -0.031   1.248  0.00  0.00    +0.178 C 
ATOM      5  N   UNL     1      -1.348  -0.232   2.432  0.00  0.00    -0.224 N 
ATOM      6  C   UNL     1      -0.011  -0.468   2.394  0.00  0.00    +0.215 A 
ATOM      7  N   UNL     1       0.415  -0.601   3.618  0.00  0.00    -0.189 NA
ATOM      8  C   UNL     1      -0.617  -0.455   4.472  0.00  0.00    +0.238 A 
ATOM      9  N   UNL     1      -1.716  -0.227   3.779  0.00  0.00    -0.143 NA
ATOM     10  N   UNL     1       0.700  -0.535   1.199  0.00  0.00    -0.311 N 
ATOM     11  H   UNL     1       1.605  -0.880   1.155  0.00  0.00    +0.149 HD
ENDROOT
BRANCH   8  12
ATOM     12  C   UNL     1      -0.532  -0.538   5.945  0.00  0.00    +0.287 C 
ATOM     13  O   UNL     1      -1.532  -0.391   6.621  0.00  0.00    -0.266 OA
ATOM     14  N   UNL     1       0.654  -0.777   6.539  0.00  0.00    -0.278 N 
ATOM     15  H   UNL     1       1.439  -0.960   5.999  0.00  0.00    +0.155 HD
BRANCH  14  16
ATOM     16  C   UNL     1       0.752  -0.762   7.929  0.00  0.00    +0.053 A 
ATOM     17  C   UNL     1      -0.303  -1.215   8.707  0.00  0.00    +0.044 A 
ATOM     18  C   UNL     1      -0.203  -1.199  10.085  0.00  0.00    +0.043 A 
ATOM     19  C   UNL     1       0.949  -0.733  10.700  0.00  0.00    +0.021 A 
ATOM     20  C   UNL     1       2.007  -0.279   9.942  0.00  0.00    +0.022 A 
ATOM     21  C   UNL     1       1.922  -0.294   8.548  0.00  0.00    +0.073 A 
ATOM     22 CL   UNL     1      -1.528  -1.767  11.053  0.00  0.00    -0.083 Cl
BRANCH  21  23
ATOM     23  C   UNL     1       3.020   0.171   7.754  0.00  0.00    +0.101 C 
ATOM     24  N   UNL     1       3.891   0.539   7.125  0.00  0.00    -0.191 NA
ENDBRANCH  21  23
ENDBRANCH  14  16
ENDBRANCH   8  12
BRANCH   4  25
ATOM     25  C   UNL     1      -3.512  -0.768   1.423  0.00  0.00    +0.365 C 
ATOM     26  F   UNL     1      -4.183  -0.260   2.540  0.00  0.00    -0.207 F 
ATOM     27  F   UNL     1      -4.301  -0.584   0.282  0.00  0.00    -0.207 F 
ENDBRANCH   4  25
TORSDOF 4
