REMARK  Name = ZINC06825719
REMARK  9 active torsions:
REMARK  status: ('A' for Active; 'I' for Inactive)
REMARK    1  A    between atoms: C_1  and  C_2
REMARK    2  A    between atoms: C_2  and  C_3
REMARK    3  A    between atoms: C_2  and  C_4
REMARK    4  A    between atoms: C_2  and  C_5
REMARK    5  A    between atoms: C_8  and  O_11
REMARK    6  A    between atoms: O_11  and  C_12
REMARK    7  A    between atoms: C_12  and  C_13
REMARK    8  A    between atoms: N_15  and  C_16
REMARK    9  A    between atoms: C_17  and  C_26
REMARK                            x       y       z     vdW  Elec       q    Type
REMARK                         _______ _______ _______ _____ _____    ______ ____
ROOT
ATOM      1  C   UNL     1       2.211   5.600   0.012  0.00  0.00    +0.255 C 
ATOM      2  O   UNL     1       1.085   6.051   0.025  0.00  0.00    -0.272 OA
ATOM      3  N   UNL     1       3.270   6.433   0.006  0.00  0.00    -0.277 N 
ATOM      4  H   UNL     1       4.171   6.073  -0.004  0.00  0.00    +0.155 HD
ENDROOT
BRANCH   3   5
ATOM      5  C   UNL     1       3.072   7.806   0.016  0.00  0.00    +0.084 A 
ATOM      6  C   UNL     1       4.024   8.813   0.018  0.00  0.00    +0.068 A 
ATOM      7  C   UNL     1       3.552  10.191   0.022  0.00  0.00    -0.023 A 
ATOM      8  C   UNL     1       2.210  10.333   0.041  0.00  0.00    -0.004 A 
ATOM      9  S   UNL     1       1.576   8.678   0.036  0.00  0.00    -0.077 S 
ATOM     10  C   UNL     1       1.424  11.607   0.074  0.00  0.00    +0.043 C 
ATOM     11  C   UNL     1       1.958  12.560  -1.004  0.00  0.00    +0.005 C 
ATOM     12  C   UNL     1       3.073  13.403  -0.393  0.00  0.00    +0.001 C 
ATOM     13  C   UNL     1       3.833  12.590   0.654  0.00  0.00    +0.005 C 
ATOM     14  C   UNL     1       4.502  11.383   0.007  0.00  0.00    +0.037 C 
BRANCH   6  15
ATOM     15  C   UNL     1       5.457   8.503   0.013  0.00  0.00    +0.244 C 
ATOM     16  O   UNL     1       6.049   8.379  -1.043  0.00  0.00    -0.270 OA
ATOM     17  N   UNL     1       6.119   8.354   1.178  0.00  0.00    -0.325 N 
ATOM     18  H   UNL     1       5.647   8.452   2.020  0.00  0.00    +0.145 HD
ATOM     19  H   UNL     1       7.067   8.148   1.174  0.00  0.00    +0.145 HD
ENDBRANCH   6  15
ENDBRANCH   3   5
BRANCH   1  20
ATOM     20  C   UNL     1       2.426   4.108   0.001  0.00  0.00    +0.324 C 
BRANCH  20  21
ATOM     21  O   UNL     1       1.160   3.445   0.010  0.00  0.00    -0.483 OA
BRANCH  21  25
ATOM     22  C   UNL     1       1.208  -0.680  -0.013  0.00  0.00    -0.042 A 
ATOM     23  C   UNL     1       0.002  -0.004   0.002  0.00  0.00    +0.008 A 
ATOM     24  C   UNL     1      -0.017   1.377   0.010  0.00  0.00    +0.046 A 
ATOM     25  C   UNL     1       1.176   2.086   0.002  0.00  0.00    +0.121 A 
ATOM     26  C   UNL     1       2.385   1.405  -0.013  0.00  0.00    +0.046 A 
ATOM     27  C   UNL     1       2.398   0.024  -0.021  0.00  0.00    +0.008 A 
BRANCH  22  29
ATOM     28  C   UNL     1       0.498  -2.699  -1.266  0.00  0.00    +0.015 C 
ATOM     29  C   UNL     1       1.226  -2.187  -0.021  0.00  0.00    -0.013 C 
ATOM     30  C   UNL     1       2.674  -2.680  -0.037  0.00  0.00    +0.015 C 
ATOM     31  C   UNL     1       0.522  -2.712   1.233  0.00  0.00    +0.015 C 
ENDBRANCH  22  29
ENDBRANCH  21  25
ENDBRANCH  20  21
ENDBRANCH   1  20
TORSDOF 6
