REMARK  Name = ZINC37558095
REMARK  8 active torsions:
REMARK  status: ('A' for Active; 'I' for Inactive)
REMARK    1  A    between atoms: C_1  and  C_2
REMARK    2  A    between atoms: C_2  and  C_3
REMARK    3  A    between atoms: C_7  and  C_20
REMARK    4  A    between atoms: C_8  and  N_9
REMARK    5  A    between atoms: N_9  and  S_10
REMARK    6  A    between atoms: S_10  and  C_13
REMARK    7  A    between atoms: N_15  and  C_19
REMARK    8  A    between atoms: C_20  and  C_21
REMARK                            x       y       z     vdW  Elec       q    Type
REMARK                         _______ _______ _______ _____ _____    ______ ____
ROOT
ATOM      1  N   UNL     1       2.389   0.976  -1.577  0.00  0.00    -0.216 N 
ATOM      2  H   UNL     1       2.406   1.301  -0.663  0.00  0.00    +0.174 HD
ENDROOT
BRANCH   1   8
ATOM      3  C   UNL     1       0.070   0.575  -2.110  0.00  0.00    -0.025 A 
ATOM      4  C   UNL     1      -0.931  -0.281  -2.525  0.00  0.00    +0.005 A 
ATOM      5  C   UNL     1      -0.638  -1.600  -2.819  0.00  0.00    +0.001 A 
ATOM      6  C   UNL     1       0.659  -2.066  -2.699  0.00  0.00    +0.005 A 
ATOM      7  C   UNL     1       1.664  -1.216  -2.283  0.00  0.00    -0.025 A 
ATOM      8  C   UNL     1       1.374   0.111  -1.992  0.00  0.00    +0.054 A 
BRANCH   3  10
ATOM      9  C   UNL     1       0.012   2.881  -3.022  0.00  0.00    +0.009 C 
ATOM     10  C   UNL     1      -0.252   2.012  -1.790  0.00  0.00    +0.033 C 
ENDBRANCH   3  10
BRANCH   7  11
ATOM     11  C   UNL     1       3.076  -1.725  -2.151  0.00  0.00    +0.033 C 
ATOM     12  C   UNL     1       3.065  -3.083  -1.446  0.00  0.00    +0.009 C 
ENDBRANCH   7  11
ENDBRANCH   1   8
BRANCH   1  13
ATOM     13  S   UNL     1       3.565   1.444  -2.644  0.00  0.00    +0.077 S 
ATOM     14  O   UNL     1       4.361   2.411  -1.973  0.00  0.00    -0.150 OA
ATOM     15  O   UNL     1       4.114   0.254  -3.193  0.00  0.00    -0.150 OA
BRANCH  13  16
ATOM     16  C   UNL     1       2.762   2.285  -3.968  0.00  0.00    +0.167 A 
ATOM     17  C   UNL     1       2.815   3.614  -4.217  0.00  0.00    +0.138 A 
ATOM     18  N   UNL     1       2.071   3.860  -5.315  0.00  0.00    -0.271 N 
ATOM     19  N   UNL     1       1.539   2.642  -5.761  0.00  0.00    -0.155 NA
ATOM     20  C   UNL     1       1.958   1.694  -4.957  0.00  0.00    +0.165 A 
ATOM     21  N   UNL     1       1.655   0.332  -5.063  0.00  0.00    -0.340 N 
ATOM     22  C   UNL     1       1.855   5.170  -5.933  0.00  0.00    +0.172 C 
ATOM     23  H   UNL     1       2.097  -0.310  -4.486  0.00  0.00    +0.144 HD
ATOM     24  H   UNL     1       1.003   0.030  -5.715  0.00  0.00    +0.144 HD
ENDBRANCH  13  16
ENDBRANCH   1  13
TORSDOF 5
