REMARK  Name = ZINC20307895
REMARK  4 active torsions:
REMARK  status: ('A' for Active; 'I' for Inactive)
REMARK    1  A    between atoms: C_1  and  C_2
REMARK    2  A    between atoms: C_2  and  C_4
REMARK    3  A    between atoms: C_2  and  N_10
REMARK    4  A    between atoms: N_10  and  C_11
REMARK                            x       y       z     vdW  Elec       q    Type
REMARK                         _______ _______ _______ _____ _____    ______ ____
ROOT
ATOM      1  C   UNL     1      -2.545  -0.035   1.263  0.00  0.00    +0.038 C 
ATOM      2  C   UNL     1      -2.482   0.853   0.018  0.00  0.00    +0.154 C 
ENDROOT
BRANCH   2   3
ATOM      3  C   UNL     1      -1.187   1.624   0.017  0.00  0.00    +0.240 C 
ATOM      4  O   UNL     1      -1.204   2.836   0.023  0.00  0.00    -0.273 OA
ATOM      5  N   UNL     1      -0.011   0.966   0.007  0.00  0.00    -0.239 N 
ATOM      6  C   UNL     1       1.147   1.655   0.000  0.00  0.00    +0.303 C 
ATOM      7  O   UNL     1       1.130   2.871   0.007  0.00  0.00    -0.253 OA
ATOM      8  N   UNL     1       2.323   0.998  -0.015  0.00  0.00    -0.313 N 
ATOM      9  H   UNL     1       0.004  -0.134   0.006  0.00  0.00    +0.159 HD
ATOM     10  H   UNL     1       3.268   1.560  -0.021  0.00  0.00    +0.146 HD
ATOM     11  H   UNL     1       2.338  -0.102  -0.021  0.00  0.00    +0.146 HD
ENDBRANCH   2   3
BRANCH   2  12
ATOM     12  N   UNL     1      -3.608   1.789   0.029  0.00  0.00    -0.333 N 
ATOM     13  H   UNL     1      -3.477   2.803   0.436  0.00  0.00    +0.147 HD
BRANCH  12  14
ATOM     14  C   UNL     1      -4.849   1.396  -0.479  0.00  0.00    +0.030 A 
ATOM     15  C   UNL     1      -5.014   0.119  -0.999  0.00  0.00    +0.043 A 
ATOM     16  C   UNL     1      -6.244  -0.270  -1.495  0.00  0.00    +0.044 A 
ATOM     17  C   UNL     1      -7.307   0.616  -1.485  0.00  0.00    +0.040 A 
ATOM     18  C   UNL     1      -7.144   1.891  -0.973  0.00  0.00    +0.044 A 
ATOM     19  C   UNL     1      -5.917   2.283  -0.469  0.00  0.00    +0.043 A 
ATOM     20 CL   UNL     1      -8.480   2.999  -0.961  0.00  0.00    -0.083 Cl
ATOM     21 CL   UNL     1      -6.454  -1.869  -2.139  0.00  0.00    -0.083 Cl
ENDBRANCH  12  14
ENDBRANCH   2  12
TORSDOF 3
