REMARK  Name = ZINC02356494
REMARK  7 active torsions:
REMARK  status: ('A' for Active; 'I' for Inactive)
REMARK    1  A    between atoms: C_1  and  C_2
REMARK    2  A    between atoms: C_2  and  C_3
REMARK    3  A    between atoms: C_3  and  C_5
REMARK    4  A    between atoms: C_3  and  N_6
REMARK    5  A    between atoms: C_7  and  C_9
REMARK    6  A    between atoms: N_20  and  C_23
REMARK    7  A    between atoms: C_21  and  N_22
REMARK                            x       y       z     vdW  Elec       q    Type
REMARK                         _______ _______ _______ _____ _____    ______ ____
ROOT
ATOM      1  C   UNL     1       0.002  -0.004   0.002  0.00  0.00    +0.104 A 
ATOM      2  C   UNL     1       0.031  -0.891   1.177  0.00  0.00    +0.123 A 
ATOM      3  C   UNL     1       0.039  -2.253   0.636  0.00  0.00    +0.166 A 
ATOM      4  N   UNL     1       0.061  -3.277   1.461  0.00  0.00    -0.225 NA
ATOM      5  C   UNL     1       0.086  -3.067   2.784  0.00  0.00    +0.092 A 
ATOM      6  C   UNL     1       0.116  -4.157   3.674  0.00  0.00    +0.030 A 
ATOM      7  C   UNL     1       0.133  -3.935   5.016  0.00  0.00    +0.002 A 
ATOM      8  C   UNL     1       0.121  -2.638   5.528  0.00  0.00    +0.002 A 
ATOM      9  C   UNL     1       0.093  -1.560   4.699  0.00  0.00    +0.030 A 
ATOM     10  C   UNL     1       0.075  -1.749   3.305  0.00  0.00    +0.090 A 
ATOM     11  N   UNL     1       0.048  -0.696   2.480  0.00  0.00    -0.241 NA
ATOM     12  N   UNL     1       0.025  -2.140  -0.741  0.00  0.00    -0.280 N 
ATOM     13  C   UNL     1       0.003  -0.830  -1.117  0.00  0.00    +0.117 A 
ENDROOT
BRANCH  12  14
ATOM     14  C   UNL     1       0.032  -3.224  -1.630  0.00  0.00    +0.050 A 
ATOM     15  C   UNL     1      -1.044  -4.101  -1.665  0.00  0.00    +0.028 A 
ATOM     16  C   UNL     1      -1.036  -5.166  -2.545  0.00  0.00    +0.022 A 
ATOM     17  C   UNL     1       0.045  -5.364  -3.385  0.00  0.00    +0.041 A 
ATOM     18  C   UNL     1       1.121  -4.493  -3.348  0.00  0.00    +0.022 A 
ATOM     19  C   UNL     1       1.116  -3.424  -2.473  0.00  0.00    +0.028 A 
ATOM     20 CL   UNL     1       0.054  -6.706  -4.485  0.00  0.00    -0.084 Cl
ENDBRANCH  12  14
BRANCH   1  22
ATOM     21  N   UNL     1       1.140   2.147   0.003  0.00  0.00    -0.309 N 
ATOM     22  C   UNL     1      -0.018   1.457   0.010  0.00  0.00    +0.250 C 
ATOM     23  O   UNL     1      -1.081   2.051   0.018  0.00  0.00    -0.270 OA
ATOM     24  H   UNL     1       1.987   1.673  -0.008  0.00  0.00    +0.149 HD
BRANCH  21  25
ATOM     25  C   UNL     1       1.120   3.612   0.011  0.00  0.00    +0.070 C 
ATOM     26  C   UNL     1       1.001   4.112   1.452  0.00  0.00    +0.028 C 
BRANCH  25  28
ATOM     27  C   UNL     1       2.474   3.747  -2.085  0.00  0.00    +0.005 C 
ATOM     28  C   UNL     1       2.415   4.143  -0.608  0.00  0.00    +0.018 C 
ENDBRANCH  25  28
ENDBRANCH  21  25
ENDBRANCH   1  22
BRANCH  13  29
ATOM     29  N   UNL     1      -0.015  -0.389  -2.414  0.00  0.00    -0.343 N 
ATOM     30  H   UNL     1      -0.030   0.563  -2.603  0.00  0.00    +0.144 HD
ATOM     31  H   UNL     1      -0.012  -1.028  -3.144  0.00  0.00    +0.144 HD
ENDBRANCH  13  29
TORSDOF 5
