REMARK  Name = ZINC39359340
REMARK  10 active torsions:
REMARK  status: ('A' for Active; 'I' for Inactive)
REMARK    1  A    between atoms: C_1  and  O_2
REMARK    2  A    between atoms: O_2  and  C_3
REMARK    3  A    between atoms: C_7  and  C_10
REMARK    4  A    between atoms: C_8  and  O_9
REMARK    5  A    between atoms: C_13  and  O_37
REMARK    6  A    between atoms: C_24  and  C_27
REMARK    7  A    between atoms: C_30  and  O_35
REMARK    8  A    between atoms: C_31  and  O_33
REMARK    9  A    between atoms: O_33  and  C_34
REMARK   10  A    between atoms: O_35  and  C_36
REMARK                            x       y       z     vdW  Elec       q    Type
REMARK                         _______ _______ _______ _____ _____    ______ ____
ROOT
ATOM      1  C   UNL     1      -2.549  -4.175   0.017  0.00  0.00    +0.092 C 
ATOM      2  C   UNL     1      -3.309  -4.654  -1.184  0.00  0.00    +0.049 C 
ATOM      3  C   UNL     1      -2.969  -5.155  -2.351  0.00  0.00    +0.235 C 
ATOM      4  N   UNL     1      -4.078  -5.551  -3.034  0.00  0.00    -0.114 NA
ATOM      5  N   UNL     1      -5.146  -5.322  -2.452  0.00  0.00    -0.157 NA
ATOM      6  C   UNL     1      -4.841  -4.630  -1.198  0.00  0.00    +0.245 C 
ATOM      7  N   UNL     1      -5.216  -5.407  -0.014  0.00  0.00    -0.321 N 
ATOM      8  C   UNL     1      -4.530  -5.223   1.161  0.00  0.00    +0.014 C 
ATOM      9  C   UNL     1      -3.303  -4.663   1.245  0.00  0.00    +0.024 C 
ATOM     10  C   UNL     1      -2.655  -4.498   2.481  0.00  0.00    +0.162 C 
ATOM     11  O   UNL     1      -1.546  -4.000   2.508  0.00  0.00    -0.292 OA
ATOM     12  C   UNL     1      -3.301  -4.924   3.770  0.00  0.00    +0.088 C 
ATOM     13  C   UNL     1      -4.822  -4.837   3.607  0.00  0.00    +0.032 C 
ATOM     14  C   UNL     1      -5.232  -5.707   2.413  0.00  0.00    +0.059 C 
ATOM     15  H   UNL     1      -5.944  -6.046  -0.060  0.00  0.00    +0.148 HD
ENDROOT
BRANCH   1  20
ATOM     16  C   UNL     1      -1.201  -0.638   0.010  0.00  0.00    +0.162 A 
ATOM     17  C   UNL     1      -2.374   0.099   0.019  0.00  0.00    +0.049 A 
ATOM     18  C   UNL     1      -3.596  -0.546   0.027  0.00  0.00    +0.004 A 
ATOM     19  C   UNL     1      -3.652  -1.928   0.026  0.00  0.00    +0.008 A 
ATOM     20  C   UNL     1      -2.485  -2.669   0.017  0.00  0.00    +0.010 A 
ATOM     21  C   UNL     1      -1.257  -2.028   0.003  0.00  0.00    +0.163 A 
BRANCH  16  23
ATOM     22  C   UNL     1      -0.017   1.425   0.010  0.00  0.00    +0.277 C 
ATOM     23  O   UNL     1       0.002  -0.004   0.002  0.00  0.00    -0.491 OA
ENDBRANCH  16  23
BRANCH  21  24
ATOM     24  O   UNL     1      -0.108  -2.756  -0.012  0.00  0.00    -0.503 OA
ATOM     25  H   UNL     1       0.232  -2.972   0.867  0.00  0.00    +0.292 HD
ENDBRANCH  21  24
ENDBRANCH   1  20
BRANCH  13  26
ATOM     26  C   UNL     1      -5.497  -5.338   4.858  0.00  0.00    -0.040 A 
ATOM     27  C   UNL     1      -5.279  -6.634   5.287  0.00  0.00    +0.008 A 
ATOM     28  C   UNL     1      -5.895  -7.098   6.434  0.00  0.00    +0.049 A 
ATOM     29  C   UNL     1      -6.734  -6.264   7.156  0.00  0.00    +0.161 A 
ATOM     30  C   UNL     1      -6.953  -4.960   6.724  0.00  0.00    +0.162 A 
ATOM     31  C   UNL     1      -6.328  -4.499   5.576  0.00  0.00    +0.053 A 
BRANCH  30  32
ATOM     32  O   UNL     1      -7.775  -4.138   7.429  0.00  0.00    -0.491 OA
ATOM     33  C   UNL     1      -7.953  -2.812   6.927  0.00  0.00    +0.277 C 
ENDBRANCH  30  32
BRANCH  29  34
ATOM     34  O   UNL     1      -7.341  -6.720   8.284  0.00  0.00    -0.491 OA
ATOM     35  C   UNL     1      -7.070  -8.069   8.668  0.00  0.00    +0.277 C 
ENDBRANCH  29  34
ENDBRANCH  13  26
BRANCH   3  36
ATOM     36  O   UNL     1      -1.694  -5.261  -2.811  0.00  0.00    -0.491 OA
ATOM     37  H   UNL     1      -1.625  -5.653  -3.692  0.00  0.00    +0.294 HD
ENDBRANCH   3  36
TORSDOF 7
