REMARK  Name = ZINC46235320
REMARK  7 active torsions:
REMARK  status: ('A' for Active; 'I' for Inactive)
REMARK    1  A    between atoms: C_1  and  O_2
REMARK    2  A    between atoms: O_2  and  C_3
REMARK    3  A    between atoms: N_5  and  N_6
REMARK    4  A    between atoms: N_9  and  C_10
REMARK    5  A    between atoms: C_10  and  C_11
REMARK    6  A    between atoms: C_11  and  C_13
REMARK    7  A    between atoms: C_11  and  N_20
REMARK                            x       y       z     vdW  Elec       q    Type
REMARK                         _______ _______ _______ _____ _____    ______ ____
ROOT
ATOM      1  C   UNL     1       1.522  -6.545  -2.568  0.00  0.00    +0.105 C 
ENDROOT
BRANCH   1   2
ATOM      2  C   UNL     1       1.595  -8.047  -2.664  0.00  0.00    -0.010 A 
ATOM      3  C   UNL     1       2.385  -8.759  -1.780  0.00  0.00    +0.006 A 
ATOM      4  C   UNL     1       2.451 -10.136  -1.868  0.00  0.00    +0.000 A 
ATOM      5  C   UNL     1       1.729 -10.804  -2.840  0.00  0.00    +0.001 A 
ATOM      6  C   UNL     1       0.939 -10.093  -3.724  0.00  0.00    +0.020 A 
ATOM      7  C   UNL     1       0.867  -8.714  -3.633  0.00  0.00    +0.046 A 
ATOM      8 CL   UNL     1      -0.129  -7.822  -4.739  0.00  0.00    -0.083 Cl
ENDBRANCH   1   2
BRANCH   1   9
ATOM      9  N   UNL     1       2.538  -5.948  -3.446  0.00  0.00    -0.290 NA
ATOM     10  C   UNL     1       3.871  -6.497  -3.158  0.00  0.00    +0.113 C 
ATOM     11  C   UNL     1       4.905  -5.806  -4.052  0.00  0.00    +0.175 C 
ATOM     12  O   UNL     1       4.533  -5.978  -5.422  0.00  0.00    -0.377 OA
ATOM     13  C   UNL     1       3.240  -5.455  -5.738  0.00  0.00    +0.175 C 
ATOM     14  C   UNL     1       2.190  -6.142  -4.862  0.00  0.00    +0.113 C 
ENDBRANCH   1   9
BRANCH   1  15
ATOM     15  C   UNL     1       1.780  -6.113  -1.123  0.00  0.00    +0.129 C 
BRANCH  15  19
ATOM     16  N   UNL     1       2.089  -2.695   0.196  0.00  0.00    -0.216 N 
ATOM     17  C   UNL     1       2.045  -4.040   0.130  0.00  0.00    +0.316 C 
ATOM     18  O   UNL     1       2.201  -4.703   1.137  0.00  0.00    -0.251 OA
ATOM     19  N   UNL     1       1.828  -4.650  -1.052  0.00  0.00    -0.296 N 
ATOM     20  H   UNL     1       2.245  -2.255   1.046  0.00  0.00    +0.174 HD
ATOM     21  H   UNL     1       1.703  -4.121  -1.855  0.00  0.00    +0.150 HD
BRANCH  16  24
ATOM     22  C   UNL     1       1.952  -0.585  -0.899  0.00  0.00    +0.417 C 
ATOM     23  O   UNL     1       1.796   0.078  -1.905  0.00  0.00    -0.225 OA
ATOM     24  N   UNL     1       1.909  -1.930  -0.965  0.00  0.00    -0.198 N 
ATOM     25  H   UNL     1       1.752  -2.370  -1.815  0.00  0.00    +0.176 HD
BRANCH  22  27
ATOM     26  C   UNL     1       2.203   1.453   0.278  0.00  0.00    +0.282 C 
ATOM     27  O   UNL     1       2.169   0.025   0.282  0.00  0.00    -0.453 OA
ENDBRANCH  22  27
ENDBRANCH  16  24
ENDBRANCH  15  19
ENDBRANCH   1  15
TORSDOF 6
