REMARK  Name = ZINC09359964
REMARK  7 active torsions:
REMARK  status: ('A' for Active; 'I' for Inactive)
REMARK    1  A    between atoms: C_1  and  C_2
REMARK    2  A    between atoms: C_2  and  C_3
REMARK    3  A    between atoms: C_2  and  C_4
REMARK    4  A    between atoms: N_5  and  N_6
REMARK    5  A    between atoms: N_17  and  O_18
REMARK    6  A    between atoms: O_18  and  C_19
REMARK    7  A    between atoms: C_19  and  C_20
REMARK                            x       y       z     vdW  Elec       q    Type
REMARK                         _______ _______ _______ _____ _____    ______ ____
ROOT
ATOM      1  N   UNL     1       1.188   1.993   0.001  0.00  0.00    -0.204 N 
ATOM      2  C   UNL     1       1.170   3.366   0.009  0.00  0.00    +0.253 A 
ATOM      3  N   UNL     1       0.010   3.974   0.018  0.00  0.00    -0.212 NA
ATOM      4  C   UNL     1      -0.081   5.325   0.030  0.00  0.00    +0.080 A 
ATOM      5  C   UNL     1      -1.317   5.977   0.045  0.00  0.00    +0.028 A 
ATOM      6  C   UNL     1      -1.362   7.343   0.052  0.00  0.00    +0.002 A 
ATOM      7  C   UNL     1      -0.195   8.095   0.044  0.00  0.00    +0.001 A 
ATOM      8  C   UNL     1       1.030   7.487   0.030  0.00  0.00    +0.015 A 
ATOM      9  C   UNL     1       1.105   6.095   0.023  0.00  0.00    +0.068 A 
ATOM     10  C   UNL     1       2.392   5.386   0.008  0.00  0.00    +0.296 A 
ATOM     11  O   UNL     1       3.447   5.993   0.000  0.00  0.00    -0.264 OA
ATOM     12  N   UNL     1       2.361   4.033   0.001  0.00  0.00    -0.107 N 
ATOM     13  H   UNL     1       2.148   1.456  -0.011  0.00  0.00    +0.177 HD
ENDROOT
BRANCH   1  15
ATOM     14  C   UNL     1       0.002  -0.004   0.002  0.00  0.00    +0.106 C 
ATOM     15  N   UNL     1      -0.015   1.276   0.009  0.00  0.00    -0.192 NA
BRANCH  14  17
ATOM     16  C   UNL     1      -1.374  -1.649  -1.243  0.00  0.00    +0.013 C 
ATOM     17  C   UNL     1      -1.293  -0.775   0.010  0.00  0.00    +0.026 C 
ATOM     18  C   UNL     1      -1.350  -1.663   1.255  0.00  0.00    +0.013 C 
ENDBRANCH  14  17
ENDBRANCH   1  15
BRANCH  12  19
ATOM     19  O   UNL     1       3.574   3.303  -0.014  0.00  0.00    -0.393 OA
BRANCH  19  20
ATOM     20  C   UNL     1       4.060   3.010  -1.326  0.00  0.00    +0.349 C 
BRANCH  20  21
ATOM     21  C   UNL     1       5.318   2.253  -1.226  0.00  0.00    -0.062 C 
ATOM     22  C   UNL     1       6.322   1.650  -1.146  0.00  0.00    +0.007 C 
ENDBRANCH  20  21
ENDBRANCH  19  20
ENDBRANCH  12  19
TORSDOF 5
