REMARK  Name = ZINC09494262
REMARK  5 active torsions:
REMARK  status: ('A' for Active; 'I' for Inactive)
REMARK    1  A    between atoms: C_1  and  C_2
REMARK    2  A    between atoms: C_9  and  N_13
REMARK    3  A    between atoms: C_10  and  C_11
REMARK    4  A    between atoms: C_14  and  C_16
REMARK    5  A    between atoms: C_16  and  N_17
REMARK                            x       y       z     vdW  Elec       q    Type
REMARK                         _______ _______ _______ _____ _____    ______ ____
ROOT
ATOM      1  C   UNL     1       3.581   0.960  -0.027  0.00  0.00    +0.214 C 
ENDROOT
BRANCH   1   2
ATOM      2  N   UNL     1       2.122   0.825  -0.014  0.00  0.00    -0.215 N 
ATOM      3  C   UNL     1       1.470  -0.357  -0.015  0.00  0.00    +0.251 C 
ATOM      4  O   UNL     1       1.958  -1.466  -0.026  0.00  0.00    -0.272 OA
ATOM      5  C   UNL     1       0.002  -0.004   0.002  0.00  0.00    +0.139 C 
ATOM      6  C   UNL     1      -0.681  -0.571   1.237  0.00  0.00    +0.040 C 
ATOM      7  C   UNL     1      -0.784  -2.096   1.128  0.00  0.00    +0.008 C 
ATOM      8  C   UNL     1      -1.786  -2.449   0.018  0.00  0.00    +0.043 C 
ATOM      9  C   UNL     1      -1.464  -1.633  -1.191  0.00  0.00    -0.005 A 
ATOM     10  C   UNL     1      -0.669  -0.528  -1.256  0.00  0.00    -0.005 A 
ATOM     11  C   UNL     1      -0.526   0.062  -2.512  0.00  0.00    +0.014 A 
ATOM     12  C   UNL     1      -1.159  -0.465  -3.585  0.00  0.00    +0.046 A 
ATOM     13  S   UNL     1      -2.012  -1.858  -2.861  0.00  0.00    -0.101 S 
ATOM     14  N   UNL     1      -0.018   1.462   0.010  0.00  0.00    -0.281 N 
ATOM     15  C   UNL     1       1.270   1.858  -0.000  0.00  0.00    +0.310 C 
ATOM     16  O   UNL     1       1.619   3.022   0.003  0.00  0.00    -0.252 OA
ATOM     17  H   UNL     1      -0.802   2.033   0.017  0.00  0.00    +0.152 HD
ENDBRANCH   1   2
BRANCH   1  19
ATOM     18  N   UNL     1       5.384   1.139  -1.711  0.00  0.00    -0.278 N 
ATOM     19  C   UNL     1       4.067   1.015  -1.453  0.00  0.00    +0.236 C 
ATOM     20  O   UNL     1       3.273   0.947  -2.367  0.00  0.00    -0.274 OA
ATOM     21  H   UNL     1       6.019   1.192  -0.980  0.00  0.00    +0.155 HD
BRANCH  18  29
ATOM     22  C   UNL     1       7.489   1.483  -9.238  0.00  0.00    +0.008 C 
ATOM     23  C   UNL     1       7.442   1.752  -7.733  0.00  0.00    -0.009 C 
ATOM     24  C   UNL     1       8.591   1.014  -7.040  0.00  0.00    +0.008 C 
ATOM     25  C   UNL     1       8.703   1.472  -5.585  0.00  0.00    +0.037 C 
ATOM     26  C   UNL     1       7.336   1.341  -4.924  0.00  0.00    -0.018 A 
ATOM     27  C   UNL     1       6.211   1.243  -5.666  0.00  0.00    -0.004 A 
ATOM     28  S   UNL     1       4.900   1.113  -4.483  0.00  0.00    -0.077 S 
ATOM     29  C   UNL     1       5.832   1.189  -3.024  0.00  0.00    +0.090 A 
ATOM     30  C   UNL     1       7.133   1.318  -3.486  0.00  0.00    +0.084 A 
ATOM     31  C   UNL     1       6.111   1.245  -7.160  0.00  0.00    +0.046 C 
BRANCH  30  32
ATOM     32  C   UNL     1       8.236   1.421  -2.579  0.00  0.00    +0.102 C 
ATOM     33  N   UNL     1       9.111   1.503  -1.859  0.00  0.00    -0.191 NA
ENDBRANCH  30  32
ENDBRANCH  18  29
ENDBRANCH   1  19
TORSDOF 4
