REMARK  Name = ZINC50351765
REMARK  8 active torsions:
REMARK  status: ('A' for Active; 'I' for Inactive)
REMARK    1  A    between atoms: C_1  and  C_2
REMARK    2  A    between atoms: C_2  and  C_3
REMARK    3  A    between atoms: C_3  and  C_4
REMARK    4  A    between atoms: C_3  and  C_5
REMARK    5  A    between atoms: C_3  and  N_9
REMARK    6  A    between atoms: N_6  and  O_7
REMARK    7  A    between atoms: N_9  and  S_10
REMARK    8  A    between atoms: S_10  and  C_13
REMARK                            x       y       z     vdW  Elec       q    Type
REMARK                         _______ _______ _______ _____ _____    ______ ____
ROOT
ATOM      1  N   UNL     1      -1.963  -0.432  -1.296  0.00  0.00    -0.181 NA
ATOM      2  H   UNL     1      -2.758   0.083  -1.083  0.00  0.00    +0.149 HD
ENDROOT
BRANCH   1   3
ATOM      3  S   UNL     1      -1.673  -0.898  -2.858  0.00  0.00    +0.033 S 
ATOM      4  O   UNL     1      -1.201  -2.235  -2.756  0.00  0.00    -0.158 OA
ATOM      5  O   UNL     1      -2.878  -0.607  -3.553  0.00  0.00    -0.158 OA
BRANCH   3   6
ATOM      6  C   UNL     1      -0.342   0.193  -3.431  0.00  0.00    +0.151 C 
ATOM      7  C   UNL     1      -0.797   1.644  -3.315  0.00  0.00    +0.050 C 
ATOM      8  C   UNL     1       0.392   2.584  -3.533  0.00  0.00    +0.168 C 
ATOM      9  S   UNL     1       1.016   2.358  -5.225  0.00  0.00    -0.031 S 
ATOM     10  O   UNL     1       2.273   3.013  -5.334  0.00  0.00    -0.174 OA
ATOM     11  O   UNL     1      -0.021   2.693  -6.138  0.00  0.00    -0.174 OA
ATOM     12  C   UNL     1       1.292   0.563  -5.291  0.00  0.00    +0.168 C 
ATOM     13  C   UNL     1       0.003  -0.151  -4.877  0.00  0.00    +0.050 C 
ENDBRANCH   3   6
ENDBRANCH   1   3
BRANCH   1  14
ATOM     14  C   UNL     1      -1.021  -0.797  -0.235  0.00  0.00    +0.095 C 
ATOM     15  C   UNL     1      -1.091  -2.305   0.013  0.00  0.00    +0.037 C 
BRANCH  14  16
ATOM     16  C   UNL     1      -1.380  -0.062   1.030  0.00  0.00    +0.153 C 
ATOM     17  N   UNL     1      -1.660  -0.723   2.104  0.00  0.00    -0.075 NA
ATOM     18  N   UNL     1      -1.409   1.315   1.042  0.00  0.00    -0.342 N 
ATOM     19  H   UNL     1      -1.273   1.810   0.220  0.00  0.00    +0.144 HD
ATOM     20  H   UNL     1      -1.567   1.790   1.874  0.00  0.00    +0.144 HD
BRANCH  17  21
ATOM     21  O   UNL     1      -1.997  -0.033   3.293  0.00  0.00    -0.408 OA
ATOM     22  H   UNL     1      -2.190  -0.612   4.043  0.00  0.00    +0.328 HD
ENDBRANCH  17  21
ENDBRANCH  14  16
BRANCH  14  24
ATOM     23  C   UNL     1       1.362  -0.657   0.502  0.00  0.00    +0.006 C 
ATOM     24  C   UNL     1       0.398  -0.416  -0.661  0.00  0.00    +0.028 C 
ENDBRANCH  14  24
ENDBRANCH   1  14
TORSDOF 6
