REMARK  Name = ZINC03339985
REMARK  7 active torsions:
REMARK  status: ('A' for Active; 'I' for Inactive)
REMARK    1  A    between atoms: C_1  and  C_2
REMARK    2  A    between atoms: C_2  and  C_3
REMARK    3  A    between atoms: C_2  and  C_4
REMARK    4  A    between atoms: C_4  and  C_6
REMARK    5  A    between atoms: C_4  and  N_25
REMARK    6  A    between atoms: N_8  and  C_9
REMARK    7  A    between atoms: C_12  and  C_15
REMARK                            x       y       z     vdW  Elec       q    Type
REMARK                         _______ _______ _______ _____ _____    ______ ____
ROOT
ATOM      1  C   UNL     1       0.427  -1.822   1.594  0.00  0.00    +0.033 A 
ATOM      2  C   UNL     1      -0.143  -2.650   0.634  0.00  0.00    +0.024 A 
ATOM      3  C   UNL     1      -0.151  -4.016   0.818  0.00  0.00    +0.013 A 
ATOM      4  C   UNL     1       0.403  -4.566   1.975  0.00  0.00    +0.019 A 
ATOM      5  C   UNL     1       0.970  -3.731   2.940  0.00  0.00    +0.013 A 
ATOM      6  C   UNL     1       0.980  -2.367   2.748  0.00  0.00    +0.024 A 
ENDROOT
BRANCH   4   7
ATOM      7  C   UNL     1       0.392  -6.031   2.178  0.00  0.00    +0.164 A 
ATOM      8  N   UNL     1       1.140  -6.713   3.019  0.00  0.00    -0.129 NA
ATOM      9  N   UNL     1       0.857  -7.966   2.936  0.00  0.00    -0.134 NA
ATOM     10  C   UNL     1      -0.074  -8.153   2.042  0.00  0.00    +0.134 A 
ATOM     11  N   UNL     1      -0.393  -6.937   1.525  0.00  0.00    -0.311 N 
ATOM     12  C   UNL     1      -1.372  -6.668   0.472  0.00  0.00    +0.125 C 
ATOM     13  C   UNL     1      -2.459  -7.747   0.503  0.00  0.00    +0.022 C 
ATOM     14  C   UNL     1      -2.048  -8.918  -0.389  0.00  0.00    +0.002 C 
ATOM     15  C   UNL     1      -0.756  -9.551   0.118  0.00  0.00    +0.008 C 
ATOM     16  C   UNL     1      -0.705  -9.463   1.646  0.00  0.00    +0.076 C 
ENDBRANCH   4   7
BRANCH   1  19
ATOM     17  C   UNL     1       0.601   0.070   0.164  0.00  0.00    +0.238 C 
ATOM     18  O   UNL     1       0.644  -0.672  -0.794  0.00  0.00    -0.273 OA
ATOM     19  N   UNL     1       0.439  -0.437   1.402  0.00  0.00    -0.284 N 
ATOM     20  H   UNL     1       0.330   0.158   2.160  0.00  0.00    +0.155 HD
BRANCH  17  21
ATOM     21  C   UNL     1       0.727   1.559  -0.030  0.00  0.00    +0.163 C 
BRANCH  21  22
ATOM     22  N   UNL     1       1.314   1.832  -1.344  0.00  0.00    -0.288 N 
ATOM     23  C   UNL     1       1.980   2.984  -1.558  0.00  0.00    +0.298 C 
ATOM     24  O   UNL     1       2.093   3.797  -0.661  0.00  0.00    -0.253 OA
ATOM     25  N   UNL     1       2.520   3.236  -2.767  0.00  0.00    -0.313 N 
ATOM     26  H   UNL     1       1.224   1.184  -2.060  0.00  0.00    +0.151 HD
ATOM     27  H   UNL     1       2.429   2.588  -3.483  0.00  0.00    +0.146 HD
ATOM     28  H   UNL     1       2.999   4.065  -2.921  0.00  0.00    +0.146 HD
ENDBRANCH  21  22
BRANCH  21  30
ATOM     29  C   UNL     1      -1.225   2.013   1.463  0.00  0.00    +0.009 C 
ATOM     30  C   UNL     1      -0.658   2.204   0.054  0.00  0.00    +0.012 C 
ATOM     31  C   UNL     1      -0.544   3.698  -0.252  0.00  0.00    +0.009 C 
ENDBRANCH  21  30
ENDBRANCH  17  21
ENDBRANCH   1  19
TORSDOF 5
