REMARK  Name = ZINC41196788
REMARK  4 active torsions:
REMARK  status: ('A' for Active; 'I' for Inactive)
REMARK    1  A    between atoms: C_9  and  N_11
REMARK    2  A    between atoms: C_12  and  C_14
REMARK    3  A    between atoms: N_16  and  C_17
REMARK    4  A    between atoms: C_20  and  C_24
REMARK                            x       y       z     vdW  Elec       q    Type
REMARK                         _______ _______ _______ _____ _____    ______ ____
ROOT
ATOM      1  N   UNL     1       4.150  -1.060   1.300  0.00  0.00    -0.301 N 
ATOM      2  C   UNL     1       5.094  -0.186   1.702  0.00  0.00    +0.300 C 
ATOM      3  O   UNL     1       5.468   0.691   0.951  0.00  0.00    -0.265 OA
ATOM      4  H   UNL     1       3.851  -1.761   1.900  0.00  0.00    +0.150 HD
ENDROOT
BRANCH   1  13
ATOM      5  C   UNL     1       0.002   1.385  -0.025  0.00  0.00    +0.000 A 
ATOM      6  C   UNL     1       1.194   2.086  -0.031  0.00  0.00    +0.000 A 
ATOM      7  C   UNL     1       2.395   1.404  -0.037  0.00  0.00    +0.006 A 
ATOM      8  C   UNL     1       2.410   0.019  -0.036  0.00  0.00    -0.024 A 
ATOM      9  C   UNL     1       1.218  -0.682  -0.030  0.00  0.00    -0.042 A 
ATOM     10  C   UNL     1       0.015   0.004  -0.024  0.00  0.00    +0.004 A 
ATOM     11  C   UNL     1       1.500  -2.169  -0.032  0.00  0.00    +0.037 C 
ATOM     12  C   UNL     1       2.971  -2.301  -0.480  0.00  0.00    +0.032 C 
ATOM     13  C   UNL     1       3.573  -0.949  -0.042  0.00  0.00    +0.104 C 
ENDBRANCH   1  13
BRANCH   2  14
ATOM     14  C   UNL     1       5.682  -0.299   3.070  0.00  0.00    +0.303 C 
ATOM     15  O   UNL     1       5.309  -1.177   3.821  0.00  0.00    -0.265 OA
ATOM     16  N   UNL     1       6.627   0.574   3.472  0.00  0.00    -0.278 N 
ATOM     17  H   UNL     1       6.973   1.234   2.851  0.00  0.00    +0.155 HD
BRANCH  16  18
ATOM     18  C   UNL     1       7.106   0.529   4.780  0.00  0.00    +0.035 A 
ATOM     19  C   UNL     1       7.242  -0.695   5.428  0.00  0.00    +0.024 A 
ATOM     20  C   UNL     1       7.715  -0.744   6.719  0.00  0.00    +0.022 A 
ATOM     21  C   UNL     1       8.060   0.439   7.381  0.00  0.00    +0.070 A 
ATOM     22  C   UNL     1       7.922   1.668   6.728  0.00  0.00    +0.060 A 
ATOM     23  C   UNL     1       7.452   1.708   5.432  0.00  0.00    +0.044 A 
ATOM     24 CL   UNL     1       8.347   3.139   7.544  0.00  0.00    -0.082 Cl
BRANCH  21  25
ATOM     25  C   UNL     1       8.552   0.392   8.725  0.00  0.00    +0.101 C 
ATOM     26  N   UNL     1       8.942   0.354   9.792  0.00  0.00    -0.191 NA
ENDBRANCH  21  25
ENDBRANCH  16  18
ENDBRANCH   2  14
TORSDOF 4
