REMARK  Name = ZINC03886370
REMARK  6 active torsions:
REMARK  status: ('A' for Active; 'I' for Inactive)
REMARK    1  A    between atoms: C_1  and  C_2
REMARK    2  A    between atoms: C_2  and  C_22
REMARK    3  A    between atoms: C_4  and  C_14
REMARK    4  A    between atoms: C_9  and  N_13
REMARK    5  A    between atoms: C_10  and  C_11
REMARK    6  A    between atoms: C_15  and  C_16
REMARK                            x       y       z     vdW  Elec       q    Type
REMARK                         _______ _______ _______ _____ _____    ______ ____
ROOT
ATOM      1  C   UNL     1       8.397   4.000  -0.273  0.00  0.00    +0.017 C 
ATOM      2  C   UNL     1       7.012   4.541  -0.635  0.00  0.00    +0.001 C 
ATOM      3  C   UNL     1       5.936   3.709   0.069  0.00  0.00    +0.046 C 
ATOM      4  C   UNL     1       4.611   4.413   0.088  0.00  0.00    -0.046 C 
ATOM      5  C   UNL     1       4.483   5.754   0.191  0.00  0.00    +0.013 C 
ATOM      6  C   UNL     1       5.724   6.569   0.203  0.00  0.00    +0.005 A 
ATOM      7  C   UNL     1       6.896   5.960  -0.182  0.00  0.00    +0.006 A 
ATOM      8  S   UNL     1       8.129   7.213  -0.013  0.00  0.00    -0.077 S 
ATOM      9  C   UNL     1       7.092   8.550   0.556  0.00  0.00    +0.081 A 
ATOM     10  C   UNL     1       5.831   7.966   0.595  0.00  0.00    +0.087 A 
ATOM     11  C   UNL     1       6.811   4.465  -2.150  0.00  0.00    +0.017 C 
ENDROOT
BRANCH   9  12
ATOM     12  N   UNL     1       7.454   9.845   0.879  0.00  0.00    -0.352 N 
ATOM     13  H   UNL     1       8.380  10.122   0.806  0.00  0.00    +0.143 HD
ATOM     14  H   UNL     1       6.781  10.476   1.179  0.00  0.00    +0.143 HD
ENDBRANCH   9  12
BRANCH  10  15
ATOM     15  C   UNL     1       4.680   8.713   1.006  0.00  0.00    +0.102 C 
ATOM     16  N   UNL     1       3.767   9.305   1.332  0.00  0.00    -0.191 NA
ENDBRANCH  10  15
BRANCH   4  17
ATOM     17  C   UNL     1       3.436   3.633  -0.011  0.00  0.00    +0.006 C 
ATOM     18  C   UNL     1       3.517   2.284  -0.003  0.00  0.00    +0.028 C 
BRANCH  18  19
ATOM     19  C   UNL     1       2.291   1.474   0.002  0.00  0.00    +0.064 A 
ATOM     20  C   UNL     1       2.381   0.077   0.010  0.00  0.00    +0.028 A 
ATOM     21  C   UNL     1       1.218  -0.670   0.014  0.00  0.00    +0.004 A 
ATOM     22  C   UNL     1      -0.000  -0.002   0.010  0.00  0.00    +0.020 A 
ATOM     23  C   UNL     1      -0.018   1.381   0.002  0.00  0.00    +0.111 A 
ATOM     24  N   UNL     1       1.103   2.073  -0.002  0.00  0.00    -0.256 NA
ENDBRANCH  18  19
ENDBRANCH   4  17
TORSDOF 4
