REMARK  Name = ZINC54420567
REMARK  10 active torsions:
REMARK  status: ('A' for Active; 'I' for Inactive)
REMARK    1  A    between atoms: C_1  and  C_2
REMARK    2  A    between atoms: C_10  and  C_11
REMARK    3  A    between atoms: N_13  and  N_14
REMARK    4  A    between atoms: N_17  and  C_18
REMARK    5  A    between atoms: N_17  and  C_19
REMARK    6  A    between atoms: C_19  and  C_20
REMARK    7  A    between atoms: N_22  and  C_23
REMARK    8  A    between atoms: C_23  and  C_24
REMARK    9  A    between atoms: C_23  and  C_25
REMARK   10  A    between atoms: C_23  and  C_26
REMARK                            x       y       z     vdW  Elec       q    Type
REMARK                         _______ _______ _______ _____ _____    ______ ____
ROOT
ATOM      1  N   UNL     1       0.075  -0.866   4.814  0.00  0.00    -0.218 N 
ATOM      2  C   UNL     1       0.191  -1.773   5.804  0.00  0.00    +0.319 C 
ATOM      3  O   UNL     1       0.196  -1.410   6.965  0.00  0.00    -0.251 OA
ATOM      4  N   UNL     1       0.302  -3.083   5.508  0.00  0.00    -0.279 N 
ATOM      5  C   UNL     1       0.404  -3.512   4.111  0.00  0.00    +0.134 C 
ATOM      6  H   UNL     1      -0.002  -1.160   3.893  0.00  0.00    +0.174 HD
ENDROOT
BRANCH   1   9
ATOM      7  C   UNL     1       0.051   1.412   4.121  0.00  0.00    +0.296 C 
ATOM      8  O   UNL     1       0.047   1.045   2.962  0.00  0.00    -0.265 OA
ATOM      9  N   UNL     1       0.066   0.503   5.116  0.00  0.00    -0.227 N 
ATOM     10  H   UNL     1       0.069   0.795   6.041  0.00  0.00    +0.173 HD
BRANCH   7  20
ATOM     11  C   UNL     1       0.018   3.705   2.021  0.00  0.00    +0.048 C 
ATOM     12  C   UNL     1       0.027   3.849   3.521  0.00  0.00    +0.008 A 
ATOM     13  C   UNL     1       0.015   5.096   4.285  0.00  0.00    +0.024 A 
ATOM     14  C   UNL     1      -0.006   6.450   3.940  0.00  0.00    +0.012 A 
ATOM     15  C   UNL     1      -0.012   7.399   4.922  0.00  0.00    +0.001 A 
ATOM     16  C   UNL     1       0.003   7.028   6.260  0.00  0.00    +0.004 A 
ATOM     17  C   UNL     1       0.024   5.699   6.621  0.00  0.00    +0.047 A 
ATOM     18  C   UNL     1       0.030   4.714   5.639  0.00  0.00    +0.136 A 
ATOM     19  O   UNL     1       0.049   3.368   5.683  0.00  0.00    -0.450 OA
ATOM     20  C   UNL     1       0.042   2.847   4.438  0.00  0.00    +0.195 A 
ENDBRANCH   7  20
ENDBRANCH   1   9
BRANCH   4  21
ATOM     21  C   UNL     1       0.320  -4.078   6.582  0.00  0.00    +0.204 C 
BRANCH  21  22
ATOM     22  C   UNL     1      -1.089  -4.523   6.879  0.00  0.00    +0.231 C 
ATOM     23  O   UNL     1      -2.017  -4.054   6.254  0.00  0.00    -0.274 OA
ATOM     24  N   UNL     1      -1.318  -5.441   7.839  0.00  0.00    -0.309 N 
ATOM     25  H   UNL     1      -0.576  -5.816   8.339  0.00  0.00    +0.149 HD
BRANCH  24  26
ATOM     26  C   UNL     1      -2.688  -5.873   8.127  0.00  0.00    +0.026 C 
ATOM     27  C   UNL     1      -3.303  -6.491   6.870  0.00  0.00    +0.031 C 
ATOM     28  C   UNL     1      -2.669  -6.913   9.250  0.00  0.00    +0.031 C 
ATOM     29  C   UNL     1      -3.522  -4.667   8.563  0.00  0.00    +0.031 C 
ENDBRANCH  24  26
ENDBRANCH  21  22
ENDBRANCH   4  21
TORSDOF 5
