REMARK  Name = ZINC25367797
REMARK  4 active torsions:
REMARK  status: ('A' for Active; 'I' for Inactive)
REMARK    1  A    between atoms: C_1  and  C_2
REMARK    2  A    between atoms: C_5  and  S_9
REMARK    3  A    between atoms: S_9  and  N_12
REMARK    4  A    between atoms: N_12  and  C_13
REMARK                            x       y       z     vdW  Elec       q    Type
REMARK                         _______ _______ _______ _____ _____    ______ ____
ROOT
ATOM      1  N   UNL     1       1.505  -5.006   0.633  0.00  0.00    -0.098 NA
ENDROOT
BRANCH   1   2
ATOM      2  C   UNL     1       1.804  -6.368   0.754  0.00  0.00    +0.076 A 
ATOM      3  C   UNL     1       0.891  -7.319   0.316  0.00  0.00    +0.028 A 
ATOM      4  C   UNL     1       1.188  -8.664   0.434  0.00  0.00    +0.018 A 
ATOM      5  C   UNL     1       2.393  -9.060   0.989  0.00  0.00    +0.030 A 
ATOM      6  C   UNL     1       3.316  -8.114   1.436  0.00  0.00    +0.049 A 
ATOM      7  C   UNL     1       3.014  -6.763   1.306  0.00  0.00    +0.051 A 
ATOM      8  N   UNL     1       4.528  -8.492   2.007  0.00  0.00    -0.284 N 
ATOM      9  C   UNL     1       5.144  -9.659   1.846  0.00  0.00    +0.227 C 
ATOM     10  O   UNL     1       6.207  -9.829   2.406  0.00  0.00    -0.275 OA
ATOM     11  C   UNL     1       4.595 -10.782   1.008  0.00  0.00    +0.170 C 
ATOM     12  S   UNL     1       2.781 -10.776   1.139  0.00  0.00    -0.114 S 
ATOM     13  H   UNL     1       4.966  -7.840   2.576  0.00  0.00    +0.155 HD
ENDBRANCH   1   2
BRANCH   1  14
ATOM     14  S   UNL     1       0.062  -4.531  -0.026  0.00  0.00    +0.093 S 
ATOM     15  O   UNL     1      -0.954  -4.956   0.872  0.00  0.00    -0.148 OA
ATOM     16  O   UNL     1       0.088  -4.928  -1.390  0.00  0.00    -0.148 OA
BRANCH  14  21
ATOM     17  C   UNL     1      -0.018   1.503   0.010  0.00  0.00    +0.044 C 
ATOM     18  C   UNL     1       0.002  -0.004   0.002  0.00  0.00    -0.049 A 
ATOM     19  C   UNL     1       0.006  -0.689  -1.199  0.00  0.00    +0.005 A 
ATOM     20  C   UNL     1       0.025  -2.071  -1.208  0.00  0.00    +0.030 A 
ATOM     21  C   UNL     1       0.039  -2.769  -0.015  0.00  0.00    +0.129 A 
ATOM     22  C   UNL     1       0.035  -2.085   1.187  0.00  0.00    +0.068 A 
ATOM     23  C   UNL     1       0.023  -0.701   1.195  0.00  0.00    +0.025 A 
ATOM     24 CL   UNL     1       0.054  -2.962   2.686  0.00  0.00    -0.082 Cl
ENDBRANCH  14  21
ENDBRANCH   1  14
TORSDOF 3
