REMARK  Name = ZINC30826407
REMARK  4 active torsions:
REMARK  status: ('A' for Active; 'I' for Inactive)
REMARK    1  A    between atoms: C_5  and  C_7
REMARK    2  A    between atoms: N_9  and  C_10
REMARK    3  A    between atoms: C_10  and  N_12
REMARK    4  A    between atoms: N_12  and  C_13
REMARK                            x       y       z     vdW  Elec       q    Type
REMARK                         _______ _______ _______ _____ _____    ______ ____
ROOT
ATOM      1  C   UNL     1      -1.091  -6.288   0.039  0.00  0.00    +0.036 C 
ATOM      2  C   UNL     1       0.078  -7.022   0.114  0.00  0.00    +0.074 C 
ATOM      3  C   UNL     1       0.021  -8.418   0.169  0.00  0.00    +0.193 C 
ATOM      4  O   UNL     1       1.052  -9.078   0.236  0.00  0.00    -0.287 OA
ATOM      5  C   UNL     1      -1.243  -9.063   0.148  0.00  0.00    +0.079 C 
ATOM      6  C   UNL     1      -1.324 -10.471   0.203  0.00  0.00    +0.203 C 
ATOM      7  N   UNL     1      -0.270 -11.309   0.283  0.00  0.00    -0.267 N 
ATOM      8  C   UNL     1      -0.764 -12.605   0.317  0.00  0.00    +0.168 A 
ATOM      9  C   UNL     1      -2.156 -12.498   0.253  0.00  0.00    +0.170 A 
ATOM     10  C   UNL     1      -2.925 -13.653   0.268  0.00  0.00    +0.051 A 
ATOM     11  C   UNL     1      -2.275 -14.875   0.346  0.00  0.00    +0.023 A 
ATOM     12  C   UNL     1      -0.893 -14.905   0.407  0.00  0.00    +0.113 A 
ATOM     13  N   UNL     1      -0.186 -13.793   0.391  0.00  0.00    -0.237 NA
ATOM     14  O   UNL     1      -2.459 -11.181   0.190  0.00  0.00    -0.438 OA
ATOM     15  C   UNL     1      -2.413  -8.289   0.071  0.00  0.00    +0.018 C 
ATOM     16  C   UNL     1      -2.333  -6.932   0.024  0.00  0.00    +0.024 C 
ATOM     17  H   UNL     1       0.665 -11.052   0.312  0.00  0.00    +0.157 HD
ENDROOT
BRANCH   1  18
ATOM     18  N   UNL     1      -1.033  -4.898  -0.015  0.00  0.00    -0.296 N 
ATOM     19  H   UNL     1      -0.602  -4.402   0.699  0.00  0.00    +0.154 HD
BRANCH  18  20
ATOM     20  C   UNL     1      -1.576  -4.241  -1.059  0.00  0.00    +0.141 C 
ATOM     21  S   UNL     1      -2.220  -5.118  -2.381  0.00  0.00    -0.018 S 
BRANCH  20  24
ATOM     22  C   UNL     1      -2.154  -2.237  -2.107  0.00  0.00    +0.252 C 
ATOM     23  O   UNL     1      -2.611  -2.860  -3.046  0.00  0.00    -0.270 OA
ATOM     24  N   UNL     1      -1.611  -2.894  -1.063  0.00  0.00    -0.263 N 
ATOM     25  H   UNL     1      -1.246  -2.397  -0.314  0.00  0.00    +0.157 HD
BRANCH  22  30
ATOM     26  C   UNL     1      -1.708   1.336  -1.045  0.00  0.00    +0.001 A 
ATOM     27  C   UNL     1      -2.267   2.009  -2.118  0.00  0.00    +0.003 A 
ATOM     28  C   UNL     1      -2.788   1.307  -3.188  0.00  0.00    +0.039 A 
ATOM     29  C   UNL     1      -2.755  -0.076  -3.193  0.00  0.00    +0.135 A 
ATOM     30  C   UNL     1      -2.193  -0.761  -2.111  0.00  0.00    +0.072 A 
ATOM     31  C   UNL     1      -1.669  -0.042  -1.035  0.00  0.00    +0.016 A 
ATOM     32  F   UNL     1      -3.265  -0.762  -4.239  0.00  0.00    -0.205 F 
ENDBRANCH  22  30
ENDBRANCH  20  24
ENDBRANCH  18  20
ENDBRANCH   1  18
TORSDOF 4
