REMARK  Name = ZINC36586637
REMARK  14 active torsions:
REMARK  status: ('A' for Active; 'I' for Inactive)
REMARK    1  A    between atoms: C_1  and  C_2
REMARK    2  A    between atoms: C_2  and  C_3
REMARK    3  A    between atoms: C_2  and  C_4
REMARK    4  A    between atoms: C_2  and  N_5
REMARK    5  A    between atoms: C_6  and  C_8
REMARK    6  A    between atoms: C_8  and  C_10
REMARK    7  A    between atoms: C_8  and  N_24
REMARK    8  A    between atoms: N_24  and  C_35
REMARK    9  A    between atoms: C_25  and  C_27
REMARK   10  A    between atoms: C_28  and  O_34
REMARK   11  A    between atoms: C_32  and  O_33
REMARK   12  A    between atoms: C_35  and  C_36
REMARK   13  A    between atoms: C_35  and  C_37
REMARK   14  A    between atoms: C_35  and  C_38
REMARK                            x       y       z     vdW  Elec       q    Type
REMARK                         _______ _______ _______ _____ _____    ______ ____
ROOT
ATOM      1  C   UNL     1       2.514  -1.572  -2.663  0.00  0.00    +0.194 C 
ENDROOT
BRANCH   1   2
ATOM      2  C   UNL     1       2.252  -2.325  -3.941  0.00  0.00    -0.010 A 
ATOM      3  C   UNL     1       1.375  -1.822  -4.835  0.00  0.00    +0.015 A 
ATOM      4  C   UNL     1       1.095  -2.491  -6.049  0.00  0.00    -0.017 A 
ATOM      5  C   UNL     1       0.182  -1.960  -6.971  0.00  0.00    +0.008 A 
ATOM      6  C   UNL     1      -0.069  -2.627  -8.135  0.00  0.00    +0.001 A 
ATOM      7  C   UNL     1       0.568  -3.829  -8.421  0.00  0.00    +0.001 A 
ATOM      8  C   UNL     1       1.462  -4.372  -7.543  0.00  0.00    +0.009 A 
ATOM      9  C   UNL     1       1.740  -3.713  -6.344  0.00  0.00    -0.010 A 
ATOM     10  C   UNL     1       2.692  -4.260  -5.373  0.00  0.00    -0.010 A 
ATOM     11  C   UNL     1       2.934  -3.540  -4.181  0.00  0.00    -0.012 A 
ATOM     12  C   UNL     1       3.847  -4.051  -3.248  0.00  0.00    +0.009 A 
ATOM     13  C   UNL     1       4.491  -5.226  -3.504  0.00  0.00    +0.001 A 
ATOM     14  C   UNL     1       4.255  -5.928  -4.681  0.00  0.00    +0.001 A 
ATOM     15  C   UNL     1       3.362  -5.462  -5.604  0.00  0.00    +0.009 A 
ENDBRANCH   1   2
BRANCH   1  17
ATOM     16  N   UNL     1       0.216  -0.828  -2.128  0.00  0.00    -0.309 N 
ATOM     17  C   UNL     1       1.472  -0.497  -2.490  0.00  0.00    +0.239 C 
ATOM     18  O   UNL     1       1.763   0.666  -2.675  0.00  0.00    -0.273 OA
ATOM     19  H   UNL     1      -0.036  -1.761  -2.052  0.00  0.00    +0.149 HD
BRANCH  16  21
ATOM     20  C   UNL     1      -0.957   1.086  -3.099  0.00  0.00    +0.031 C 
ATOM     21  C   UNL     1      -0.767   0.222  -1.851  0.00  0.00    +0.026 C 
ATOM     22  C   UNL     1      -0.268   1.096  -0.698  0.00  0.00    +0.031 C 
ATOM     23  C   UNL     1      -2.102  -0.418  -1.466  0.00  0.00    +0.031 C 
ENDBRANCH  16  21
ENDBRANCH   1  17
BRANCH   1  24
ATOM     24  N   UNL     1       3.843  -0.958  -2.721  0.00  0.00    -0.277 N 
ATOM     25  C   UNL     1       4.240  -0.315  -3.837  0.00  0.00    +0.255 C 
ATOM     26  O   UNL     1       3.468  -0.178  -4.767  0.00  0.00    -0.270 OA
BRANCH  25  27
ATOM     27  C   UNL     1       5.607   0.222  -3.931  0.00  0.00    +0.119 A 
ATOM     28  C   UNL     1       6.643  -0.569  -4.450  0.00  0.00    +0.133 A 
ATOM     29  C   UNL     1       7.926  -0.053  -4.534  0.00  0.00    +0.046 A 
ATOM     30  C   UNL     1       8.188   1.236  -4.108  0.00  0.00    +0.007 A 
ATOM     31  C   UNL     1       7.175   2.024  -3.594  0.00  0.00    +0.046 A 
ATOM     32  C   UNL     1       5.883   1.530  -3.506  0.00  0.00    +0.133 A 
BRANCH  32  33
ATOM     33  O   UNL     1       4.890   2.307  -3.007  0.00  0.00    -0.506 OA
ATOM     34  H   UNL     1       4.775   2.232  -2.049  0.00  0.00    +0.292 HD
ENDBRANCH  32  33
BRANCH  28  35
ATOM     35  O   UNL     1       6.389  -1.834  -4.869  0.00  0.00    -0.506 OA
ATOM     36  H   UNL     1       6.140  -1.897  -5.801  0.00  0.00    +0.292 HD
ENDBRANCH  28  35
ENDBRANCH  25  27
BRANCH  24  37
ATOM     37  C   UNL     1       4.741  -1.044  -1.567  0.00  0.00    +0.030 C 
ATOM     38  C   UNL     1       4.094  -1.905  -0.480  0.00  0.00    +0.031 C 
ATOM     39  C   UNL     1       6.066  -1.676  -1.997  0.00  0.00    +0.031 C 
ATOM     40  C   UNL     1       5.000   0.360  -1.017  0.00  0.00    +0.031 C 
ENDBRANCH  24  37
ENDBRANCH   1  24
TORSDOF 8
