REMARK  Name = ZINC49851733
REMARK  6 active torsions:
REMARK  status: ('A' for Active; 'I' for Inactive)
REMARK    1  A    between atoms: C_1  and  C_2
REMARK    2  A    between atoms: C_2  and  C_3
REMARK    3  A    between atoms: C_6  and  C_8
REMARK    4  A    between atoms: C_10  and  C_13
REMARK    5  A    between atoms: C_13  and  N_21
REMARK    6  A    between atoms: C_17  and  C_20
REMARK                            x       y       z     vdW  Elec       q    Type
REMARK                         _______ _______ _______ _____ _____    ______ ____
ROOT
ATOM      1  C   UNL     1       1.669  -1.772  -4.995  0.00  0.00    +0.265 A 
ATOM      2  N   UNL     1       0.704  -1.875  -5.887  0.00  0.00    -0.193 NA
ATOM      3  C   UNL     1       1.202  -2.305  -7.047  0.00  0.00    +0.161 A 
ATOM      4  N   UNL     1       2.487  -2.485  -6.922  0.00  0.00    -0.062 NA
ATOM      5  O   UNL     1       2.821  -2.138  -5.586  0.00  0.00    -0.332 OA
ENDROOT
BRANCH   3   6
ATOM      6  C   UNL     1       0.399  -2.548  -8.314  0.00  0.00    -0.006 C 
ATOM      7  C   UNL     1      -0.676  -3.583  -7.997  0.00  0.00    -0.005 C 
ATOM      8  C   UNL     1      -1.413  -3.992  -9.271  0.00  0.00    -0.001 C 
ATOM      9  C   UNL     1      -0.420  -4.634 -10.236  0.00  0.00    +0.003 C 
ATOM     10  C   UNL     1       0.686  -3.655 -10.607  0.00  0.00    -0.015 C 
ATOM     11  C   UNL     1       1.351  -3.031  -9.395  0.00  0.00    -0.002 C 
ATOM     12  C   UNL     1       0.162  -2.591 -11.571  0.00  0.00    +0.007 C 
BRANCH   6  13
ATOM     13  N   UNL     1      -0.228  -1.274  -8.693  0.00  0.00    +0.387 N 
ATOM     14  H   UNL     1       0.489  -0.582  -8.858  0.00  0.00    -0.089 HD
ATOM     15  H   UNL     1      -0.770  -1.403  -9.534  0.00  0.00    -0.089 HD
ATOM     16  H   UNL     1      -0.832  -0.961  -7.948  0.00  0.00    -0.089 HD
ENDBRANCH   6  13
ENDBRANCH   3   6
BRANCH   1  20
ATOM     17  C   UNL     1       0.707  -0.490  -1.238  0.00  0.00    -0.010 A 
ATOM     18  C   UNL     1       2.026  -0.754  -1.395  0.00  0.00    +0.012 A 
ATOM     19  C   UNL     1       2.479  -1.194  -2.618  0.00  0.00    +0.021 A 
ATOM     20  C   UNL     1       1.515  -1.330  -3.603  0.00  0.00    +0.077 A 
ATOM     21  S   UNL     1       0.036  -0.836  -2.739  0.00  0.00    -0.088 S 
BRANCH  17  23
ATOM     22  C   UNL     1      -0.019   1.526   0.010  0.00  0.00    +0.009 C 
ATOM     23  C   UNL     1       0.002  -0.004   0.002  0.00  0.00    +0.039 C 
ENDBRANCH  17  23
ENDBRANCH   1  20
TORSDOF 4
