REMARK  Name = ZINC03014111
REMARK  8 active torsions:
REMARK  status: ('A' for Active; 'I' for Inactive)
REMARK    1  A    between atoms: C_1  and  O_2
REMARK    2  A    between atoms: O_2  and  C_3
REMARK    3  A    between atoms: C_5  and  C_17
REMARK    4  A    between atoms: C_8  and  O_9
REMARK    5  A    between atoms: O_9  and  C_10
REMARK    6  A    between atoms: C_10  and  C_12
REMARK    7  A    between atoms: C_31  and  N_35
REMARK    8  A    between atoms: C_32  and  C_33
REMARK                            x       y       z     vdW  Elec       q    Type
REMARK                         _______ _______ _______ _____ _____    ______ ____
ROOT
ATOM      1  C   UNL     1      -1.232  -2.196  -0.007  0.00  0.00    +0.105 C 
ATOM      2  C   UNL     1       0.090  -2.764  -0.446  0.00  0.00    +0.092 A 
ATOM      3  C   UNL     1       1.213  -1.991  -0.444  0.00  0.00    +0.152 A 
ATOM      4  C   UNL     1       2.478  -2.600  -0.885  0.00  0.00    +0.060 A 
ATOM      5  C   UNL     1       3.663  -1.863  -0.909  0.00  0.00    +0.015 A 
ATOM      6  C   UNL     1       4.830  -2.463  -1.328  0.00  0.00    +0.001 A 
ATOM      7  C   UNL     1       4.830  -3.793  -1.723  0.00  0.00    +0.004 A 
ATOM      8  C   UNL     1       3.666  -4.533  -1.703  0.00  0.00    +0.047 A 
ATOM      9  C   UNL     1       2.479  -3.946  -1.285  0.00  0.00    +0.143 A 
ATOM     10  O   UNL     1       1.329  -4.654  -1.260  0.00  0.00    -0.422 OA
ATOM     11  C   UNL     1       0.171  -4.105  -0.862  0.00  0.00    +0.345 A 
ATOM     12  O   UNL     1      -0.839  -4.787  -0.859  0.00  0.00    -0.245 OA
ATOM     13  O   UNL     1       1.182  -0.703  -0.053  0.00  0.00    -0.440 OA
ATOM     14  C   UNL     1       0.013  -0.039  -0.020  0.00  0.00    +0.199 C 
ATOM     15  C   UNL     1      -1.174  -0.693   0.007  0.00  0.00    +0.098 C 
ENDROOT
BRANCH   1  18
ATOM     16  C   UNL     1      -2.994  -3.880   2.880  0.00  0.00    +0.163 A 
ATOM     17  C   UNL     1      -2.698  -3.427   1.604  0.00  0.00    +0.054 A 
ATOM     18  C   UNL     1      -1.551  -2.688   1.381  0.00  0.00    -0.031 A 
ATOM     19  C   UNL     1      -0.694  -2.405   2.428  0.00  0.00    +0.008 A 
ATOM     20  C   UNL     1      -0.985  -2.849   3.704  0.00  0.00    +0.050 A 
ATOM     21  C   UNL     1      -2.133  -3.591   3.934  0.00  0.00    +0.173 A 
BRANCH  16  23
ATOM     22  C   UNL     1      -4.958  -4.865   1.971  0.00  0.00    +0.277 C 
ATOM     23  O   UNL     1      -4.122  -4.607   3.100  0.00  0.00    -0.491 OA
ENDBRANCH  16  23
BRANCH  21  24
ATOM     24  O   UNL     1      -2.418  -4.034   5.188  0.00  0.00    -0.416 OA
BRANCH  24  25
ATOM     25  C   UNL     1      -2.099  -5.313   5.472  0.00  0.00    +0.380 C 
ATOM     26  O   UNL     1      -1.492  -5.984   4.659  0.00  0.00    -0.241 OA
BRANCH  25  27
ATOM     27  C   UNL     1      -2.483  -5.895   6.760  0.00  0.00    +0.212 A 
ATOM     28  C   UNL     1      -2.224  -7.171   7.175  0.00  0.00    +0.056 A 
ATOM     29  C   UNL     1      -2.768  -7.295   8.462  0.00  0.00    +0.042 A 
ATOM     30  C   UNL     1      -3.327  -6.105   8.774  0.00  0.00    +0.196 A 
ATOM     31  O   UNL     1      -3.149  -5.263   7.749  0.00  0.00    -0.456 OA
ENDBRANCH  25  27
ENDBRANCH  24  25
ENDBRANCH  21  24
ENDBRANCH   1  18
BRANCH  14  32
ATOM     32  N   UNL     1       0.021   1.333  -0.009  0.00  0.00    -0.328 N 
ATOM     33  H   UNL     1      -0.927   1.889   0.017  0.00  0.00    +0.145 HD
ATOM     34  H   UNL     1       0.978   1.877  -0.026  0.00  0.00    +0.145 HD
ENDBRANCH  14  32
BRANCH  15  35
ATOM     35  C   UNL     1      -2.392   0.059   0.045  0.00  0.00    +0.101 C 
ATOM     36  N   UNL     1      -3.358   0.656   0.075  0.00  0.00    -0.191 NA
ENDBRANCH  15  35
TORSDOF 7
