REMARK  Name = ZINC42109373
REMARK  3 active torsions:
REMARK  status: ('A' for Active; 'I' for Inactive)
REMARK    1  A    between atoms: C_11  and  N_13
REMARK    2  A    between atoms: N_13  and  C_14
REMARK    3  A    between atoms: C_17  and  C_20
REMARK                            x       y       z     vdW  Elec       q    Type
REMARK                         _______ _______ _______ _____ _____    ______ ____
ROOT
ATOM      1  C   UNL     1      -0.017   1.378   0.010  0.00  0.00    +0.002 A 
ATOM      2  C   UNL     1       1.175   2.083   0.002  0.00  0.00    +0.008 A 
ATOM      3  C   UNL     1       2.373   1.407  -0.013  0.00  0.00    +0.004 A 
ATOM      4  C   UNL     1       2.406   0.018  -0.021  0.00  0.00    +0.057 A 
ATOM      5  C   UNL     1       1.203  -0.686  -0.014  0.00  0.00    +0.062 A 
ATOM      6  C   UNL     1       0.002  -0.004   0.002  0.00  0.00    +0.022 A 
ATOM      7 CL   UNL     1       1.214  -2.421  -0.023  0.00  0.00    -0.082 Cl
ATOM      8  N   UNL     1       3.727  -0.433  -0.035  0.00  0.00    -0.282 N 
ATOM      9  C   UNL     1       4.611   0.580  -0.038  0.00  0.00    +0.242 C 
ATOM     10  O   UNL     1       5.819   0.481  -0.049  0.00  0.00    -0.273 OA
ATOM     11  C   UNL     1       3.813   1.866  -0.024  0.00  0.00    +0.190 C 
ATOM     12  H   UNL     1       3.979  -1.370  -0.042  0.00  0.00    +0.155 HD
ENDROOT
BRANCH  11  13
ATOM     13  N   UNL     1       4.113   2.643   1.182  0.00  0.00    -0.329 N 
ATOM     14  H   UNL     1       3.592   2.506   1.989  0.00  0.00    +0.147 HD
BRANCH  13  15
ATOM     15  C   UNL     1       5.144   3.577   1.170  0.00  0.00    +0.028 A 
ATOM     16  C   UNL     1       5.887   3.776   0.010  0.00  0.00    +0.024 A 
ATOM     17  C   UNL     1       6.908   4.699  -0.006  0.00  0.00    +0.020 A 
ATOM     18  C   UNL     1       7.199   5.437   1.145  0.00  0.00    +0.052 A 
ATOM     19  C   UNL     1       6.451   5.234   2.309  0.00  0.00    +0.020 A 
ATOM     20  C   UNL     1       5.428   4.314   2.316  0.00  0.00    +0.024 A 
BRANCH  18  21
ATOM     21  C   UNL     1       8.260   6.398   1.133  0.00  0.00    +0.099 C 
ATOM     22  N   UNL     1       9.103   7.160   1.123  0.00  0.00    -0.191 NA
ENDBRANCH  18  21
ENDBRANCH  13  15
ENDBRANCH  11  13
TORSDOF 3
