REMARK  Name = ZINC67064865
REMARK  7 active torsions:
REMARK  status: ('A' for Active; 'I' for Inactive)
REMARK    1  A    between atoms: C_1  and  C_2
REMARK    2  A    between atoms: C_6  and  C_7
REMARK    3  A    between atoms: N_9  and  N_10
REMARK    4  A    between atoms: N_13  and  C_14
REMARK    5  A    between atoms: N_18  and  C_20
REMARK    6  A    between atoms: C_20  and  C_22
REMARK    7  A    between atoms: C_20  and  C_23
REMARK                            x       y       z     vdW  Elec       q    Type
REMARK                         _______ _______ _______ _____ _____    ______ ____
ROOT
ATOM      1  N   UNL     1       0.058  -0.732   4.900  0.00  0.00    -0.218 N 
ATOM      2  C   UNL     1       0.080  -1.625   5.909  0.00  0.00    +0.316 C 
ATOM      3  O   UNL     1       0.086  -1.239   7.062  0.00  0.00    -0.251 OA
ATOM      4  N   UNL     1       0.096  -2.945   5.640  0.00  0.00    -0.297 N 
ATOM      5  H   UNL     1       0.047   0.219   5.094  0.00  0.00    +0.174 HD
ATOM      6  H   UNL     1       0.091  -3.253   4.720  0.00  0.00    +0.150 HD
ENDROOT
BRANCH   4   7
ATOM      7  C   UNL     1       0.119  -3.916   6.737  0.00  0.00    +0.056 C 
ATOM      8  C   UNL     1       1.576  -4.210   7.162  0.00  0.00    +0.002 C 
ATOM      9  C   UNL     1       1.555  -5.734   7.442  0.00  0.00    -0.076 C 
ATOM     10  N   UNL     1       0.648  -6.260   6.389  0.00  0.00    +0.385 N 
ATOM     11  C   UNL     1      -0.446  -5.269   6.266  0.00  0.00    -0.056 C 
ATOM     12  H   UNL     1       1.144  -6.344   5.514  0.00  0.00    -0.081 HD
BRANCH  10  13
ATOM     13  C   UNL     1       0.106  -7.564   6.793  0.00  0.00    -0.041 C 
ATOM     14  C   UNL     1      -0.852  -8.074   5.714  0.00  0.00    -0.008 C 
BRANCH  13  15
ATOM     15  C   UNL     1       1.236  -8.546   6.967  0.00  0.00    -0.061 A 
ATOM     16  C   UNL     1       2.296  -8.544   6.081  0.00  0.00    +0.002 A 
ATOM     17  C   UNL     1       3.333  -9.444   6.240  0.00  0.00    +0.000 A 
ATOM     18  C   UNL     1       3.309 -10.347   7.287  0.00  0.00    +0.000 A 
ATOM     19  C   UNL     1       2.248 -10.349   8.174  0.00  0.00    +0.000 A 
ATOM     20  C   UNL     1       1.214  -9.445   8.017  0.00  0.00    +0.002 A 
ENDBRANCH  13  15
ENDBRANCH  10  13
ENDBRANCH   4   7
BRANCH   1  23
ATOM     21  C   UNL     1       0.030  -0.283   2.562  0.00  0.00    +0.267 C 
ATOM     22  O   UNL     1       0.016   0.910   2.805  0.00  0.00    -0.268 OA
ATOM     23  N   UNL     1       0.052  -1.176   3.571  0.00  0.00    -0.229 N 
ATOM     24  H   UNL     1       0.063  -2.126   3.378  0.00  0.00    +0.173 HD
BRANCH  21  30
ATOM     25  C   UNL     1      -0.018   1.503   0.010  0.00  0.00    +0.045 C 
ATOM     26  C   UNL     1       0.002  -0.004   0.002  0.00  0.00    -0.031 A 
ATOM     27  C   UNL     1       0.007  -0.729  -1.166  0.00  0.00    +0.011 A 
ATOM     28  C   UNL     1       0.026  -2.083  -1.101  0.00  0.00    +0.046 A 
ATOM     29  S   UNL     1       0.038  -2.416   0.545  0.00  0.00    -0.092 S 
ATOM     30  C   UNL     1       0.023  -0.748   1.172  0.00  0.00    +0.078 A 
ENDBRANCH  21  30
ENDBRANCH   1  23
TORSDOF 5
