REMARK  Name = ZINC52963830
REMARK  8 active torsions:
REMARK  status: ('A' for Active; 'I' for Inactive)
REMARK    1  A    between atoms: C_1  and  C_2
REMARK    2  A    between atoms: C_6  and  C_7
REMARK    3  A    between atoms: N_9  and  C_10
REMARK    4  A    between atoms: N_9  and  C_11
REMARK    5  A    between atoms: C_11  and  C_12
REMARK    6  A    between atoms: C_15  and  O_18
REMARK    7  A    between atoms: C_20  and  C_24
REMARK    8  A    between atoms: C_20  and  C_25
REMARK                            x       y       z     vdW  Elec       q    Type
REMARK                         _______ _______ _______ _____ _____    ______ ____
ROOT
ATOM      1  C   UNL     1       0.651   1.487   0.072  0.00  0.00    +0.048 C 
ATOM      2  C   UNL     1       0.699  -0.019   0.079  0.00  0.00    +0.011 A 
ATOM      3  C   UNL     1       0.937  -0.859  -1.020  0.00  0.00    +0.062 A 
ATOM      4  C   UNL     1       0.888  -2.168  -0.553  0.00  0.00    +0.117 A 
ATOM      5  O   UNL     1       0.640  -2.125   0.749  0.00  0.00    -0.454 OA
ATOM      6  C   UNL     1       0.524  -0.840   1.155  0.00  0.00    +0.193 A 
ATOM      7  C   UNL     1       1.091  -3.364  -1.449  0.00  0.00    +0.082 C 
ATOM      8  C   UNL     1       0.839  -2.954  -2.903  0.00  0.00    -0.021 C 
ATOM      9  C   UNL     1       1.677  -1.726  -3.273  0.00  0.00    +0.086 C 
ATOM     10  C   UNL     1       1.202  -0.550  -2.433  0.00  0.00    +0.167 C 
ATOM     11  O   UNL     1       1.052   0.561  -2.895  0.00  0.00    -0.292 OA
ATOM     12  C   UNL     1      -0.644  -2.625  -3.083  0.00  0.00    +0.012 C 
ATOM     13  C   UNL     1       1.212  -4.116  -3.825  0.00  0.00    +0.012 C 
ENDROOT
BRANCH   6  14
ATOM     14  C   UNL     1       0.253  -0.400   2.529  0.00  0.00    +0.282 C 
ATOM     15  O   UNL     1       0.299   0.783   2.809  0.00  0.00    -0.267 OA
ATOM     16  N   UNL     1      -0.049  -1.306   3.480  0.00  0.00    -0.294 N 
ATOM     17  C   UNL     1      -0.031  -2.736   3.161  0.00  0.00    +0.133 C 
BRANCH  16  18
ATOM     18  C   UNL     1      -0.394  -0.862   4.832  0.00  0.00    +0.143 C 
BRANCH  18  19
ATOM     19  C   UNL     1      -1.882  -0.643   4.925  0.00  0.00    -0.030 A 
ATOM     20  C   UNL     1      -2.418   0.595   4.624  0.00  0.00    +0.009 A 
ATOM     21  C   UNL     1      -3.782   0.798   4.709  0.00  0.00    +0.046 A 
ATOM     22  C   UNL     1      -4.614  -0.242   5.095  0.00  0.00    +0.117 A 
ATOM     23  C   UNL     1      -4.074  -1.484   5.395  0.00  0.00    +0.046 A 
ATOM     24  C   UNL     1      -2.710  -1.684   5.304  0.00  0.00    +0.009 A 
BRANCH  22  25
ATOM     25  O   UNL     1      -5.956  -0.045   5.179  0.00  0.00    -0.507 OA
ATOM     26  H   UNL     1      -6.433  -0.231   4.359  0.00  0.00    +0.292 HD
ENDBRANCH  22  25
ENDBRANCH  18  19
ENDBRANCH  16  18
ENDBRANCH   6  14
TORSDOF 4
