REMARK  Name = ZINC03374718
REMARK  4 active torsions:
REMARK  status: ('A' for Active; 'I' for Inactive)
REMARK    1  A    between atoms: C_3  and  C_6
REMARK    2  A    between atoms: C_7  and  C_8
REMARK    3  A    between atoms: N_10  and  N_11
REMARK    4  A    between atoms: C_12  and  C_14
REMARK                            x       y       z     vdW  Elec       q    Type
REMARK                         _______ _______ _______ _____ _____    ______ ____
ROOT
ATOM      1  N   UNL     1      -2.281   7.332  -2.819  0.00  0.00    -0.230 N 
ATOM      2  C   UNL     1      -1.960   7.024  -1.548  0.00  0.00    +0.267 C 
ATOM      3  O   UNL     1      -1.968   7.888  -0.691  0.00  0.00    -0.268 OA
ATOM      4  H   UNL     1      -2.275   6.644  -3.502  0.00  0.00    +0.173 HD
ENDROOT
BRANCH   2   5
ATOM      5  C   UNL     1      -1.601   5.647  -1.196  0.00  0.00    +0.076 A 
ATOM      6  C   UNL     1      -1.244   5.125   0.034  0.00  0.00    +0.024 A 
ATOM      7  C   UNL     1      -0.947   3.775   0.111  0.00  0.00    -0.036 A 
ATOM      8  C   UNL     1      -1.031   3.059  -1.050  0.00  0.00    -0.006 A 
ATOM      9  S   UNL     1      -1.512   4.204  -2.244  0.00  0.00    -0.088 S 
ATOM     10  C   UNL     1      -0.761   1.597  -1.231  0.00  0.00    +0.043 C 
ATOM     11  C   UNL     1      -0.013   1.086   0.008  0.00  0.00    +0.005 C 
ATOM     12  C   UNL     1      -0.735   1.583   1.263  0.00  0.00    +0.005 C 
ATOM     13  C   UNL     1      -0.542   3.091   1.414  0.00  0.00    +0.036 C 
ENDBRANCH   2   5
BRANCH   1  16
ATOM     14  C   UNL     1      -2.946   8.957  -4.427  0.00  0.00    +0.253 C 
ATOM     15  O   UNL     1      -2.938   8.092  -5.285  0.00  0.00    -0.269 OA
ATOM     16  N   UNL     1      -2.624   8.649  -3.155  0.00  0.00    -0.231 N 
ATOM     17  H   UNL     1      -2.630   9.338  -2.473  0.00  0.00    +0.173 HD
BRANCH  14  19
ATOM     18  C   UNL     1      -3.615  10.598  -6.047  0.00  0.00    +0.051 C 
ATOM     19  C   UNL     1      -3.292  10.287  -4.767  0.00  0.00    +0.072 C 
BRANCH  18  22
ATOM     20  C   UNL     1      -4.571  13.755  -7.512  0.00  0.00    +0.042 A 
ATOM     21  C   UNL     1      -4.305  12.384  -7.643  0.00  0.00    +0.049 A 
ATOM     22  C   UNL     1      -3.962  11.928  -6.387  0.00  0.00    +0.128 A 
ATOM     23  O   UNL     1      -4.010  12.979  -5.540  0.00  0.00    -0.464 OA
ATOM     24  C   UNL     1      -4.376  14.078  -6.214  0.00  0.00    +0.195 A 
ENDBRANCH  18  22
ENDBRANCH  14  19
ENDBRANCH   1  16
TORSDOF 4
