REMARK  Name = ZINC64057984
REMARK  7 active torsions:
REMARK  status: ('A' for Active; 'I' for Inactive)
REMARK    1  A    between atoms: C_10  and  C_12
REMARK    2  A    between atoms: C_12  and  N_13
REMARK    3  A    between atoms: C_14  and  C_16
REMARK    4  A    between atoms: C_16  and  C_17
REMARK    5  A    between atoms: C_17  and  C_18
REMARK    6  A    between atoms: C_21  and  C_23
REMARK    7  A    between atoms: C_23  and  C_24
REMARK                            x       y       z     vdW  Elec       q    Type
REMARK                         _______ _______ _______ _____ _____    ______ ____
ROOT
ATOM      1  C   UNL     1       9.335  -0.113   2.480  0.00  0.00    +0.107 C 
ENDROOT
BRANCH   1   2
ATOM      2  C   UNL     1      10.703  -0.736   2.368  0.00  0.00    +0.218 A 
ATOM      3  N   UNL     1      11.665  -0.348   1.579  0.00  0.00    -0.112 NA
ATOM      4  N   UNL     1      12.689  -1.108   1.749  0.00  0.00    -0.112 NA
ATOM      5  C   UNL     1      12.416  -2.006   2.652  0.00  0.00    +0.221 A 
ATOM      6  O   UNL     1      11.157  -1.789   3.068  0.00  0.00    -0.424 OA
BRANCH   5   7
ATOM      7  C   UNL     1      13.344  -3.087   3.145  0.00  0.00    +0.130 C 
BRANCH   7   8
ATOM      8  C   UNL     1      14.132  -2.574   4.322  0.00  0.00    -0.033 C 
ATOM      9  C   UNL     1      13.838  -2.739   5.632  0.00  0.00    -0.001 A 
ATOM     10  C   UNL     1      12.737  -3.419   6.326  0.00  0.00    +0.010 A 
ATOM     11  C   UNL     1      12.711  -3.414   7.678  0.00  0.00    +0.001 A 
ATOM     12  C   UNL     1      13.707  -2.778   8.432  0.00  0.00    +0.002 A 
ATOM     13  C   UNL     1      14.749  -2.132   7.866  0.00  0.00    +0.026 A 
ATOM     14  C   UNL     1      14.877  -2.075   6.451  0.00  0.00    +0.043 A 
ATOM     15  N   UNL     1      15.779  -1.520   5.678  0.00  0.00    -0.380 N 
ATOM     16  C   UNL     1      15.416  -1.776   4.279  0.00  0.00    +0.145 C 
ATOM     17  H   UNL     1      16.557  -1.027   5.980  0.00  0.00    +0.160 HD
ENDBRANCH   7   8
ENDBRANCH   5   7
ENDBRANCH   1   2
BRANCH   1  18
ATOM     18  C   UNL     1       8.383  -0.793   1.494  0.00  0.00    +0.105 C 
BRANCH  18  20
ATOM     19  N   UNL     1       6.008  -0.613   0.827  0.00  0.00    -0.312 N 
ATOM     20  C   UNL     1       7.016  -0.171   1.606  0.00  0.00    +0.214 C 
ATOM     21  O   UNL     1       6.821   0.729   2.396  0.00  0.00    -0.276 OA
ATOM     22  H   UNL     1       6.164  -1.333   0.195  0.00  0.00    +0.149 HD
BRANCH  19  23
ATOM     23  C   UNL     1       4.679  -0.008   0.936  0.00  0.00    +0.140 C 
BRANCH  23  33
ATOM     24  C   UNL     1      -0.017   1.377   0.010  0.00  0.00    +0.000 A 
ATOM     25  C   UNL     1       1.173   2.081   0.002  0.00  0.00    +0.000 A 
ATOM     26  C   UNL     1       2.375   1.402  -0.015  0.00  0.00    +0.006 A 
ATOM     27  C   UNL     1       2.395   0.016  -0.024  0.00  0.00    -0.014 A 
ATOM     28  C   UNL     1       1.208  -0.686  -0.013  0.00  0.00    -0.040 A 
ATOM     29  C   UNL     1       0.002  -0.004   0.002  0.00  0.00    +0.004 A 
ATOM     30  C   UNL     1       1.189  -2.194  -0.009  0.00  0.00    +0.063 C 
ATOM     31  C   UNL     1       2.555  -2.730  -0.442  0.00  0.00    +0.165 C 
ATOM     32  O   UNL     1       3.568  -2.059   0.316  0.00  0.00    -0.370 OA
ATOM     33  C   UNL     1       3.727  -0.688  -0.050  0.00  0.00    +0.165 C 
ENDBRANCH  23  33
ENDBRANCH  19  23
ENDBRANCH  18  20
ENDBRANCH   1  18
TORSDOF 7
