REMARK  Name = ZINC22616923
REMARK  8 active torsions:
REMARK  status: ('A' for Active; 'I' for Inactive)
REMARK    1  A    between atoms: C_3  and  S_28
REMARK    2  A    between atoms: C_6  and  C_7
REMARK    3  A    between atoms: C_7  and  C_8
REMARK    4  A    between atoms: C_8  and  N_9
REMARK    5  A    between atoms: C_10  and  C_12
REMARK    6  A    between atoms: C_12  and  S_13
REMARK    7  A    between atoms: S_13  and  C_14
REMARK    8  A    between atoms: S_28  and  N_31
REMARK                            x       y       z     vdW  Elec       q    Type
REMARK                         _______ _______ _______ _____ _____    ______ ____
ROOT
ATOM      1  N   UNL     1      -3.241  12.025   2.236  0.00  0.00    -0.314 N 
ATOM      2  C   UNL     1      -3.189  11.363   1.062  0.00  0.00    +0.223 C 
ATOM      3  O   UNL     1      -3.554  11.908   0.042  0.00  0.00    -0.275 OA
ATOM      4  H   UNL     1      -2.909  11.530   3.161  0.00  0.00    +0.149 HD
ENDROOT
BRANCH   1   5
ATOM      5  C   UNL     1      -3.738  13.402   2.279  0.00  0.00    +0.109 C 
BRANCH   5   6
ATOM      6  C   UNL     1      -3.692  13.916   3.719  0.00  0.00    +0.054 C 
BRANCH   6  12
ATOM      7  C   UNL     1      -3.326  16.390   3.609  0.00  0.00    +0.005 A 
ATOM      8  C   UNL     1      -3.796  17.689   3.645  0.00  0.00    +0.029 A 
ATOM      9  C   UNL     1      -5.143  17.932   3.845  0.00  0.00    +0.105 A 
ATOM     10  C   UNL     1      -6.019  16.875   4.004  0.00  0.00    +0.029 A 
ATOM     11  C   UNL     1      -5.550  15.576   3.964  0.00  0.00    +0.005 A 
ATOM     12  C   UNL     1      -4.204  15.333   3.763  0.00  0.00    -0.046 A 
BRANCH   9  13
ATOM     13  S   UNL     1      -5.741  19.589   3.895  0.00  0.00    +0.056 S 
ATOM     14  O   UNL     1      -4.806  20.380   3.175  0.00  0.00    -0.153 OA
ATOM     15  O   UNL     1      -7.118  19.534   3.549  0.00  0.00    -0.153 OA
BRANCH  13  16
ATOM     16  N   UNL     1      -5.669  20.087   5.473  0.00  0.00    -0.204 NA
ATOM     17  H   UNL     1      -6.035  21.122   5.547  0.00  0.00    +0.144 HD
ATOM     18  H   UNL     1      -4.628  20.041   5.824  0.00  0.00    +0.144 HD
ENDBRANCH  13  16
ENDBRANCH   9  13
ENDBRANCH   6  12
ENDBRANCH   5   6
ENDBRANCH   1   5
BRANCH   2  19
ATOM     19  C   UNL     1      -2.677   9.947   1.018  0.00  0.00    +0.173 C 
BRANCH  19  20
ATOM     20  S   UNL     1      -2.731   9.338  -0.686  0.00  0.00    -0.077 S 
BRANCH  20  21
ATOM     21  C   UNL     1      -2.097   7.711  -0.450  0.00  0.00    +0.191 A 
ATOM     22  N   UNL     1      -1.761   7.335   0.775  0.00  0.00    -0.207 NA
ATOM     23  C   UNL     1      -1.273   6.135   1.075  0.00  0.00    +0.129 A 
ATOM     24  C   UNL     1      -1.120   5.232  -0.018  0.00  0.00    +0.051 A 
ATOM     25  C   UNL     1      -0.614   3.870   0.035  0.00  0.00    -0.025 A 
ATOM     26  C   UNL     1      -0.558   3.197  -1.136  0.00  0.00    -0.004 A 
ATOM     27  S   UNL     1      -1.170   4.332  -2.357  0.00  0.00    -0.073 S 
ATOM     28  C   UNL     1      -1.500   5.705  -1.299  0.00  0.00    +0.115 A 
ATOM     29  N   UNL     1      -1.978   6.914  -1.514  0.00  0.00    -0.214 NA
ATOM     30  C   UNL     1      -0.081   1.794  -1.355  0.00  0.00    +0.043 C 
ATOM     31  C   UNL     1       0.687   1.341  -0.106  0.00  0.00    +0.005 C 
ATOM     32  C   UNL     1      -0.139   1.691   1.136  0.00  0.00    +0.005 C 
ATOM     33  C   UNL     1      -0.161   3.206   1.333  0.00  0.00    +0.037 C 
ATOM     34  N   UNL     1      -0.935   5.783   2.369  0.00  0.00    -0.343 N 
ATOM     35  H   UNL     1      -0.534   4.780   2.580  0.00  0.00    +0.144 HD
ATOM     36  H   UNL     1      -1.067   6.505   3.188  0.00  0.00    +0.144 HD
ENDBRANCH  20  21
ENDBRANCH  19  20
ENDBRANCH   2  19
TORSDOF 8
