REMARK  Name = ZINC12476561
REMARK  12 active torsions:
REMARK  status: ('A' for Active; 'I' for Inactive)
REMARK    1  A    between atoms: C_1  and  C_2
REMARK    2  A    between atoms: C_10  and  S_12
REMARK    3  A    between atoms: S_12  and  C_13
REMARK    4  A    between atoms: C_13  and  C_14
REMARK    5  A    between atoms: N_16  and  C_17
REMARK    6  A    between atoms: N_16  and  C_21
REMARK    7  A    between atoms: C_17  and  C_18
REMARK    8  A    between atoms: C_18  and  O_19
REMARK    9  A    between atoms: O_19  and  C_20
REMARK   10  A    between atoms: C_22  and  N_37
REMARK   11  A    between atoms: N_23  and  C_30
REMARK   12  A    between atoms: C_30  and  C_31
REMARK                            x       y       z     vdW  Elec       q    Type
REMARK                         _______ _______ _______ _____ _____    ______ ____
ROOT
ATOM      1  C   UNL     1       0.042  -8.462   1.440  0.00  0.00    +0.230 C 
ATOM      2  O   UNL     1      -0.164  -8.537   2.633  0.00  0.00    -0.274 OA
ATOM      3  N   UNL     1       0.148  -9.587   0.702  0.00  0.00    -0.261 N 
ENDROOT
BRANCH   3   4
ATOM      4  C   UNL     1       0.116 -10.849   1.332  0.00  0.00    +0.140 A 
ATOM      5  C   UNL     1       1.100 -11.211   2.229  0.00  0.00    +0.128 A 
ATOM      6  N   UNL     1       1.042 -12.448   2.827  0.00  0.00    -0.276 N 
ATOM      7  C   UNL     1       0.037 -13.296   2.541  0.00  0.00    +0.331 A 
ATOM      8  O   UNL     1       0.003 -14.385   3.081  0.00  0.00    -0.246 OA
ATOM      9  N   UNL     1      -0.931 -12.961   1.670  0.00  0.00    -0.273 N 
ATOM     10  H   UNL     1      -1.645 -13.590   1.481  0.00  0.00    +0.173 HD
ATOM     11  C   UNL     1      -0.923 -11.759   1.060  0.00  0.00    +0.277 A 
ATOM     12  O   UNL     1      -1.808 -11.463   0.275  0.00  0.00    -0.266 OA
BRANCH   5  13
ATOM     13  N   UNL     1       2.127 -10.345   2.521  0.00  0.00    -0.343 N 
ATOM     14  H   UNL     1       2.179  -9.487   2.073  0.00  0.00    +0.144 HD
ATOM     15  H   UNL     1       2.799 -10.593   3.175  0.00  0.00    +0.144 HD
ENDBRANCH   5  13
BRANCH   6  16
ATOM     16  C   UNL     1       2.080 -12.845   3.781  0.00  0.00    +0.163 C 
BRANCH  16  17
ATOM     17  C   UNL     1       1.670 -12.432   5.171  0.00  0.00    -0.028 A 
ATOM     18  C   UNL     1       2.022 -11.185   5.653  0.00  0.00    +0.005 A 
ATOM     19  C   UNL     1       1.646 -10.805   6.928  0.00  0.00    +0.000 A 
ATOM     20  C   UNL     1       0.918 -11.672   7.721  0.00  0.00    +0.000 A 
ATOM     21  C   UNL     1       0.565 -12.919   7.239  0.00  0.00    +0.000 A 
ATOM     22  C   UNL     1       0.938 -13.297   5.962  0.00  0.00    +0.005 A 
ENDBRANCH  16  17
ENDBRANCH   6  16
ENDBRANCH   3   4
BRANCH   1  23
ATOM     23  C   UNL     1       0.180  -7.114   0.781  0.00  0.00    +0.173 C 
BRANCH  23  24
ATOM     24  S   UNL     1      -0.009  -5.810   2.028  0.00  0.00    -0.079 S 
BRANCH  24  34
ATOM     25  C   UNL     1       0.609   1.332  -0.788  0.00  0.00    +0.044 C 
ATOM     26  C   UNL     1       0.565  -0.172  -0.699  0.00  0.00    -0.048 A 
ATOM     27  C   UNL     1       0.748  -0.935  -1.843  0.00  0.00    +0.005 A 
ATOM     28  C   UNL     1       0.710  -2.310  -1.778  0.00  0.00    +0.030 A 
ATOM     29  C   UNL     1       0.487  -2.942  -0.552  0.00  0.00    +0.090 A 
ATOM     30  C   UNL     1       0.304  -2.163   0.603  0.00  0.00    +0.067 A 
ATOM     31  C   UNL     1       0.349  -0.780   0.520  0.00  0.00    +0.031 A 
ATOM     32  N   UNL     1       0.108  -3.057   1.643  0.00  0.00    -0.333 N 
ATOM     33  H   UNL     1      -0.048  -2.832   2.573  0.00  0.00    +0.168 HD
ATOM     34  C   UNL     1       0.175  -4.315   1.114  0.00  0.00    +0.168 A 
ATOM     35  N   UNL     1       0.398  -4.244  -0.176  0.00  0.00    -0.222 NA
ENDBRANCH  24  34
ENDBRANCH  23  24
ENDBRANCH   1  23
BRANCH   3  36
ATOM     36  C   UNL     1       0.295  -9.498  -0.753  0.00  0.00    +0.142 C 
BRANCH  36  37
ATOM     37  C   UNL     1       1.778  -9.382  -1.109  0.00  0.00    +0.178 C 
BRANCH  37  38
ATOM     38  O   UNL     1       2.454 -10.585  -0.734  0.00  0.00    -0.381 OA
ATOM     39  C   UNL     1       3.853 -10.581  -1.025  0.00  0.00    +0.194 C 
ENDBRANCH  37  38
ENDBRANCH  36  37
ENDBRANCH   3  36
TORSDOF 10
