REMARK  Name = ZINC09357943
REMARK  4 active torsions:
REMARK  status: ('A' for Active; 'I' for Inactive)
REMARK    1  A    between atoms: C_1  and  C_2
REMARK    2  A    between atoms: C_7  and  C_12
REMARK    3  A    between atoms: C_12  and  C_14
REMARK    4  A    between atoms: C_19  and  C_21
REMARK                            x       y       z     vdW  Elec       q    Type
REMARK                         _______ _______ _______ _____ _____    ______ ____
ROOT
ATOM      1  C   UNL     1      -1.220   1.912  -0.086  0.00  0.00    +0.077 C 
ATOM      2  C   UNL     1      -2.403   1.258  -0.003  0.00  0.00    +0.250 C 
ATOM      3  C   UNL     1      -3.504   2.242  -0.033  0.00  0.00    +0.293 C 
ATOM      4  O   UNL     1      -4.686   1.967   0.025  0.00  0.00    -0.266 OA
ATOM      5  N   UNL     1      -3.006   3.487  -0.132  0.00  0.00    -0.232 N 
ATOM      6  C   UNL     1      -1.542   3.386  -0.167  0.00  0.00    +0.154 C 
ATOM      7  C   UNL     1      -3.742   4.658  -0.186  0.00  0.00    +0.169 A 
ATOM      8  N   UNL     1      -3.316   5.896  -0.278  0.00  0.00    -0.224 NA
ATOM      9  C   UNL     1      -4.157   6.952  -0.325  0.00  0.00    +0.080 A 
ATOM     10  C   UNL     1      -3.830   8.324  -0.426  0.00  0.00    +0.032 A 
ATOM     11  C   UNL     1      -4.812   9.278  -0.457  0.00  0.00    +0.040 A 
ATOM     12  C   UNL     1      -6.158   8.937  -0.390  0.00  0.00    +0.125 A 
ATOM     13  C   UNL     1      -6.513   7.603  -0.290  0.00  0.00    +0.055 A 
ATOM     14  C   UNL     1      -5.534   6.641  -0.259  0.00  0.00    +0.043 A 
ATOM     15  S   UNL     1      -5.517   4.868  -0.142  0.00  0.00    -0.052 S 
ATOM     16  F   UNL     1      -7.108   9.896  -0.422  0.00  0.00    -0.205 F 
ATOM     17  O   UNL     1      -2.552  -0.083   0.091  0.00  0.00    -0.282 OA
ENDROOT
BRANCH   6  18
ATOM     18  C   UNL     1      -0.941   4.113   1.008  0.00  0.00    +0.013 A 
ATOM     19  C   UNL     1      -1.698   4.340   2.142  0.00  0.00    +0.008 A 
ATOM     20  C   UNL     1      -1.146   5.003   3.222  0.00  0.00    +0.001 A 
ATOM     21  C   UNL     1       0.162   5.448   3.165  0.00  0.00    +0.003 A 
ATOM     22  C   UNL     1       0.920   5.227   2.031  0.00  0.00    +0.039 A 
ATOM     23  C   UNL     1       0.369   4.559   0.951  0.00  0.00    +0.129 A 
ATOM     24  F   UNL     1       1.108   4.343  -0.159  0.00  0.00    -0.205 F 
ENDBRANCH   6  18
BRANCH   1  25
ATOM     25  C   UNL     1       0.115   1.307  -0.089  0.00  0.00    +0.195 C 
ATOM     26  O   UNL     1       0.530   0.743   0.906  0.00  0.00    -0.287 OA
BRANCH  25  32
ATOM     27  C   UNL     1       5.450   2.545  -3.722  0.00  0.00    +0.052 C 
ATOM     28  C   UNL     1       4.754   1.218  -4.029  0.00  0.00    +0.175 C 
ATOM     29  C   UNL     1       4.434   0.452  -2.724  0.00  0.00    +0.083 C 
ATOM     30  C   UNL     1       3.021   0.914  -2.428  0.00  0.00    -0.002 A 
ATOM     31  C   UNL     1       2.249   0.848  -1.295  0.00  0.00    +0.019 A 
ATOM     32  C   UNL     1       0.954   1.376  -1.302  0.00  0.00    +0.023 A 
ATOM     33  C   UNL     1       0.458   1.966  -2.469  0.00  0.00    +0.015 A 
ATOM     34  C   UNL     1       1.240   2.030  -3.597  0.00  0.00    +0.046 A 
ATOM     35  C   UNL     1       2.532   1.499  -3.594  0.00  0.00    +0.124 A 
ATOM     36  O   UNL     1       3.452   1.445  -4.593  0.00  0.00    -0.488 OA
ENDBRANCH  25  32
ENDBRANCH   1  25
TORSDOF 3
