REMARK  Name = ZINC10556415
REMARK  14 active torsions:
REMARK  status: ('A' for Active; 'I' for Inactive)
REMARK    1  A    between atoms: C_1  and  C_2
REMARK    2  A    between atoms: C_2  and  C_3
REMARK    3  A    between atoms: C_3  and  C_4
REMARK    4  A    between atoms: C_4  and  N_5
REMARK    5  A    between atoms: N_14  and  C_30
REMARK    6  A    between atoms: C_15  and  C_17
REMARK    7  A    between atoms: C_17  and  C_18
REMARK    8  A    between atoms: C_18  and  C_19
REMARK    9  A    between atoms: C_24  and  C_27
REMARK   10  A    between atoms: C_27  and  C_28
REMARK   11  A    between atoms: C_27  and  C_29
REMARK   12  A    between atoms: C_30  and  C_31
REMARK   13  A    between atoms: C_31  and  C_32
REMARK   14  A    between atoms: C_31  and  C_33
REMARK                            x       y       z     vdW  Elec       q    Type
REMARK                         _______ _______ _______ _____ _____    ______ ____
ROOT
ATOM      1  N   UNL     1      -7.724  -0.600   1.461  0.00  0.00    -0.277 N 
ATOM      2  C   UNL     1      -6.704   0.012   0.751  0.00  0.00    +0.168 A 
ATOM      3  C   UNL     1      -6.750  -0.004  -0.637  0.00  0.00    +0.151 A 
ATOM      4  C   UNL     1      -7.832  -0.641  -1.282  0.00  0.00    +0.280 A 
ATOM      5  O   UNL     1      -7.895  -0.669  -2.498  0.00  0.00    -0.265 OA
ATOM      6  N   UNL     1      -8.796  -1.220  -0.536  0.00  0.00    -0.273 N 
ATOM      7  H   UNL     1      -9.564  -1.673  -0.988  0.00  0.00    +0.173 HD
ATOM      8  C   UNL     1      -8.738  -1.197   0.807  0.00  0.00    +0.331 A 
ATOM      9  O   UNL     1      -9.625  -1.728   1.447  0.00  0.00    -0.246 OA
ATOM     10  N   UNL     1      -5.627   0.673  -1.069  0.00  0.00    -0.322 N 
ATOM     11  C   UNL     1      -4.953   1.060   0.031  0.00  0.00    +0.113 A 
ATOM     12  N   UNL     1      -5.596   0.669   1.102  0.00  0.00    -0.214 NA
ENDROOT
BRANCH   1  13
ATOM     13  C   UNL     1      -7.700  -0.597   2.926  0.00  0.00    +0.128 C 
BRANCH  13  14
ATOM     14  C   UNL     1      -8.428   0.645   3.445  0.00  0.00    +0.021 C 
BRANCH  14  16
ATOM     15  C   UNL     1      -9.131   1.889   5.495  0.00  0.00    +0.004 C 
ATOM     16  C   UNL     1      -8.403   0.648   4.975  0.00  0.00    -0.002 C 
ENDBRANCH  14  16
ENDBRANCH  13  14
ENDBRANCH   1  13
BRANCH  11  17
ATOM     17  C   UNL     1      -3.658   1.831   0.029  0.00  0.00    +0.083 C 
BRANCH  17  18
ATOM     18  C   UNL     1      -2.482   0.853   0.018  0.00  0.00    +0.104 C 
BRANCH  18  19
ATOM     19  C   UNL     1      -1.187   1.624   0.017  0.00  0.00    +0.219 C 
ATOM     20  O   UNL     1      -1.204   2.837   0.023  0.00  0.00    -0.275 OA
ATOM     21  N   UNL     1      -0.011   0.966   0.007  0.00  0.00    -0.265 N 
ATOM     22  C   UNL     1       1.183   1.677  -0.000  0.00  0.00    +0.165 A 
ATOM     23  N   UNL     1       2.420   1.220  -0.009  0.00  0.00    -0.229 NA
ATOM     24  C   UNL     1       3.452   2.041  -0.020  0.00  0.00    +0.053 A 
ATOM     25  C   UNL     1       3.216   3.375  -0.010  0.00  0.00    +0.072 A 
ATOM     26  S   UNL     1       1.429   3.396   0.007  0.00  0.00    -0.060 S 
ATOM     27  H   UNL     1       0.002  -0.004   0.002  0.00  0.00    +0.157 HD
BRANCH  24  28
ATOM     28  C   UNL     1       4.861   1.507  -0.037  0.00  0.00    +0.032 C 
ATOM     29  C   UNL     1       5.369   1.452  -1.480  0.00  0.00    +0.014 C 
ATOM     30  C   UNL     1       5.765   2.427   0.787  0.00  0.00    +0.014 C 
ENDBRANCH  24  28
ENDBRANCH  18  19
ENDBRANCH  17  18
ENDBRANCH  11  17
BRANCH  10  31
ATOM     31  C   UNL     1      -5.241   0.922  -2.460  0.00  0.00    +0.126 C 
BRANCH  31  32
ATOM     32  C   UNL     1      -4.369  -0.231  -2.962  0.00  0.00    +0.003 C 
ATOM     33  C   UNL     1      -5.196  -1.518  -2.995  0.00  0.00    +0.009 C 
ATOM     34  C   UNL     1      -3.863   0.087  -4.370  0.00  0.00    +0.009 C 
ENDBRANCH  31  32
ENDBRANCH  10  31
TORSDOF 9
