REMARK  Name = ZINC65248875
REMARK  1 active torsions:
REMARK  status: ('A' for Active; 'I' for Inactive)
REMARK    1  A    between atoms: C_1  and  N_2
REMARK                            x       y       z     vdW  Elec       q    Type
REMARK                         _______ _______ _______ _____ _____    ______ ____
ROOT
ATOM      1  C   UNL     1      -0.018   1.461   0.010  0.00  0.00    +0.129 C 
ATOM      2  N   UNL     1       0.002  -0.004   0.002  0.00  0.00    -0.302 N 
ATOM      3  C   UNL     1       0.604  -0.675   1.004  0.00  0.00    +0.302 C 
ATOM      4  O   UNL     1       1.131  -0.065   1.914  0.00  0.00    -0.253 OA
ATOM      5  N   UNL     1       0.623  -2.023   0.996  0.00  0.00    -0.284 N 
ATOM      6  C   UNL     1       0.031  -2.886  -0.044  0.00  0.00    +0.111 C 
ATOM      7  C   UNL     1       0.813  -4.222   0.051  0.00  0.00    +0.041 C 
ATOM      8  C   UNL     1       1.052  -4.329   1.568  0.00  0.00    +0.091 C 
ATOM      9  C   UNL     1       1.242  -2.879   2.022  0.00  0.00    +0.130 C 
ATOM     10  C   UNL     1       2.250  -5.177   1.881  0.00  0.00    -0.010 A 
ATOM     11  C   UNL     1       3.583  -5.101   1.545  0.00  0.00    +0.006 A 
ATOM     12  C   UNL     1       4.468  -6.062   2.000  0.00  0.00    +0.000 A 
ATOM     13  C   UNL     1       4.011  -7.098   2.795  0.00  0.00    +0.002 A 
ATOM     14  C   UNL     1       2.676  -7.178   3.134  0.00  0.00    +0.023 A 
ATOM     15  C   UNL     1       1.778  -6.216   2.679  0.00  0.00    +0.038 A 
ATOM     16  N   UNL     1       0.403  -6.082   2.883  0.00  0.00    -0.284 N 
ATOM     17  C   UNL     1      -0.100  -4.996   2.263  0.00  0.00    +0.229 C 
ATOM     18  O   UNL     1      -1.256  -4.630   2.265  0.00  0.00    -0.274 OA
ATOM     19  H   UNL     1      -0.418  -0.491  -0.724  0.00  0.00    +0.150 HD
ATOM     20  H   UNL     1      -0.129  -6.699   3.410  0.00  0.00    +0.155 HD
ENDROOT
TORSDOF 0
