REMARK  Name = ZINC00615738
REMARK  5 active torsions:
REMARK  status: ('A' for Active; 'I' for Inactive)
REMARK    1  A    between atoms: C_1  and  C_2
REMARK    2  A    between atoms: C_7  and  O_8
REMARK    3  A    between atoms: O_8  and  C_9
REMARK    4  A    between atoms: C_9  and  C_11
REMARK    5  A    between atoms: C_9  and  C_12
REMARK                            x       y       z     vdW  Elec       q    Type
REMARK                         _______ _______ _______ _____ _____    ______ ____
ROOT
ATOM      1  C   UNL     1      -0.064  -0.816   3.572  0.00  0.00    +0.227 C 
ATOM      2  C   UNL     1      -1.533  -1.110   3.881  0.00  0.00    +0.059 C 
ENDROOT
BRANCH   1   3
ATOM      3  C   UNL     1       0.548  -0.055   4.721  0.00  0.00    +0.144 A 
ATOM      4  N   UNL     1       0.401   1.206   5.074  0.00  0.00    -0.141 NA
ATOM      5  N   UNL     1       0.990   1.696   6.076  0.00  0.00    -0.126 NA
ATOM      6  C   UNL     1       1.797   0.969   6.837  0.00  0.00    +0.179 A 
ATOM      7  S   UNL     1       1.674  -0.608   5.998  0.00  0.00    -0.032 S 
ATOM      8  N   UNL     1       2.524   1.327   7.963  0.00  0.00    -0.336 N 
ATOM      9  H   UNL     1       2.480   2.235   8.301  0.00  0.00    +0.144 HD
ATOM     10  H   UNL     1       3.076   0.668   8.413  0.00  0.00    +0.144 HD
ENDBRANCH   1   3
BRANCH   1  11
ATOM     11  O   UNL     1       0.025  -0.033   2.381  0.00  0.00    -0.482 OA
BRANCH  11  18
ATOM     12  C   UNL     1       0.428   1.474   0.026  0.00  0.00    +0.047 C 
ATOM     13  C   UNL     1       0.216  -0.018   0.009  0.00  0.00    -0.007 A 
ATOM     14  C   UNL     1       0.220  -0.704  -1.190  0.00  0.00    +0.027 A 
ATOM     15  C   UNL     1       0.026  -2.073  -1.206  0.00  0.00    +0.041 A 
ATOM     16  C   UNL     1      -0.172  -2.759  -0.020  0.00  0.00    +0.023 A 
ATOM     17  C   UNL     1      -0.177  -2.077   1.181  0.00  0.00    +0.047 A 
ATOM     18  C   UNL     1       0.023  -0.704   1.199  0.00  0.00    +0.124 A 
ATOM     19 CL   UNL     1       0.030  -2.932  -2.714  0.00  0.00    -0.084 Cl
ENDBRANCH  11  18
ENDBRANCH   1  11
TORSDOF 3
