REMARK  Name = ZINC66555970
REMARK  10 active torsions:
REMARK  status: ('A' for Active; 'I' for Inactive)
REMARK    1  A    between atoms: C_1  and  C_2
REMARK    2  A    between atoms: C_3  and  C_13
REMARK    3  A    between atoms: C_4  and  C_12
REMARK    4  A    between atoms: C_9  and  C_10
REMARK    5  A    between atoms: C_13  and  C_14
REMARK    6  A    between atoms: C_14  and  C_15
REMARK    7  A    between atoms: N_17  and  N_18
REMARK    8  A    between atoms: C_19  and  C_21
REMARK    9  A    between atoms: C_21  and  C_22
REMARK   10  A    between atoms: C_22  and  C_23
REMARK                            x       y       z     vdW  Elec       q    Type
REMARK                         _______ _______ _______ _____ _____    ______ ____
ROOT
ATOM      1  C   UNL     1      -4.212   1.070   1.465  0.00  0.00    +0.229 C 
ATOM      2  O   UNL     1      -4.792   1.287   0.422  0.00  0.00    -0.274 OA
ATOM      3  N   UNL     1      -4.748   1.477   2.632  0.00  0.00    -0.234 N 
ATOM      4  H   UNL     1      -4.284   1.303   3.466  0.00  0.00    +0.173 HD
ENDROOT
BRANCH   3   5
ATOM      5  N   UNL     1      -5.976   2.151   2.642  0.00  0.00    -0.234 N 
ATOM      6  C   UNL     1      -6.512   2.559   3.809  0.00  0.00    +0.229 C 
ATOM      7  O   UNL     1      -5.932   2.341   4.852  0.00  0.00    -0.274 OA
ATOM      8  H   UNL     1      -6.440   2.325   1.808  0.00  0.00    +0.173 HD
BRANCH   6   9
ATOM      9  C   UNL     1      -7.833   3.284   3.819  0.00  0.00    +0.097 C 
BRANCH   9  10
ATOM     10  C   UNL     1      -8.213   3.632   5.260  0.00  0.00    +0.013 C 
BRANCH  10  11
ATOM     11  C   UNL     1      -9.554   4.369   5.270  0.00  0.00    -0.011 C 
ATOM     12  C   UNL     1      -9.403   5.713   4.556  0.00  0.00    +0.003 C 
ATOM     13  C   UNL     1     -10.744   6.449   4.566  0.00  0.00    +0.000 C 
ATOM     14  C   UNL     1     -11.184   6.687   6.012  0.00  0.00    +0.000 C 
ATOM     15  C   UNL     1     -11.335   5.343   6.726  0.00  0.00    +0.000 C 
ATOM     16  C   UNL     1      -9.994   4.606   6.716  0.00  0.00    +0.003 C 
ENDBRANCH  10  11
ENDBRANCH   9  10
ENDBRANCH   6   9
ENDBRANCH   3   5
BRANCH   1  17
ATOM     17  C   UNL     1      -2.891   0.344   1.455  0.00  0.00    +0.102 C 
BRANCH  17  18
ATOM     18  C   UNL     1      -2.511  -0.004   0.014  0.00  0.00    +0.046 C 
BRANCH  18  21
ATOM     19  C   UNL     1      -0.018   1.503   0.010  0.00  0.00    +0.045 C 
ATOM     20  C   UNL     1       0.002  -0.004   0.002  0.00  0.00    -0.023 A 
ATOM     21  C   UNL     1      -1.190  -0.729   0.004  0.00  0.00    -0.024 A 
ATOM     22  C   UNL     1      -1.163  -2.086  -0.003  0.00  0.00    +0.019 A 
ATOM     23  N   UNL     1       0.010  -2.764  -0.012  0.00  0.00    -0.325 N 
ATOM     24  H   UNL     1      -0.000  -3.734  -0.017  0.00  0.00    +0.169 HD
ATOM     25  C   UNL     1       1.189  -2.114  -0.015  0.00  0.00    +0.267 A 
ATOM     26  O   UNL     1       2.234  -2.742  -0.023  0.00  0.00    -0.266 OA
ATOM     27  C   UNL     1       1.211  -0.695  -0.013  0.00  0.00    +0.119 A 
ATOM     28  C   UNL     1      -2.461  -2.851  -0.001  0.00  0.00    +0.063 C 
BRANCH  27  29
ATOM     29  C   UNL     1       2.455   0.014  -0.021  0.00  0.00    +0.105 C 
ATOM     30  N   UNL     1       3.442   0.577  -0.028  0.00  0.00    -0.191 NA
ENDBRANCH  27  29
ENDBRANCH  18  21
ENDBRANCH  17  18
ENDBRANCH   1  17
TORSDOF 8
