REMARK  Name = ZINC58327700
REMARK  8 active torsions:
REMARK  status: ('A' for Active; 'I' for Inactive)
REMARK    1  A    between atoms: C_1  and  C_2
REMARK    2  A    between atoms: C_2  and  C_3
REMARK    3  A    between atoms: C_4  and  C_26
REMARK    4  A    between atoms: C_6  and  C_8
REMARK    5  A    between atoms: C_8  and  C_9
REMARK    6  A    between atoms: C_9  and  N_10
REMARK    7  A    between atoms: C_11  and  C_13
REMARK    8  A    between atoms: N_21  and  C_24
REMARK                            x       y       z     vdW  Elec       q    Type
REMARK                         _______ _______ _______ _____ _____    ______ ____
ROOT
ATOM      1  N   UNL     1       5.779  -3.180  -2.368  0.00  0.00    -0.311 N 
ATOM      2  C   UNL     1       6.253  -4.418  -2.125  0.00  0.00    +0.244 C 
ATOM      3  O   UNL     1       5.500  -5.295  -1.750  0.00  0.00    -0.270 OA
ATOM      4  H   UNL     1       6.380  -2.480  -2.667  0.00  0.00    +0.149 HD
ENDROOT
BRANCH   2   5
ATOM      5  C   UNL     1       7.693  -4.710  -2.314  0.00  0.00    +0.039 A 
ATOM      6  C   UNL     1       8.559  -3.691  -2.741  0.00  0.00    +0.014 A 
ATOM      7  C   UNL     1       9.886  -3.934  -2.922  0.00  0.00    +0.016 A 
ATOM      8  C   UNL     1      10.401  -5.216  -2.680  0.00  0.00    +0.065 A 
ATOM      9  C   UNL     1       9.537  -6.256  -2.248  0.00  0.00    +0.080 A 
ATOM     10  C   UNL     1       8.174  -5.984  -2.062  0.00  0.00    +0.041 A 
ATOM     11  N   UNL     1      10.045  -7.476  -2.021  0.00  0.00    -0.222 NA
ATOM     12  C   UNL     1      11.336  -7.714  -2.196  0.00  0.00    +0.183 A 
ATOM     13  N   UNL     1      12.194  -6.765  -2.603  0.00  0.00    -0.290 N 
ATOM     14  C   UNL     1      11.770  -5.508  -2.856  0.00  0.00    +0.262 A 
ATOM     15  O   UNL     1      12.631  -4.559  -3.264  0.00  0.00    -0.267 OA
ATOM     16  C   UNL     1      13.611  -7.098  -2.776  0.00  0.00    +0.154 C 
ATOM     17  S   UNL     1      11.932  -9.290  -1.891  0.00  0.00    -0.011 S 
ENDBRANCH   2   5
BRANCH   1  18
ATOM     18  C   UNL     1       4.355  -2.892  -2.181  0.00  0.00    +0.111 C 
BRANCH  18  19
ATOM     19  C   UNL     1       4.082  -1.425  -2.523  0.00  0.00    +0.081 C 
BRANCH  19  23
ATOM     20  C   UNL     1       0.707  -0.490  -1.238  0.00  0.00    +0.051 A 
ATOM     21  C   UNL     1       0.033  -0.725  -2.393  0.00  0.00    +0.010 A 
ATOM     22  S   UNL     1       1.368  -1.259  -3.451  0.00  0.00    -0.077 S 
ATOM     23  C   UNL     1       2.617  -1.129  -2.331  0.00  0.00    +0.080 A 
ATOM     24  N   UNL     1       2.008  -0.702  -1.252  0.00  0.00    -0.249 NA
ATOM     25  C   UNL     1      -1.435  -0.575  -2.697  0.00  0.00    +0.053 C 
BRANCH  20  27
ATOM     26  C   UNL     1      -0.019   1.526   0.010  0.00  0.00    +0.010 C 
ATOM     27  C   UNL     1       0.002  -0.004   0.002  0.00  0.00    +0.053 C 
ENDBRANCH  20  27
ENDBRANCH  19  23
ENDBRANCH  18  19
ENDBRANCH   1  18
TORSDOF 5
