REMARK  Name = ZINC67463606
REMARK  9 active torsions:
REMARK  status: ('A' for Active; 'I' for Inactive)
REMARK    1  A    between atoms: C_1  and  C_2
REMARK    2  A    between atoms: C_7  and  N_12
REMARK    3  A    between atoms: C_9  and  C_11
REMARK    4  A    between atoms: N_12  and  C_13
REMARK    5  A    between atoms: C_13  and  N_15
REMARK    6  A    between atoms: N_15  and  N_16
REMARK    7  A    between atoms: C_17  and  C_19
REMARK    8  A    between atoms: C_19  and  N_20
REMARK    9  A    between atoms: C_21  and  C_23
REMARK                            x       y       z     vdW  Elec       q    Type
REMARK                         _______ _______ _______ _____ _____    ______ ____
ROOT
ATOM      1  N   UNL     1       2.068  -1.440   5.868  0.00  0.00    -0.234 N 
ATOM      2  C   UNL     1       2.720  -1.886   6.960  0.00  0.00    +0.246 C 
ATOM      3  O   UNL     1       2.629  -1.284   8.009  0.00  0.00    -0.273 OA
ATOM      4  H   UNL     1       2.140  -1.921   5.029  0.00  0.00    +0.173 HD
ENDROOT
BRANCH   1   5
ATOM      5  N   UNL     1       1.286  -0.280   5.945  0.00  0.00    -0.246 N 
ATOM      6  H   UNL     1       1.213   0.201   6.784  0.00  0.00    +0.172 HD
BRANCH   5   7
ATOM      7  C   UNL     1       0.634   0.166   4.853  0.00  0.00    +0.147 C 
ATOM      8  S   UNL     1      -0.323   1.583   4.946  0.00  0.00    -0.017 S 
BRANCH   7   9
ATOM      9  N   UNL     1       0.735  -0.503   3.687  0.00  0.00    -0.322 N 
ATOM     10  H   UNL     1       1.276  -1.306   3.634  0.00  0.00    +0.148 HD
BRANCH   9  16
ATOM     11  C   UNL     1      -0.019   1.526   0.010  0.00  0.00    +0.008 C 
ATOM     12  C   UNL     1       0.002  -0.004   0.002  0.00  0.00    -0.009 C 
ATOM     13  C   UNL     1      -1.433  -0.534   0.013  0.00  0.00    +0.003 C 
ATOM     14  C   UNL     1      -2.149  -0.040   1.272  0.00  0.00    +0.002 C 
ATOM     15  C   UNL     1      -1.409  -0.547   2.511  0.00  0.00    +0.022 C 
ATOM     16  C   UNL     1       0.026  -0.018   2.500  0.00  0.00    +0.075 C 
ATOM     17  C   UNL     1       0.742  -0.511   1.242  0.00  0.00    +0.009 C 
ATOM     18  C   UNL     1       2.178   0.019   1.231  0.00  0.00    +0.009 C 
ENDBRANCH   9  16
ENDBRANCH   7   9
ENDBRANCH   5   7
ENDBRANCH   1   5
BRANCH   2  19
ATOM     19  C   UNL     1       3.561  -3.134   6.878  0.00  0.00    +0.202 C 
BRANCH  19  20
ATOM     20  N   UNL     1       4.160  -3.406   8.187  0.00  0.00    -0.303 N 
ATOM     21  C   UNL     1       4.958  -4.479   8.352  0.00  0.00    +0.245 C 
ATOM     22  O   UNL     1       5.181  -5.221   7.416  0.00  0.00    -0.270 OA
ATOM     23  H   UNL     1       3.982  -2.814   8.934  0.00  0.00    +0.150 HD
BRANCH  21  24
ATOM     24  C   UNL     1       5.563  -4.754   9.673  0.00  0.00    +0.042 A 
ATOM     25  C   UNL     1       5.304  -3.908  10.752  0.00  0.00    +0.051 A 
ATOM     26  C   UNL     1       5.871  -4.169  11.985  0.00  0.00    +0.127 A 
ATOM     27  C   UNL     1       6.696  -5.270  12.151  0.00  0.00    +0.076 A 
ATOM     28  C   UNL     1       6.956  -6.114  11.083  0.00  0.00    +0.127 A 
ATOM     29  C   UNL     1       6.389  -5.865   9.848  0.00  0.00    +0.051 A 
ATOM     30  F   UNL     1       7.761  -7.186  11.252  0.00  0.00    -0.205 F 
ATOM     31  F   UNL     1       5.622  -3.350  13.029  0.00  0.00    -0.205 F 
ENDBRANCH  21  24
ENDBRANCH  19  20
ENDBRANCH   2  19
TORSDOF 7
