REMARK  Name = ZINC57867801
REMARK  7 active torsions:
REMARK  status: ('A' for Active; 'I' for Inactive)
REMARK    1  A    between atoms: C_1  and  C_2
REMARK    2  A    between atoms: C_2  and  C_3
REMARK    3  A    between atoms: C_2  and  C_4
REMARK    4  A    between atoms: C_4  and  C_6
REMARK    5  A    between atoms: C_4  and  N_9
REMARK    6  A    between atoms: C_17  and  C_18
REMARK    7  A    between atoms: C_21  and  N_24
REMARK                            x       y       z     vdW  Elec       q    Type
REMARK                         _______ _______ _______ _____ _____    ______ ____
ROOT
ATOM      1  N   UNL     1      -1.413  -1.998   0.005  0.00  0.00    -0.311 N 
ATOM      2  C   UNL     1      -0.850  -2.806  -0.965  0.00  0.00    +0.068 A 
ATOM      3  C   UNL     1      -0.174  -2.557  -2.151  0.00  0.00    +0.028 A 
ATOM      4  C   UNL     1       0.274  -3.613  -2.917  0.00  0.00    +0.002 A 
ATOM      5  C   UNL     1       0.054  -4.921  -2.508  0.00  0.00    +0.002 A 
ATOM      6  C   UNL     1      -0.609  -5.186  -1.344  0.00  0.00    +0.028 A 
ATOM      7  C   UNL     1      -1.073  -4.131  -0.551  0.00  0.00    +0.065 A 
ATOM      8  N   UNL     1      -1.746  -4.075   0.624  0.00  0.00    -0.339 N 
ATOM      9  C   UNL     1      -1.944  -2.824   0.960  0.00  0.00    +0.120 A 
ATOM     10  H   UNL     1      -2.034  -4.845   1.140  0.00  0.00    +0.167 HD
ENDROOT
BRANCH   9  11
ATOM     11  C   UNL     1      -2.639  -2.371   2.183  0.00  0.00    +0.016 A 
ATOM     12  C   UNL     1      -2.226  -1.206   2.832  0.00  0.00    +0.013 A 
ATOM     13  C   UNL     1      -2.875  -0.786   3.972  0.00  0.00    +0.023 A 
ATOM     14  C   UNL     1      -3.942  -1.523   4.477  0.00  0.00    +0.025 A 
ATOM     15  C   UNL     1      -4.355  -2.685   3.833  0.00  0.00    +0.023 A 
ATOM     16  C   UNL     1      -3.714  -3.106   2.689  0.00  0.00    +0.013 A 
BRANCH  14  17
ATOM     17  N   UNL     1      -4.596  -1.097   5.631  0.00  0.00    -0.358 N 
ATOM     18  H   UNL     1      -4.308  -0.288   6.081  0.00  0.00    +0.142 HD
ATOM     19  H   UNL     1      -5.340  -1.610   5.985  0.00  0.00    +0.142 HD
ENDBRANCH  14  17
ENDBRANCH   9  11
BRANCH   1  20
ATOM     20  C   UNL     1      -1.433  -0.534   0.013  0.00  0.00    +0.204 C 
BRANCH  20  22
ATOM     21  C   UNL     1      -0.019   1.526   0.010  0.00  0.00    +0.010 C 
ATOM     22  C   UNL     1       0.002  -0.004   0.002  0.00  0.00    +0.017 C 
ATOM     23  C   UNL     1       0.742  -0.511   1.242  0.00  0.00    +0.010 C 
ENDBRANCH  20  22
BRANCH  20  24
ATOM     24  C   UNL     1      -2.162  -0.034  -1.208  0.00  0.00    +0.379 C 
ATOM     25  O   UNL     1      -1.752  -0.317  -2.321  0.00  0.00    -0.244 OA
ATOM     26  O   UNL     1      -3.162   0.652  -1.083  0.00  0.00    -0.244 OA
ENDBRANCH  20  24
ENDBRANCH   1  20
TORSDOF 5
