REMARK  Name = ZINC35723310
REMARK  9 active torsions:
REMARK  status: ('A' for Active; 'I' for Inactive)
REMARK    1  A    between atoms: C_1  and  C_2
REMARK    2  A    between atoms: C_2  and  C_3
REMARK    3  A    between atoms: C_7  and  N_9
REMARK    4  A    between atoms: N_12  and  C_13
REMARK    5  A    between atoms: C_16  and  N_29
REMARK    6  A    between atoms: C_17  and  C_19
REMARK    7  A    between atoms: N_21  and  C_22
REMARK    8  A    between atoms: C_22  and  C_23
REMARK    9  A    between atoms: C_32  and  C_35
REMARK                            x       y       z     vdW  Elec       q    Type
REMARK                         _______ _______ _______ _____ _____    ______ ____
ROOT
ATOM      1  C   UNL     1       6.780  -2.635  -4.472  0.00  0.00    +0.036 A 
ATOM      2  C   UNL     1       6.061  -2.859  -5.642  0.00  0.00    +0.025 A 
ATOM      3  C   UNL     1       6.702  -3.300  -6.780  0.00  0.00    +0.026 A 
ATOM      4  C   UNL     1       8.073  -3.525  -6.766  0.00  0.00    +0.042 A 
ATOM      5  C   UNL     1       8.804  -3.301  -5.590  0.00  0.00    +0.059 A 
ATOM      6  C   UNL     1       8.147  -2.849  -4.443  0.00  0.00    +0.038 A 
ENDROOT
BRANCH   4   7
ATOM      7  N   UNL     1       8.719  -3.970  -7.915  0.00  0.00    -0.329 N 
ATOM      8  C   UNL     1       8.861  -5.408  -8.183  0.00  0.00    +0.105 C 
ATOM      9  C   UNL     1       8.308  -5.706  -9.580  0.00  0.00    +0.022 C 
ATOM     10  C   UNL     1       9.002  -4.803 -10.603  0.00  0.00    -0.011 C 
ATOM     11  C   UNL     1       8.713  -3.337 -10.271  0.00  0.00    +0.022 C 
ATOM     12  C   UNL     1       9.266  -3.013  -8.885  0.00  0.00    +0.105 C 
ATOM     13  C   UNL     1       8.476  -5.122 -12.004  0.00  0.00    +0.007 C 
ENDBRANCH   4   7
BRANCH   1  17
ATOM     14  N   UNL     1       4.181  -2.068  -2.023  0.00  0.00    -0.269 N 
ATOM     15  C   UNL     1       4.854  -2.581  -3.073  0.00  0.00    +0.308 C 
ATOM     16  O   UNL     1       4.319  -3.398  -3.797  0.00  0.00    -0.252 OA
ATOM     17  N   UNL     1       6.119  -2.187  -3.320  0.00  0.00    -0.269 N 
ATOM     18  H   UNL     1       4.579  -1.362  -1.490  0.00  0.00    +0.156 HD
ATOM     19  H   UNL     1       6.571  -1.593  -2.701  0.00  0.00    +0.156 HD
BRANCH  14  24
ATOM     20  C   UNL     1       0.700  -2.188  -0.845  0.00  0.00    -0.046 A 
ATOM     21  C   UNL     1       0.395  -3.518  -1.066  0.00  0.00    +0.004 A 
ATOM     22  C   UNL     1       1.343  -4.369  -1.604  0.00  0.00    +0.002 A 
ATOM     23  C   UNL     1       2.600  -3.891  -1.922  0.00  0.00    +0.023 A 
ATOM     24  C   UNL     1       2.909  -2.555  -1.702  0.00  0.00    +0.035 A 
ATOM     25  C   UNL     1       1.953  -1.703  -1.166  0.00  0.00    +0.027 A 
BRANCH  20  27
ATOM     26  C   UNL     1      -1.153  -0.631  -1.386  0.00  0.00    +0.009 C 
ATOM     27  C   UNL     1      -0.337  -1.265  -0.258  0.00  0.00    +0.032 C 
ENDBRANCH  20  27
ENDBRANCH  14  24
ENDBRANCH   1  17
BRANCH   5  28
ATOM     28  C   UNL     1      10.259  -3.537  -5.565  0.00  0.00    +0.246 C 
ATOM     29  O   UNL     1      10.829  -3.926  -6.567  0.00  0.00    -0.270 OA
ATOM     30  N   UNL     1      10.958  -3.321  -4.433  0.00  0.00    -0.309 N 
ATOM     31  H   UNL     1      10.504  -3.010  -3.635  0.00  0.00    +0.149 HD
BRANCH  30  32
ATOM     32  C   UNL     1      12.404  -3.555  -4.409  0.00  0.00    +0.136 C 
BRANCH  32  33
ATOM     33  C   UNL     1      12.949  -3.236  -3.015  0.00  0.00    +0.135 C 
ATOM     34  C   UNL     1      14.488  -3.363  -3.013  0.00  0.00    +0.035 C 
ATOM     35  C   UNL     1      14.762  -4.019  -1.632  0.00  0.00    +0.031 C 
ATOM     36  C   UNL     1      13.515  -4.926  -1.484  0.00  0.00    +0.160 C 
ATOM     37  O   UNL     1      12.434  -4.176  -2.066  0.00  0.00    -0.375 OA
ENDBRANCH  32  33
ENDBRANCH  30  32
ENDBRANCH   5  28
TORSDOF 7
