REMARK  Name = ZINC01199809
REMARK  8 active torsions:
REMARK  status: ('A' for Active; 'I' for Inactive)
REMARK    1  A    between atoms: C_1  and  C_2
REMARK    2  A    between atoms: C_3  and  C_7
REMARK    3  A    between atoms: N_9  and  C_10
REMARK    4  A    between atoms: C_11  and  C_24
REMARK    5  A    between atoms: C_16  and  C_20
REMARK    6  A    between atoms: C_20  and  C_21
REMARK    7  A    between atoms: C_20  and  C_22
REMARK    8  A    between atoms: C_20  and  C_23
REMARK                            x       y       z     vdW  Elec       q    Type
REMARK                         _______ _______ _______ _____ _____    ______ ____
ROOT
ATOM      1  C   UNL     1      -4.812  -0.951   0.021  0.00  0.00    +0.085 A 
ATOM      2  C   UNL     1      -5.936  -1.763   0.027  0.00  0.00    +0.068 A 
ATOM      3  C   UNL     1      -7.230  -1.104   0.036  0.00  0.00    -0.023 A 
ATOM      4  C   UNL     1      -7.164   0.245   0.038  0.00  0.00    -0.004 A 
ATOM      5  S   UNL     1      -5.433   0.609   0.034  0.00  0.00    -0.077 S 
ATOM      6  C   UNL     1      -8.316   1.202   0.048  0.00  0.00    +0.046 C 
ATOM      7  C   UNL     1      -9.583   0.427   0.437  0.00  0.00    -0.000 C 
ATOM      8  C   UNL     1      -9.658  -0.853  -0.400  0.00  0.00    +0.009 C 
ATOM      9  C   UNL     1      -8.568  -1.830   0.043  0.00  0.00    +0.037 C 
ENDROOT
BRANCH   2  10
ATOM     10  C   UNL     1      -5.822  -3.224   0.024  0.00  0.00    +0.244 C 
ATOM     11  O   UNL     1      -5.768  -3.833   1.077  0.00  0.00    -0.270 OA
ATOM     12  N   UNL     1      -5.777  -3.894  -1.145  0.00  0.00    -0.325 N 
ATOM     13  H   UNL     1      -5.820  -3.410  -1.984  0.00  0.00    +0.145 HD
ATOM     14  H   UNL     1      -5.702  -4.862  -1.147  0.00  0.00    +0.145 HD
ENDBRANCH   2  10
BRANCH   1  17
ATOM     15  C   UNL     1      -2.508  -0.406   0.012  0.00  0.00    +0.252 C 
ATOM     16  O   UNL     1      -2.798   0.775   0.021  0.00  0.00    -0.270 OA
ATOM     17  N   UNL     1      -3.481  -1.338   0.011  0.00  0.00    -0.275 N 
ATOM     18  H   UNL     1      -3.250  -2.280   0.005  0.00  0.00    +0.156 HD
BRANCH  15  21
ATOM     19  C   UNL     1      -0.018   1.503   0.010  0.00  0.00    +0.087 C 
ATOM     20  C   UNL     1       0.002  -0.004   0.002  0.00  0.00    +0.114 A 
ATOM     21  C   UNL     1      -1.094  -0.817   0.003  0.00  0.00    +0.078 A 
ATOM     22  C   UNL     1      -0.567  -2.190  -0.008  0.00  0.00    +0.054 A 
ATOM     23  C   UNL     1       0.769  -2.073  -0.014  0.00  0.00    +0.196 A 
ATOM     24  O   UNL     1       1.097  -0.771  -0.013  0.00  0.00    -0.467 OA
ENDBRANCH  15  21
ENDBRANCH   1  17
BRANCH   7  25
ATOM     25  C   UNL     1     -10.816   1.292   0.168  0.00  0.00    -0.035 C 
ATOM     26  C   UNL     1     -10.873   1.648  -1.319  0.00  0.00    +0.011 C 
ATOM     27  C   UNL     1     -12.077   0.518   0.556  0.00  0.00    +0.011 C 
ATOM     28  C   UNL     1     -10.729   2.576   0.996  0.00  0.00    +0.011 C 
ENDBRANCH   7  25
TORSDOF 4
