REMARK  Name = ZINC37899974
REMARK  10 active torsions:
REMARK  status: ('A' for Active; 'I' for Inactive)
REMARK    1  A    between atoms: C_1  and  C_2
REMARK    2  A    between atoms: C_2  and  N_3
REMARK    3  A    between atoms: N_3  and  C_4
REMARK    4  A    between atoms: N_3  and  C_7
REMARK    5  A    between atoms: C_4  and  C_5
REMARK    6  A    between atoms: C_5  and  O_6
REMARK    7  A    between atoms: C_7  and  C_9
REMARK    8  A    between atoms: C_7  and  C_10
REMARK    9  A    between atoms: N_12  and  C_13
REMARK   10  A    between atoms: C_16  and  N_20
REMARK                            x       y       z     vdW  Elec       q    Type
REMARK                         _______ _______ _______ _____ _____    ______ ____
ROOT
ATOM      1  C   UNL     1       1.439  -2.190  -0.051  0.00  0.00    +0.203 C 
ATOM      2  O   UNL     1       1.484  -1.498  -1.046  0.00  0.00    -0.277 OA
ATOM      3  N   UNL     1       2.164  -3.325   0.013  0.00  0.00    -0.284 N 
ATOM      4  H   UNL     1       2.086  -3.907   0.785  0.00  0.00    +0.155 HD
ENDROOT
BRANCH   3   5
ATOM      5  C   UNL     1       3.031  -3.664  -1.036  0.00  0.00    +0.070 A 
ATOM      6  C   UNL     1       3.840  -2.691  -1.611  0.00  0.00    +0.065 A 
ATOM      7  C   UNL     1       4.694  -3.025  -2.644  0.00  0.00    +0.044 A 
ATOM      8  C   UNL     1       4.744  -4.333  -3.109  0.00  0.00    +0.027 A 
ATOM      9  C   UNL     1       3.935  -5.306  -2.535  0.00  0.00    +0.044 A 
ATOM     10  C   UNL     1       3.085  -4.973  -1.497  0.00  0.00    +0.065 A 
ATOM     11 CL   UNL     1       2.080  -6.190  -0.774  0.00  0.00    -0.082 Cl
ATOM     12 CL   UNL     1       3.776  -1.056  -1.030  0.00  0.00    -0.082 Cl
BRANCH   8  13
ATOM     13  N   UNL     1       5.608  -4.671  -4.155  0.00  0.00    -0.358 N 
ATOM     14  H   UNL     1       6.173  -3.992  -4.556  0.00  0.00    +0.142 HD
ATOM     15  H   UNL     1       5.643  -5.585  -4.479  0.00  0.00    +0.142 HD
ENDBRANCH   8  13
ENDBRANCH   3   5
BRANCH   1  16
ATOM     16  C   UNL     1       0.574  -1.782   1.113  0.00  0.00    +0.016 C 
ATOM     17  C   UNL     1       1.409  -0.981   2.114  0.00  0.00    -0.004 C 
BRANCH  16  18
ATOM     18  N   UNL     1      -0.538  -0.953   0.629  0.00  0.00    +0.388 N 
ATOM     19  H   UNL     1      -0.171  -0.140   0.158  0.00  0.00    -0.081 HD
BRANCH  18  21
ATOM     20  C   UNL     1      -2.020  -2.893   0.439  0.00  0.00    -0.017 C 
ATOM     21  C   UNL     1      -1.359  -1.732  -0.307  0.00  0.00    -0.081 C 
ENDBRANCH  18  21
BRANCH  18  22
ATOM     22  C   UNL     1      -1.364  -0.528   1.768  0.00  0.00    -0.050 C 
BRANCH  22  23
ATOM     23  C   UNL     1      -2.453   0.429   1.279  0.00  0.00    +0.137 C 
BRANCH  23  24
ATOM     24  O   UNL     1      -3.415  -0.297   0.510  0.00  0.00    -0.397 OA
ATOM     25  H   UNL     1      -4.095   0.259   0.105  0.00  0.00    +0.209 HD
ENDBRANCH  23  24
ENDBRANCH  22  23
ENDBRANCH  18  22
ENDBRANCH  16  18
ENDBRANCH   1  16
TORSDOF 8
