REMARK  Name = ZINC40463428
REMARK  7 active torsions:
REMARK  status: ('A' for Active; 'I' for Inactive)
REMARK    1  A    between atoms: C_1  and  C_2
REMARK    2  A    between atoms: C_2  and  N_3
REMARK    3  A    between atoms: C_4  and  N_26
REMARK    4  A    between atoms: C_5  and  C_12
REMARK    5  A    between atoms: C_12  and  C_14
REMARK    6  A    between atoms: C_14  and  N_15
REMARK    7  A    between atoms: C_23  and  C_25
REMARK                            x       y       z     vdW  Elec       q    Type
REMARK                         _______ _______ _______ _____ _____    ______ ____
ROOT
ATOM      1  N   UNL     1      -1.374  -0.524  -0.101  0.00  0.00    -0.282 N 
ATOM      2  C   UNL     1      -1.894  -0.730   1.145  0.00  0.00    +0.116 A 
ATOM      3  C   UNL     1      -3.212  -1.203   1.262  0.00  0.00    +0.121 A 
ATOM      4  C   UNL     1      -3.965  -1.452   0.026  0.00  0.00    +0.266 A 
ATOM      5  O   UNL     1      -5.110  -1.861   0.067  0.00  0.00    -0.267 OA
ATOM      6  N   UNL     1      -3.360  -1.216  -1.157  0.00  0.00    -0.274 N 
ATOM      7  H   UNL     1      -3.844  -1.376  -1.982  0.00  0.00    +0.173 HD
ATOM      8  C   UNL     1      -2.098  -0.759  -1.206  0.00  0.00    +0.331 A 
ATOM      9  O   UNL     1      -1.591  -0.555  -2.292  0.00  0.00    -0.246 OA
ENDROOT
BRANCH   2  10
ATOM     10  N   UNL     1      -1.147  -0.482   2.256  0.00  0.00    -0.344 N 
ATOM     11  H   UNL     1      -0.214  -0.232   2.167  0.00  0.00    +0.144 HD
ATOM     12  H   UNL     1      -1.548  -0.555   3.136  0.00  0.00    +0.144 HD
ENDBRANCH   2  10
BRANCH   1  14
ATOM     13  C   UNL     1      -0.008   1.499  -0.250  0.00  0.00    +0.027 C 
ATOM     14  C   UNL     1      -0.001  -0.031  -0.233  0.00  0.00    +0.125 C 
ENDBRANCH   1  14
BRANCH   3  15
ATOM     15  C   UNL     1      -3.794  -1.432   2.527  0.00  0.00    +0.189 C 
ATOM     16  O   UNL     1      -3.195  -1.121   3.537  0.00  0.00    -0.290 OA
BRANCH  15  17
ATOM     17  C   UNL     1      -5.160  -2.063   2.626  0.00  0.00    +0.185 C 
BRANCH  17  18
ATOM     18  N   UNL     1      -5.537  -2.192   4.035  0.00  0.00    -0.319 N 
ATOM     19  C   UNL     1      -5.257  -3.298   4.840  0.00  0.00    +0.034 A 
ATOM     20  C   UNL     1      -4.588  -4.481   4.517  0.00  0.00    +0.023 A 
ATOM     21  C   UNL     1      -4.412  -5.462   5.469  0.00  0.00    +0.002 A 
ATOM     22  C   UNL     1      -4.899  -5.284   6.751  0.00  0.00    +0.000 A 
ATOM     23  C   UNL     1      -5.563  -4.116   7.078  0.00  0.00    +0.005 A 
ATOM     24  C   UNL     1      -5.740  -3.129   6.128  0.00  0.00    -0.025 A 
ATOM     25  C   UNL     1      -6.416  -1.779   6.214  0.00  0.00    +0.059 C 
ATOM     26  C   UNL     1      -6.259  -1.178   4.808  0.00  0.00    +0.075 C 
ATOM     27  C   UNL     1      -7.634  -0.917   4.188  0.00  0.00    +0.028 C 
ENDBRANCH  17  18
ENDBRANCH  15  17
ENDBRANCH   3  15
TORSDOF 5
