REMARK  Name = ZINC40473522
REMARK  6 active torsions:
REMARK  status: ('A' for Active; 'I' for Inactive)
REMARK    1  A    between atoms: C_1  and  C_2
REMARK    2  A    between atoms: C_2  and  C_3
REMARK    3  A    between atoms: C_2  and  C_4
REMARK    4  A    between atoms: C_4  and  C_6
REMARK    5  A    between atoms: C_4  and  N_22
REMARK    6  A    between atoms: C_10  and  C_19
REMARK                            x       y       z     vdW  Elec       q    Type
REMARK                         _______ _______ _______ _____ _____    ______ ____
ROOT
ATOM      1  C   UNL     1      -1.413  -2.041   0.005  0.00  0.00    +0.206 C 
ATOM      2  O   UNL     1      -1.506  -0.831  -0.003  0.00  0.00    -0.277 OA
ATOM      3  N   UNL     1      -1.112  -2.700  -1.131  0.00  0.00    -0.265 N 
ATOM      4  C   UNL     1      -1.090  -4.173  -1.175  0.00  0.00    +0.170 C 
ATOM      5  C   UNL     1       0.138  -4.593  -1.995  0.00  0.00    +0.303 C 
ATOM      6  O   UNL     1       0.042  -4.016  -3.299  0.00  0.00    -0.474 OA
ATOM      7  C   UNL     1      -0.230  -2.688  -3.385  0.00  0.00    +0.143 A 
ATOM      8  C   UNL     1      -0.815  -2.008  -2.318  0.00  0.00    +0.078 A 
ATOM      9  C   UNL     1      -1.097  -0.655  -2.422  0.00  0.00    +0.027 A 
ATOM     10  C   UNL     1      -0.799   0.022  -3.590  0.00  0.00    +0.002 A 
ATOM     11  C   UNL     1      -0.222  -0.648  -4.652  0.00  0.00    +0.004 A 
ATOM     12  C   UNL     1       0.071  -1.999  -4.550  0.00  0.00    +0.047 A 
ENDROOT
BRANCH   5  13
ATOM     13  C   UNL     1       0.181  -6.096  -2.106  0.00  0.00    +0.397 C 
ATOM     14  O   UNL     1       0.052  -6.630  -3.194  0.00  0.00    -0.242 OA
ATOM     15  O   UNL     1       0.343  -6.777  -1.108  0.00  0.00    -0.242 OA
ENDBRANCH   5  13
BRANCH   1  16
ATOM     16  C   UNL     1      -1.633  -2.805   1.284  0.00  0.00    +0.016 C 
BRANCH  16  17
ATOM     17  N   UNL     1      -1.357  -1.930   2.431  0.00  0.00    +0.386 N 
ATOM     18  H   UNL     1      -1.504  -2.442   3.288  0.00  0.00    -0.089 HD
ATOM     19  H   UNL     1      -0.400  -1.613   2.390  0.00  0.00    -0.089 HD
ATOM     20  H   UNL     1      -1.976  -1.134   2.404  0.00  0.00    -0.089 HD
ENDBRANCH  16  17
BRANCH  16  22
ATOM     21  C   UNL     1      -3.308  -4.063   2.647  0.00  0.00    +0.006 C 
ATOM     22  C   UNL     1      -3.084  -3.286   1.348  0.00  0.00    -0.023 C 
ATOM     23  C   UNL     1      -4.024  -2.080   1.307  0.00  0.00    +0.006 C 
ENDBRANCH  16  22
ENDBRANCH   1  16
TORSDOF 4
