REMARK  Name = ZINC34784865
REMARK  10 active torsions:
REMARK  status: ('A' for Active; 'I' for Inactive)
REMARK    1  A    between atoms: C_1  and  C_2
REMARK    2  A    between atoms: C_2  and  C_3
REMARK    3  A    between atoms: C_2  and  C_4
REMARK    4  A    between atoms: C_2  and  C_5
REMARK    5  A    between atoms: C_6  and  N_19
REMARK    6  A    between atoms: C_7  and  N_18
REMARK    7  A    between atoms: N_8  and  C_10
REMARK    8  A    between atoms: N_22  and  C_23
REMARK    9  A    between atoms: N_22  and  C_24
REMARK   10  A    between atoms: C_24  and  C_25
REMARK                            x       y       z     vdW  Elec       q    Type
REMARK                         _______ _______ _______ _____ _____    ______ ____
ROOT
ATOM      1  C   UNL     1       0.462  -0.473  -1.404  0.00  0.00    +0.092 A 
ATOM      2  C   UNL     1       0.820  -1.806  -1.642  0.00  0.00    +0.098 A 
ATOM      3  C   UNL     1       1.740  -1.816  -2.650  0.00  0.00    +0.142 A 
ATOM      4  N   UNL     1       1.947  -0.523  -3.027  0.00  0.00    -0.214 N 
ATOM      5  N   UNL     1       1.129   0.291  -2.233  0.00  0.00    -0.167 NA
ENDROOT
BRANCH   4   6
ATOM      6  C   UNL     1       2.819  -0.085  -4.034  0.00  0.00    +0.105 A 
ATOM      7  C   UNL     1       2.819  -0.710  -5.273  0.00  0.00    +0.069 A 
ATOM      8  C   UNL     1       3.680  -0.276  -6.265  0.00  0.00    +0.126 A 
ATOM      9  C   UNL     1       4.541   0.782  -6.022  0.00  0.00    +0.041 A 
ATOM     10  C   UNL     1       4.543   1.406  -4.789  0.00  0.00    +0.043 A 
ATOM     11  C   UNL     1       3.680   0.980  -3.795  0.00  0.00    +0.149 A 
ATOM     12  F   UNL     1       3.678   1.594  -2.592  0.00  0.00    -0.203 F 
ATOM     13  F   UNL     1       3.682  -0.884  -7.471  0.00  0.00    -0.205 F 
ENDBRANCH   4   6
BRANCH   2  14
ATOM     14  N   UNL     1       0.319  -2.937  -0.961  0.00  0.00    -0.265 N 
ATOM     15  C   UNL     1       0.148  -4.100  -1.620  0.00  0.00    +0.307 C 
ATOM     16  O   UNL     1       0.347  -4.154  -2.819  0.00  0.00    -0.252 OA
ATOM     17  N   UNL     1      -0.242  -5.203  -0.952  0.00  0.00    -0.284 N 
ATOM     18  C   UNL     1      -0.482  -5.138   0.492  0.00  0.00    +0.134 C 
ATOM     19  H   UNL     1       0.098  -2.877  -0.018  0.00  0.00    +0.157 HD
BRANCH  17  20
ATOM     20  C   UNL     1      -0.428  -6.467  -1.668  0.00  0.00    +0.144 C 
BRANCH  20  21
ATOM     21  C   UNL     1       0.868  -7.236  -1.673  0.00  0.00    -0.030 A 
ATOM     22  C   UNL     1       1.778  -7.050  -2.697  0.00  0.00    +0.005 A 
ATOM     23  C   UNL     1       2.967  -7.756  -2.701  0.00  0.00    +0.000 A 
ATOM     24  C   UNL     1       3.246  -8.647  -1.682  0.00  0.00    +0.000 A 
ATOM     25  C   UNL     1       2.336  -8.833  -0.658  0.00  0.00    +0.000 A 
ATOM     26  C   UNL     1       1.149  -8.124  -0.651  0.00  0.00    +0.005 A 
ENDBRANCH  20  21
ENDBRANCH  17  20
ENDBRANCH   2  14
BRANCH   1  28
ATOM     27  C   UNL     1      -0.642   1.526  -0.437  0.00  0.00    +0.017 C 
ATOM     28  C   UNL     1      -0.529   0.002  -0.373  0.00  0.00    +0.008 C 
ATOM     29  C   UNL     1      -0.055  -0.416   1.021  0.00  0.00    +0.017 C 
ATOM     30  C   UNL     1      -1.897  -0.623  -0.654  0.00  0.00    +0.017 C 
ENDBRANCH   1  28
BRANCH   3  31
ATOM     31  N   UNL     1       2.356  -2.944  -3.195  0.00  0.00    -0.342 N 
ATOM     32  H   UNL     1       2.117  -3.828  -2.877  0.00  0.00    +0.144 HD
ATOM     33  H   UNL     1       3.024  -2.843  -3.891  0.00  0.00    +0.144 HD
ENDBRANCH   3  31
TORSDOF 6
