REMARK  Name = ZINC66686068
REMARK  9 active torsions:
REMARK  status: ('A' for Active; 'I' for Inactive)
REMARK    1  A    between atoms: C_1  and  C_2
REMARK    2  A    between atoms: C_5  and  N_14
REMARK    3  A    between atoms: C_7  and  C_8
REMARK    4  A    between atoms: N_10  and  C_11
REMARK    5  A    between atoms: C_11  and  C_12
REMARK    6  A    between atoms: C_11  and  C_13
REMARK    7  A    between atoms: N_17  and  C_18
REMARK    8  A    between atoms: N_17  and  C_19
REMARK    9  A    between atoms: C_19  and  C_20
REMARK                            x       y       z     vdW  Elec       q    Type
REMARK                         _______ _______ _______ _____ _____    ______ ____
ROOT
ATOM      1  C   UNL     1      -0.226   1.308   0.422  0.00  0.00    +0.044 C 
ATOM      2  C   UNL     1      -0.139  -0.185   0.240  0.00  0.00    -0.038 A 
ATOM      3  C   UNL     1      -0.177  -0.730  -1.028  0.00  0.00    +0.006 A 
ATOM      4  C   UNL     1      -0.097  -2.099  -1.200  0.00  0.00    +0.023 A 
ATOM      5  C   UNL     1       0.022  -2.937  -0.097  0.00  0.00    +0.036 A 
ATOM      6  C   UNL     1       0.061  -2.400   1.180  0.00  0.00    +0.036 A 
ATOM      7  C   UNL     1      -0.014  -1.018   1.353  0.00  0.00    +0.041 A 
ENDROOT
BRANCH   5   8
ATOM      8  N   UNL     1       0.101  -4.322  -0.276  0.00  0.00    -0.269 N 
ATOM      9  C   UNL     1      -0.472  -5.152   0.618  0.00  0.00    +0.306 C 
ATOM     10  O   UNL     1      -0.976  -4.701   1.629  0.00  0.00    -0.252 OA
ATOM     11  N   UNL     1      -0.487  -6.480   0.392  0.00  0.00    -0.288 N 
ATOM     12  C   UNL     1       0.120  -7.023  -0.825  0.00  0.00    +0.133 C 
ATOM     13  H   UNL     1       0.569  -4.686  -1.045  0.00  0.00    +0.156 HD
BRANCH  11  14
ATOM     14  C   UNL     1      -1.110  -7.382   1.365  0.00  0.00    +0.112 C 
BRANCH  14  15
ATOM     15  C   UNL     1      -2.589  -7.565   1.016  0.00  0.00    +0.006 C 
ATOM     16  C   UNL     1      -2.740  -8.399  -0.280  0.00  0.00    +0.005 C 
ATOM     17  C   UNL     1      -4.168  -8.985  -0.144  0.00  0.00    +0.000 C 
ATOM     18  C   UNL     1      -4.302  -9.312   1.357  0.00  0.00    +0.000 C 
ATOM     19  C   UNL     1      -3.297  -8.409   2.095  0.00  0.00    +0.005 C 
ENDBRANCH  14  15
ENDBRANCH  11  14
ENDBRANCH   5   8
BRANCH   7  20
ATOM     20  C   UNL     1       0.033  -0.437   2.712  0.00  0.00    +0.245 C 
ATOM     21  O   UNL     1      -0.095   0.762   2.866  0.00  0.00    -0.270 OA
ATOM     22  N   UNL     1       0.219  -1.237   3.781  0.00  0.00    -0.309 N 
ATOM     23  H   UNL     1       0.321  -2.193   3.659  0.00  0.00    +0.149 HD
BRANCH  22  24
ATOM     24  C   UNL     1       0.266  -0.661   5.128  0.00  0.00    +0.067 C 
ATOM     25  C   UNL     1      -1.158  -0.514   5.669  0.00  0.00    +0.027 C 
ATOM     26  C   UNL     1       1.069  -1.582   6.048  0.00  0.00    +0.027 C 
ENDBRANCH  22  24
ENDBRANCH   7  20
TORSDOF 5
