REMARK  Name = ZINC61140906
REMARK  4 active torsions:
REMARK  status: ('A' for Active; 'I' for Inactive)
REMARK    1  A    between atoms: C_1  and  N_2
REMARK    2  A    between atoms: C_8  and  S_9
REMARK    3  A    between atoms: S_9  and  C_10
REMARK    4  A    between atoms: C_10  and  C_11
REMARK                            x       y       z     vdW  Elec       q    Type
REMARK                         _______ _______ _______ _____ _____    ______ ____
ROOT
ATOM      1  C   UNL     1       0.072  -1.470   5.223  0.00  0.00    -0.032 A 
ATOM      2  C   UNL     1       1.276  -1.296   5.883  0.00  0.00    +0.054 A 
ATOM      3  C   UNL     1       1.281  -0.991   7.234  0.00  0.00    +0.164 A 
ATOM      4  C   UNL     1       0.084  -0.860   7.922  0.00  0.00    +0.180 A 
ATOM      5  C   UNL     1      -1.120  -1.034   7.259  0.00  0.00    +0.086 A 
ATOM      6  C   UNL     1      -1.121  -1.334   5.907  0.00  0.00    +0.028 A 
ATOM      7 CL   UNL     1      -2.620  -0.871   8.117  0.00  0.00    -0.080 Cl
ATOM      8  O   UNL     1       0.100  -0.558   9.253  0.00  0.00    -0.487 OA
ATOM      9  C   UNL     1       0.607  -1.577  10.118  0.00  0.00    +0.232 C 
ATOM     10  C   UNL     1       2.124  -1.510  10.198  0.00  0.00    +0.082 C 
ATOM     11  C   UNL     1       2.788  -1.815   8.865  0.00  0.00    +0.232 C 
ATOM     12  O   UNL     1       2.462  -0.817   7.896  0.00  0.00    -0.488 OA
ENDROOT
BRANCH   1  13
ATOM     13  C   UNL     1       0.062  -1.801   3.753  0.00  0.00    +0.112 C 
BRANCH  13  14
ATOM     14  S   UNL     1       0.033  -0.266   2.788  0.00  0.00    -0.081 S 
BRANCH  14  22
ATOM     15  C   UNL     1      -0.018   1.461   0.010  0.00  0.00    +0.156 C 
ATOM     16  N   UNL     1       0.002  -0.004   0.002  0.00  0.00    -0.274 N 
ATOM     17  C   UNL     1       0.008  -0.787  -1.095  0.00  0.00    +0.345 A 
ATOM     18  O   UNL     1      -0.001  -0.405  -2.252  0.00  0.00    -0.245 OA
ATOM     19  N   UNL     1       0.027  -2.070  -0.680  0.00  0.00    -0.226 N 
ATOM     20  H   UNL     1       0.036  -2.857  -1.246  0.00  0.00    +0.194 HD
ATOM     21  N   UNL     1       0.033  -2.057   0.722  0.00  0.00    -0.145 NA
ATOM     22  C   UNL     1       0.024  -0.816   1.114  0.00  0.00    +0.192 A 
ENDBRANCH  14  22
ENDBRANCH  13  14
ENDBRANCH   1  13
TORSDOF 3
