REMARK  Name = ZINC66135733
REMARK  6 active torsions:
REMARK  status: ('A' for Active; 'I' for Inactive)
REMARK    1  A    between atoms: C_1  and  C_2
REMARK    2  A    between atoms: C_3  and  C_20
REMARK    3  A    between atoms: C_4  and  C_9
REMARK    4  A    between atoms: C_9  and  C_11
REMARK    5  A    between atoms: C_9  and  O_12
REMARK    6  A    between atoms: O_12  and  C_13
REMARK                            x       y       z     vdW  Elec       q    Type
REMARK                         _______ _______ _______ _____ _____    ______ ____
ROOT
ATOM      1  C   UNL     1       0.661   1.429   0.353  0.00  0.00    +0.066 C 
ATOM      2  C   UNL     1       0.452  -0.059   0.232  0.00  0.00    +0.056 A 
ATOM      3  C   UNL     1       0.436  -0.674  -1.028  0.00  0.00    +0.082 A 
ATOM      4  C   UNL     1       0.238  -2.059  -1.087  0.00  0.00    +0.099 A 
ATOM      5  N   UNL     1       0.075  -2.731   0.038  0.00  0.00    -0.215 NA
ATOM      6  C   UNL     1       0.096  -2.112   1.211  0.00  0.00    +0.213 A 
ATOM      7  N   UNL     1       0.286  -0.802   1.309  0.00  0.00    -0.219 NA
ATOM      8  N   UNL     1      -0.079  -2.851   2.362  0.00  0.00    -0.327 N 
ATOM      9  H   UNL     1      -0.215  -3.810   2.306  0.00  0.00    +0.145 HD
ATOM     10  H   UNL     1      -0.066  -2.413   3.227  0.00  0.00    +0.145 HD
ENDROOT
BRANCH   3  11
ATOM     11  C   UNL     1       0.622   0.117  -2.259  0.00  0.00    +0.245 C 
ATOM     12  O   UNL     1       1.740   0.293  -2.706  0.00  0.00    -0.270 OA
ATOM     13  N   UNL     1      -0.446   0.646  -2.889  0.00  0.00    -0.325 N 
ATOM     14  H   UNL     1      -1.337   0.506  -2.532  0.00  0.00    +0.145 HD
ATOM     15  H   UNL     1      -0.323   1.166  -3.698  0.00  0.00    +0.145 HD
ENDBRANCH   3  11
BRANCH   4  16
ATOM     16  C   UNL     1       0.212  -2.772  -2.414  0.00  0.00    +0.220 C 
ATOM     17  C   UNL     1      -1.231  -3.138  -2.768  0.00  0.00    +0.059 C 
BRANCH  16  18
ATOM     18  O   UNL     1       0.998  -3.962  -2.331  0.00  0.00    -0.483 OA
BRANCH  18  19
ATOM     19  C   UNL     1       1.514  -4.443  -3.493  0.00  0.00    +0.122 A 
ATOM     20  C   UNL     1       1.180  -3.847  -4.701  0.00  0.00    +0.047 A 
ATOM     21  C   UNL     1       1.704  -4.338  -5.881  0.00  0.00    +0.023 A 
ATOM     22  C   UNL     1       2.562  -5.423  -5.859  0.00  0.00    +0.041 A 
ATOM     23  C   UNL     1       2.896  -6.019  -4.656  0.00  0.00    +0.023 A 
ATOM     24  C   UNL     1       2.379  -5.528  -3.473  0.00  0.00    +0.047 A 
ATOM     25 CL   UNL     1       3.220  -6.038  -7.343  0.00  0.00    -0.084 Cl
ENDBRANCH  18  19
ENDBRANCH  16  18
ENDBRANCH   4  16
TORSDOF 4
