REMARK  Name = ZINC09425680
REMARK  5 active torsions:
REMARK  status: ('A' for Active; 'I' for Inactive)
REMARK    1  A    between atoms: C_1  and  C_2
REMARK    2  A    between atoms: C_5  and  C_8
REMARK    3  A    between atoms: N_17  and  N_18
REMARK    4  A    between atoms: N_18  and  C_19
REMARK    5  A    between atoms: C_26  and  C_28
REMARK                            x       y       z     vdW  Elec       q    Type
REMARK                         _______ _______ _______ _____ _____    ______ ____
ROOT
ATOM      1  C   UNL     1       1.335  -4.240  -0.006  0.00  0.00    +0.080 A 
ATOM      2  C   UNL     1       0.971  -4.860   1.157  0.00  0.00    +0.077 A 
ATOM      3  S   UNL     1       0.475  -6.462   0.537  0.00  0.00    -0.058 S 
ATOM      4  C   UNL     1       0.802  -6.143  -1.191  0.00  0.00    +0.189 A 
ATOM      5  N   UNL     1       1.236  -4.897  -1.151  0.00  0.00    -0.223 NA
ATOM      6  N   UNL     1       0.637  -6.984  -2.288  0.00  0.00    -0.130 N 
ATOM      7  C   UNL     1       0.172  -8.248  -2.228  0.00  0.00    +0.294 C 
ATOM      8  O   UNL     1      -0.175  -8.857  -1.231  0.00  0.00    -0.266 OA
ATOM      9  C   UNL     1       0.168  -8.744  -3.615  0.00  0.00    +0.168 C 
ATOM     10  N   UNL     1      -0.209  -9.935  -4.044  0.00  0.00    -0.175 NA
ATOM     11  C   UNL     1       0.676  -7.621  -4.419  0.00  0.00    +0.089 C 
ATOM     12  N   UNL     1       0.923  -6.639  -3.608  0.00  0.00    -0.173 NA
ATOM     13  C   UNL     1       0.870  -7.612  -5.913  0.00  0.00    +0.070 C 
ENDROOT
BRANCH   1  18
ATOM     14  C   UNL     1       3.262   1.186   0.071  0.00  0.00    +0.044 C 
ATOM     15  C   UNL     1       2.758  -0.234   0.051  0.00  0.00    -0.050 A 
ATOM     16  C   UNL     1       2.658  -0.912  -1.150  0.00  0.00    +0.004 A 
ATOM     17  C   UNL     1       2.197  -2.213  -1.175  0.00  0.00    +0.010 A 
ATOM     18  C   UNL     1       1.832  -2.842   0.014  0.00  0.00    +0.001 A 
ATOM     19  C   UNL     1       1.934  -2.154   1.221  0.00  0.00    +0.010 A 
ATOM     20  C   UNL     1       2.401  -0.855   1.234  0.00  0.00    +0.004 A 
ENDBRANCH   1  18
BRANCH  10  21
ATOM     21  N   UNL     1      -0.274 -10.175  -5.309  0.00  0.00    -0.236 N 
ATOM     22  H   UNL     1      -0.129  -9.458  -5.947  0.00  0.00    +0.174 HD
BRANCH  21  23
ATOM     23  C   UNL     1      -0.552 -11.465  -5.762  0.00  0.00    +0.062 A 
ATOM     24  C   UNL     1      -0.765 -12.492  -4.850  0.00  0.00    +0.026 A 
ATOM     25  C   UNL     1      -1.040 -13.767  -5.302  0.00  0.00    +0.002 A 
ATOM     26  C   UNL     1      -1.105 -14.024  -6.660  0.00  0.00    +0.001 A 
ATOM     27  C   UNL     1      -0.893 -13.005  -7.570  0.00  0.00    +0.017 A 
ATOM     28  C   UNL     1      -0.622 -11.725  -7.126  0.00  0.00    +0.040 A 
ATOM     29 BR   UNL     1      -0.340 -10.330  -8.372  0.00  0.00    -0.048 Br
ENDBRANCH  21  23
ENDBRANCH  10  21
TORSDOF 3
