REMARK  Name = ZINC37686011
REMARK  4 active torsions:
REMARK  status: ('A' for Active; 'I' for Inactive)
REMARK    1  A    between atoms: C_4  and  N_21
REMARK    2  A    between atoms: C_7  and  C_11
REMARK    3  A    between atoms: C_11  and  S_12
REMARK    4  A    between atoms: S_12  and  C_15
REMARK                            x       y       z     vdW  Elec       q    Type
REMARK                         _______ _______ _______ _____ _____    ______ ____
ROOT
ATOM      1  C   UNL     1      -0.017   1.388   0.010  0.00  0.00    +0.020 A 
ATOM      2  C   UNL     1       1.159   2.086   0.002  0.00  0.00    +0.013 A 
ATOM      3  C   UNL     1       2.361   1.359  -0.013  0.00  0.00    +0.021 A 
ATOM      4  C   UNL     1       3.613   2.011  -0.021  0.00  0.00    +0.034 A 
ATOM      5  C   UNL     1       4.768   1.257  -0.036  0.00  0.00    +0.024 A 
ATOM      6  C   UNL     1       4.706  -0.133  -0.043  0.00  0.00    +0.009 A 
ATOM      7  C   UNL     1       3.511  -0.786  -0.036  0.00  0.00    -0.000 A 
ATOM      8  C   UNL     1       2.310  -0.056  -0.020  0.00  0.00    +0.077 A 
ATOM      9  N   UNL     1       1.127  -0.679  -0.012  0.00  0.00    -0.255 NA
ATOM     10  C   UNL     1       0.002  -0.004   0.002  0.00  0.00    +0.111 A 
ENDROOT
BRANCH   4  11
ATOM     11  N   UNL     1       3.682   3.401  -0.015  0.00  0.00    -0.357 N 
ATOM     12  H   UNL     1       2.866   3.927  -0.004  0.00  0.00    +0.142 HD
ATOM     13  H   UNL     1       4.544   3.844  -0.020  0.00  0.00    +0.142 HD
ENDBRANCH   4  11
BRANCH   7  14
ATOM     14  C   UNL     1       3.477  -2.292  -0.045  0.00  0.00    +0.203 C 
BRANCH  14  15
ATOM     15  S   UNL     1       3.479  -2.908   1.662  0.00  0.00    -0.024 S 
ATOM     16  O   UNL     1       4.718  -2.559   2.264  0.00  0.00    -0.174 OA
ATOM     17  O   UNL     1       2.268  -2.503   2.287  0.00  0.00    -0.174 OA
BRANCH  15  18
ATOM     18  C   UNL     1       3.435  -4.707   1.439  0.00  0.00    +0.131 C 
ATOM     19  C   UNL     1       2.237  -5.085   0.567  0.00  0.00    +0.026 C 
ATOM     20  C   UNL     1       2.200  -6.603   0.379  0.00  0.00    +0.002 C 
ATOM     21  C   UNL     1       2.072  -7.282   1.743  0.00  0.00    +0.000 C 
ATOM     22  C   UNL     1       3.270  -6.905   2.616  0.00  0.00    +0.002 C 
ATOM     23  C   UNL     1       3.307  -5.387   2.804  0.00  0.00    +0.026 C 
ENDBRANCH  15  18
ENDBRANCH  14  15
ENDBRANCH   7  14
TORSDOF 4
