REMARK  Name = ZINC03578082
REMARK  8 active torsions:
REMARK  status: ('A' for Active; 'I' for Inactive)
REMARK    1  A    between atoms: C_1  and  C_2
REMARK    2  A    between atoms: C_5  and  C_7
REMARK    3  A    between atoms: N_8  and  N_9
REMARK    4  A    between atoms: C_10  and  C_12
REMARK    5  A    between atoms: C_12  and  O_13
REMARK    6  A    between atoms: O_13  and  C_14
REMARK    7  A    between atoms: C_16  and  C_21
REMARK    8  A    between atoms: C_18  and  C_20
REMARK                            x       y       z     vdW  Elec       q    Type
REMARK                         _______ _______ _______ _____ _____    ______ ____
ROOT
ATOM      1  N   UNL     1       5.000   5.461  -0.018  0.00  0.00    -0.204 N 
ATOM      2  C   UNL     1       4.841   4.123  -0.024  0.00  0.00    +0.270 C 
ATOM      3  O   UNL     1       5.812   3.396  -0.037  0.00  0.00    -0.270 OA
ATOM      4  H   UNL     1       4.224   6.043  -0.008  0.00  0.00    +0.177 HD
ENDROOT
BRANCH   1   6
ATOM      5  C   UNL     1       6.442   7.305  -0.023  0.00  0.00    +0.176 C 
ATOM      6  N   UNL     1       6.288   6.013  -0.028  0.00  0.00    -0.185 NA
BRANCH   5  11
ATOM      7  C   UNL     1      11.438   7.671  -0.072  0.00  0.00    +0.086 C 
ATOM      8  C   UNL     1       9.979   8.051  -0.055  0.00  0.00    +0.103 A 
ATOM      9  C   UNL     1       9.495   9.309  -0.043  0.00  0.00    +0.045 A 
ATOM     10  C   UNL     1       8.092   9.213  -0.035  0.00  0.00    +0.051 A 
ATOM     11  C   UNL     1       7.790   7.882  -0.034  0.00  0.00    +0.148 A 
ATOM     12  O   UNL     1       8.947   7.191  -0.049  0.00  0.00    -0.459 OA
ENDBRANCH   5  11
ENDBRANCH   1   6
BRANCH   2  13
ATOM     13  C   UNL     1       3.456   3.530  -0.013  0.00  0.00    +0.326 C 
BRANCH  13  14
ATOM     14  O   UNL     1       3.548   2.104  -0.021  0.00  0.00    -0.483 OA
BRANCH  14  15
ATOM     15  C   UNL     1       2.380   1.409  -0.013  0.00  0.00    +0.122 A 
ATOM     16  C   UNL     1       1.169   2.087   0.002  0.00  0.00    +0.049 A 
ATOM     17  C   UNL     1      -0.017   1.378   0.010  0.00  0.00    -0.047 A 
ATOM     18  C   UNL     1       0.002  -0.004   0.002  0.00  0.00    +0.007 A 
ATOM     19  C   UNL     1       1.207  -0.681  -0.013  0.00  0.00    -0.047 A 
ATOM     20  C   UNL     1       2.396   0.022  -0.020  0.00  0.00    +0.049 A 
ATOM     21  C   UNL     1       1.224  -2.188  -0.020  0.00  0.00    +0.044 C 
ATOM     22  C   UNL     1      -1.332   2.114   0.020  0.00  0.00    +0.044 C 
ENDBRANCH  14  15
ENDBRANCH  13  14
ENDBRANCH   2  13
TORSDOF 5
