REMARK  Name = ZINC04908046
REMARK  5 active torsions:
REMARK  status: ('A' for Active; 'I' for Inactive)
REMARK    1  A    between atoms: C_1  and  C_2
REMARK    2  A    between atoms: C_2  and  N_45
REMARK    3  A    between atoms: C_6  and  C_8
REMARK    4  A    between atoms: C_8  and  N_9
REMARK    5  A    between atoms: N_12  and  C_13
REMARK                            x       y       z     vdW  Elec       q    Type
REMARK                         _______ _______ _______ _____ _____    ______ ____
ROOT
ATOM      1  N   UNL     1       5.965  -4.767   0.133  0.00  0.00    -0.301 N 
ATOM      2  C   UNL     1       4.813  -4.074   0.037  0.00  0.00    +0.304 C 
ATOM      3  O   UNL     1       3.749  -4.662   0.022  0.00  0.00    -0.253 OA
ATOM      4  N   UNL     1       4.841  -2.729  -0.044  0.00  0.00    -0.265 N 
ATOM      5  H   UNL     1       6.814  -4.298   0.144  0.00  0.00    +0.150 HD
ATOM      6  H   UNL     1       5.689  -2.264  -0.119  0.00  0.00    +0.157 HD
ENDROOT
BRANCH   4   7
ATOM      7  C   UNL     1       3.642  -2.000  -0.019  0.00  0.00    +0.099 A 
ATOM      8  C   UNL     1       2.505  -2.539   0.582  0.00  0.00    +0.110 A 
ATOM      9  N   UNL     1       1.369  -1.884   0.622  0.00  0.00    -0.359 N 
ATOM     10  C   UNL     1       1.242  -0.664   0.089  0.00  0.00    +0.052 A 
ATOM     11  C   UNL     1       0.017   0.023   0.142  0.00  0.00    +0.046 A 
ATOM     12  C   UNL     1      -0.086   1.265  -0.409  0.00  0.00    +0.043 A 
ATOM     13  C   UNL     1       1.008   1.870  -1.027  0.00  0.00    +0.021 A 
ATOM     14  C   UNL     1       2.209   1.234  -1.097  0.00  0.00    +0.015 A 
ATOM     15  C   UNL     1       2.351  -0.046  -0.539  0.00  0.00    +0.047 A 
ATOM     16  C   UNL     1       3.581  -0.737  -0.592  0.00  0.00    +0.210 A 
ATOM     17  O   UNL     1       4.669  -0.183  -1.184  0.00  0.00    -0.285 OA
ATOM     18 CL   UNL     1      -1.604   2.104  -0.346  0.00  0.00    -0.083 Cl
ATOM     19  H   UNL     1       0.577  -2.308   1.063  0.00  0.00    +0.165 HD
ENDBRANCH   4   7
BRANCH   1  20
ATOM     20  C   UNL     1       5.935  -6.229   0.220  0.00  0.00    +0.090 C 
BRANCH  20  24
ATOM     21  C   UNL     1       9.136  -7.522  -0.981  0.00  0.00    -0.078 C 
ATOM     22  C   UNL     1       8.816  -8.627   0.048  0.00  0.00    -0.020 C 
ATOM     23  C   UNL     1       7.356  -8.305   0.466  0.00  0.00    -0.016 C 
ATOM     24  C   UNL     1       7.356  -6.756   0.430  0.00  0.00    -0.051 C 
ATOM     25  N   UNL     1       8.200  -6.414  -0.732  0.00  0.00    +0.382 N 
ATOM     26  H   UNL     1       7.604  -6.281  -1.557  0.00  0.00    -0.081 HD
BRANCH  25  28
ATOM     27  C   UNL     1       9.913  -4.891  -1.626  0.00  0.00    -0.017 C 
ATOM     28  C   UNL     1       8.950  -5.159  -0.468  0.00  0.00    -0.082 C 
ENDBRANCH  25  28
ENDBRANCH  20  24
ENDBRANCH   1  20
TORSDOF 4
