REMARK  Name = ZINC05716242
REMARK  7 active torsions:
REMARK  status: ('A' for Active; 'I' for Inactive)
REMARK    1  A    between atoms: C_1  and  C_2
REMARK    2  A    between atoms: C_2  and  N_3
REMARK    3  A    between atoms: N_10  and  N_11
REMARK    4  A    between atoms: C_12  and  C_13
REMARK    5  A    between atoms: C_18  and  O_19
REMARK    6  A    between atoms: N_21  and  C_22
REMARK    7  A    between atoms: C_22  and  C_23
REMARK                            x       y       z     vdW  Elec       q    Type
REMARK                         _______ _______ _______ _____ _____    ______ ____
ROOT
ATOM      1  N   UNL     1       0.688  -0.476  -1.203  0.00  0.00    -0.314 N 
ATOM      2  C   UNL     1       0.830  -1.830  -1.430  0.00  0.00    +0.221 A 
ATOM      3  N   UNL     1       1.457  -2.259  -2.522  0.00  0.00    -0.181 NA
ATOM      4  C   UNL     1       1.595  -3.563  -2.740  0.00  0.00    +0.221 A 
ATOM      5  N   UNL     1       1.105  -4.439  -1.868  0.00  0.00    -0.180 NA
ATOM      6  C   UNL     1       0.478  -4.010  -0.777  0.00  0.00    +0.241 A 
ATOM      7  N   UNL     1       0.345  -2.706  -0.555  0.00  0.00    -0.180 NA
ATOM      8  N   UNL     1      -0.031  -4.920   0.129  0.00  0.00    -0.205 N 
ATOM      9  N   UNL     1       2.246  -4.008  -3.873  0.00  0.00    -0.314 N 
ATOM     10  H   UNL     1       1.042   0.162  -1.842  0.00  0.00    +0.149 HD
ATOM     11  H   UNL     1       0.069  -5.871  -0.030  0.00  0.00    +0.177 HD
ATOM     12  H   UNL     1       2.603  -3.369  -4.509  0.00  0.00    +0.149 HD
ENDROOT
BRANCH   1  14
ATOM     13  C   UNL     1      -0.019   1.526   0.010  0.00  0.00    +0.024 C 
ATOM     14  C   UNL     1       0.002  -0.004   0.002  0.00  0.00    +0.101 C 
ENDBRANCH   1  14
BRANCH   8  15
ATOM     15  N   UNL     1      -0.692  -4.468   1.279  0.00  0.00    -0.187 NA
ATOM     16  C   UNL     1      -1.170  -5.323   2.131  0.00  0.00    +0.142 C 
BRANCH  16  17
ATOM     17  C   UNL     1      -1.865  -4.848   3.340  0.00  0.00    +0.037 A 
ATOM     18  C   UNL     1      -2.376  -5.764   4.262  0.00  0.00    +0.028 A 
ATOM     19  C   UNL     1      -3.026  -5.312   5.392  0.00  0.00    +0.019 A 
ATOM     20  C   UNL     1      -3.174  -3.954   5.617  0.00  0.00    +0.019 A 
ATOM     21  C   UNL     1      -2.672  -3.037   4.711  0.00  0.00    +0.047 A 
ATOM     22  C   UNL     1      -2.012  -3.474   3.575  0.00  0.00    +0.126 A 
ATOM     23 BR   UNL     1      -3.719  -6.553   6.640  0.00  0.00    -0.050 Br
BRANCH  22  24
ATOM     24  O   UNL     1      -1.514  -2.574   2.688  0.00  0.00    -0.506 OA
ATOM     25  H   UNL     1      -2.137  -2.320   1.993  0.00  0.00    +0.292 HD
ENDBRANCH  22  24
ENDBRANCH  16  17
ENDBRANCH   8  15
BRANCH   9  26
ATOM     26  C   UNL     1       2.398  -5.445  -4.114  0.00  0.00    +0.101 C 
ATOM     27  C   UNL     1       3.150  -5.665  -5.428  0.00  0.00    +0.024 C 
ENDBRANCH   9  26
TORSDOF 5
