REMARK  Name = ZINC16609813
REMARK  6 active torsions:
REMARK  status: ('A' for Active; 'I' for Inactive)
REMARK    1  A    between atoms: C_1  and  C_2
REMARK    2  A    between atoms: C_2  and  C_3
REMARK    3  A    between atoms: N_5  and  C_6
REMARK    4  A    between atoms: C_6  and  N_8
REMARK    5  A    between atoms: N_8  and  C_9
REMARK    6  A    between atoms: C_10  and  C_17
REMARK                            x       y       z     vdW  Elec       q    Type
REMARK                         _______ _______ _______ _____ _____    ______ ____
ROOT
ATOM      1  C   UNL     1       1.208  -0.684  -0.002  0.00  0.00    +0.061 A 
ATOM      2  C   UNL     1       1.720   0.016   1.101  0.00  0.00    +0.086 A 
ATOM      3  C   UNL     1       1.696   1.413   1.104  0.00  0.00    +0.032 A 
ATOM      4  C   UNL     1       1.171   2.094   0.026  0.00  0.00    +0.020 A 
ATOM      5  C   UNL     1       0.666   1.400  -1.062  0.00  0.00    +0.032 A 
ATOM      6  C   UNL     1       0.683   0.019  -1.079  0.00  0.00    +0.041 A 
ATOM      7 BR   UNL     1      -0.009  -0.916  -2.570  0.00  0.00    -0.048 Br
ATOM      8 BR   UNL     1       1.140   3.985   0.032  0.00  0.00    -0.050 Br
ENDROOT
BRANCH   2   9
ATOM      9  C   UNL     1       2.279  -0.718   2.250  0.00  0.00    +0.388 C 
ATOM     10  O   UNL     1       2.385  -1.927   2.205  0.00  0.00    -0.241 OA
ATOM     11  O   UNL     1       2.673  -0.047   3.351  0.00  0.00    -0.241 OA
ENDBRANCH   2   9
BRANCH   1  12
ATOM     12  N   UNL     1       1.226  -2.076  -0.017  0.00  0.00    -0.295 N 
ATOM     13  H   UNL     1       2.062  -2.551   0.111  0.00  0.00    +0.154 HD
BRANCH  12  14
ATOM     14  C   UNL     1       0.082  -2.763  -0.210  0.00  0.00    +0.141 C 
ATOM     15  S   UNL     1      -1.367  -1.927  -0.574  0.00  0.00    -0.018 S 
BRANCH  14  18
ATOM     16  C   UNL     1      -1.064  -4.794  -0.308  0.00  0.00    +0.218 C 
ATOM     17  O   UNL     1      -2.090  -4.203  -0.566  0.00  0.00    -0.275 OA
ATOM     18  N   UNL     1       0.080  -4.107  -0.116  0.00  0.00    -0.268 N 
ATOM     19  H   UNL     1       0.901  -4.580   0.091  0.00  0.00    +0.156 HD
BRANCH  16  21
ATOM     20  C   UNL     1      -2.479  -6.824  -0.463  0.00  0.00    +0.013 C 
ATOM     21  C   UNL     1      -1.067  -6.297  -0.203  0.00  0.00    +0.093 C 
ENDBRANCH  16  21
ENDBRANCH  14  18
ENDBRANCH  12  14
ENDBRANCH   1  12
TORSDOF 5
