REMARK  Name = ZINC39620027
REMARK  10 active torsions:
REMARK  status: ('A' for Active; 'I' for Inactive)
REMARK    1  A    between atoms: C_1  and  C_2
REMARK    2  A    between atoms: C_6  and  O_8
REMARK    3  A    between atoms: O_8  and  C_9
REMARK    4  A    between atoms: C_9  and  C_10
REMARK    5  A    between atoms: C_10  and  O_12
REMARK    6  A    between atoms: O_12  and  C_13
REMARK    7  A    between atoms: C_13  and  C_14
REMARK    8  A    between atoms: N_16  and  C_17
REMARK    9  A    between atoms: C_21  and  S_23
REMARK   10  A    between atoms: S_23  and  N_26
REMARK                            x       y       z     vdW  Elec       q    Type
REMARK                         _______ _______ _______ _____ _____    ______ ____
ROOT
ATOM      1  C   UNL     1       0.257 -10.187   6.260  0.00  0.00    +0.035 A 
ATOM      2  C   UNL     1       0.361 -10.820   5.028  0.00  0.00    +0.023 A 
ATOM      3  C   UNL     1       0.468 -12.196   4.967  0.00  0.00    +0.004 A 
ATOM      4  C   UNL     1       0.471 -12.943   6.131  0.00  0.00    +0.029 A 
ATOM      5  C   UNL     1       0.367 -12.315   7.359  0.00  0.00    +0.114 A 
ATOM      6  C   UNL     1       0.266 -10.939   7.427  0.00  0.00    +0.052 A 
ENDROOT
BRANCH   1   9
ATOM      7  C   UNL     1       0.729  -8.119   7.337  0.00  0.00    +0.255 C 
ATOM      8  O   UNL     1       1.274  -8.724   8.235  0.00  0.00    -0.272 OA
ATOM      9  N   UNL     1       0.148  -8.793   6.325  0.00  0.00    -0.283 N 
ATOM     10  H   UNL     1      -0.345  -8.313   5.641  0.00  0.00    +0.155 HD
BRANCH   7  11
ATOM     11  C   UNL     1       0.701  -6.612   7.351  0.00  0.00    +0.328 C 
BRANCH  11  12
ATOM     12  O   UNL     1       1.377  -6.135   8.516  0.00  0.00    -0.453 OA
BRANCH  12  13
ATOM     13  C   UNL     1       1.442  -4.804   8.681  0.00  0.00    +0.346 C 
ATOM     14  O   UNL     1       0.942  -4.069   7.863  0.00  0.00    -0.247 OA
BRANCH  13  15
ATOM     15  C   UNL     1       2.139  -4.227   9.886  0.00  0.00    +0.349 C 
BRANCH  15  16
ATOM     16  O   UNL     1       2.075  -2.800   9.835  0.00  0.00    -0.481 OA
BRANCH  16  22
ATOM     17  C   UNL     1       3.207   1.463  11.925  0.00  0.00    +0.044 C 
ATOM     18  C   UNL     1       3.233  -0.043  11.908  0.00  0.00    -0.047 A 
ATOM     19  C   UNL     1       3.853  -0.735  12.932  0.00  0.00    +0.003 A 
ATOM     20  C   UNL     1       3.879  -2.117  12.920  0.00  0.00    +0.004 A 
ATOM     21  C   UNL     1       3.284  -2.811  11.884  0.00  0.00    +0.045 A 
ATOM     22  C   UNL     1       2.661  -2.120  10.856  0.00  0.00    +0.122 A 
ATOM     23  C   UNL     1       2.631  -0.733  10.873  0.00  0.00    +0.049 A 
ENDBRANCH  16  22
ENDBRANCH  15  16
ENDBRANCH  13  15
ENDBRANCH  12  13
ENDBRANCH  11  12
ENDBRANCH   7  11
ENDBRANCH   1   9
BRANCH   5  24
ATOM     24  S   UNL     1       0.370 -13.271   8.839  0.00  0.00    +0.100 S 
ATOM     25  O   UNL     1      -0.287 -12.491   9.828  0.00  0.00    -0.146 OA
ATOM     26  O   UNL     1      -0.068 -14.575   8.482  0.00  0.00    -0.146 OA
BRANCH  24  27
ATOM     27  N   UNL     1       1.947 -13.418   9.323  0.00  0.00    -0.118 NA
ATOM     28  C   UNL     1       2.235 -14.081  10.396  0.00  0.00    +0.117 C 
ATOM     29  C   UNL     1       1.123 -14.734  11.214  0.00  0.00    +0.073 C 
ATOM     30  C   UNL     1       1.266 -16.232  11.050  0.00  0.00    +0.008 C 
ATOM     31  C   UNL     1       2.203 -16.871  12.077  0.00  0.00    +0.002 C 
ATOM     32  C   UNL     1       3.479 -16.060  12.310  0.00  0.00    +0.019 C 
ATOM     33  C   UNL     1       4.089 -15.527  11.032  0.00  0.00    +0.102 C 
ATOM     34  N   UNL     1       3.490 -14.199  10.783  0.00  0.00    -0.331 N 
ATOM     35  H   UNL     1       4.030 -13.403  10.908  0.00  0.00    +0.147 HD
ENDBRANCH  24  27
ENDBRANCH   5  24
TORSDOF 9
