REMARK  Name = ZINC43666750
REMARK  7 active torsions:
REMARK  status: ('A' for Active; 'I' for Inactive)
REMARK    1  A    between atoms: C_1  and  C_2
REMARK    2  A    between atoms: C_4  and  C_19
REMARK    3  A    between atoms: C_5  and  C_9
REMARK    4  A    between atoms: C_6  and  C_8
REMARK    5  A    between atoms: C_9  and  C_11
REMARK    6  A    between atoms: C_9  and  N_12
REMARK    7  A    between atoms: C_13  and  N_18
REMARK                            x       y       z     vdW  Elec       q    Type
REMARK                         _______ _______ _______ _____ _____    ______ ____
ROOT
ATOM      1  C   UNL     1       0.293  -4.485   0.398  0.00  0.00    +0.136 C 
ATOM      2  C   UNL     1      -0.358  -4.800  -0.950  0.00  0.00    +0.038 C 
ENDROOT
BRANCH   1   7
ATOM      3  C   UNL     1       2.165   0.983   0.398  0.00  0.00    +0.044 C 
ATOM      4  C   UNL     1       1.677  -0.443   0.398  0.00  0.00    -0.050 A 
ATOM      5  C   UNL     1       2.210  -1.357  -0.492  0.00  0.00    +0.007 A 
ATOM      6  C   UNL     1       1.763  -2.664  -0.492  0.00  0.00    -0.045 A 
ATOM      7  C   UNL     1       0.782  -3.059   0.398  0.00  0.00    -0.017 A 
ATOM      8  C   UNL     1       0.249  -2.146   1.289  0.00  0.00    -0.045 A 
ATOM      9  C   UNL     1       0.700  -0.839   1.292  0.00  0.00    +0.007 A 
ATOM     10  C   UNL     1      -0.820  -2.577   2.260  0.00  0.00    +0.044 C 
ATOM     11  C   UNL     1       2.344  -3.660  -1.463  0.00  0.00    +0.044 C 
ENDBRANCH   1   7
BRANCH   1  12
ATOM     12  N   UNL     1       1.425  -5.389   0.617  0.00  0.00    -0.243 N 
ATOM     13  C   UNL     1       1.810  -5.914   1.809  0.00  0.00    +0.128 A 
ATOM     14  C   UNL     1       2.899  -6.699   1.577  0.00  0.00    +0.072 A 
ATOM     15  C   UNL     1       3.181  -6.647   0.209  0.00  0.00    +0.150 A 
ATOM     16  N   UNL     1       2.299  -5.871  -0.366  0.00  0.00    -0.176 NA
ATOM     17  I   UNL     1       3.964  -7.788   3.015  0.00  0.00    -0.039 I 
BRANCH  13  18
ATOM     18  N   UNL     1       1.203  -5.691   3.042  0.00  0.00    -0.342 N 
ATOM     19  H   UNL     1       0.427  -5.112   3.103  0.00  0.00    +0.144 HD
ATOM     20  H   UNL     1       1.556  -6.115   3.840  0.00  0.00    +0.144 HD
ENDBRANCH  13  18
ENDBRANCH   1  12
TORSDOF 3
