REMARK  Name = ZINC61700137
REMARK  6 active torsions:
REMARK  status: ('A' for Active; 'I' for Inactive)
REMARK    1  A    between atoms: C_1  and  C_2
REMARK    2  A    between atoms: C_2  and  C_4
REMARK    3  A    between atoms: C_2  and  N_19
REMARK    4  A    between atoms: C_7  and  S_11
REMARK    5  A    between atoms: S_11  and  C_12
REMARK    6  A    between atoms: N_19  and  C_20
REMARK                            x       y       z     vdW  Elec       q    Type
REMARK                         _______ _______ _______ _____ _____    ______ ____
ROOT
ATOM      1  C   UNL     1      -1.410  -0.531   0.022  0.00  0.00    -0.060 A 
ATOM      2  C   UNL     1      -2.178  -0.456  -1.125  0.00  0.00    +0.003 A 
ATOM      3  C   UNL     1      -3.475  -0.931  -1.122  0.00  0.00    +0.017 A 
ATOM      4  C   UNL     1      -4.008  -1.486   0.035  0.00  0.00    +0.034 A 
ATOM      5  C   UNL     1      -3.233  -1.560   1.186  0.00  0.00    +0.055 A 
ATOM      6  C   UNL     1      -1.934  -1.087   1.175  0.00  0.00    +0.023 A 
ATOM      7 CL   UNL     1      -3.893  -2.252   2.635  0.00  0.00    -0.082 Cl
ENDROOT
BRANCH   1   9
ATOM      8  C   UNL     1      -0.010   1.510   0.176  0.00  0.00    -0.009 C 
ATOM      9  C   UNL     1       0.005  -0.011   0.015  0.00  0.00    -0.044 C 
BRANCH   9  10
ATOM     10  N   UNL     1       0.649  -0.362  -1.258  0.00  0.00    +0.382 N 
ATOM     11  C   UNL     1       2.062   0.038  -1.218  0.00  0.00    -0.100 C 
ATOM     12  H   UNL     1       0.586  -1.359  -1.403  0.00  0.00    -0.085 HD
ATOM     13  H   UNL     1       0.184   0.118  -2.014  0.00  0.00    -0.085 HD
ENDBRANCH   9  10
ENDBRANCH   1   9
BRANCH   4  14
ATOM     14  S   UNL     1      -5.662  -2.093   0.043  0.00  0.00    -0.048 S 
BRANCH  14  15
ATOM     15  C   UNL     1      -6.567  -0.853   0.906  0.00  0.00    +0.196 A 
ATOM     16  N   UNL     1      -5.952   0.265   1.264  0.00  0.00    -0.230 NA
ATOM     17  C   UNL     1      -6.599   1.220   1.914  0.00  0.00    +0.119 A 
ATOM     18  C   UNL     1      -7.936   1.041   2.221  0.00  0.00    +0.092 A 
ATOM     19  C   UNL     1      -8.556  -0.145   1.831  0.00  0.00    +0.274 A 
ATOM     20  N   UNL     1      -7.848  -1.058   1.177  0.00  0.00    -0.183 NA
ATOM     21  O   UNL     1      -9.864  -0.361   2.111  0.00  0.00    -0.266 OA
ENDBRANCH  14  15
ENDBRANCH   4  14
TORSDOF 4
