REMARK  Name = ZINC20448637
REMARK  10 active torsions:
REMARK  status: ('A' for Active; 'I' for Inactive)
REMARK    1  A    between atoms: C_1  and  C_2
REMARK    2  A    between atoms: C_3  and  C_19
REMARK    3  A    between atoms: C_5  and  C_7
REMARK    4  A    between atoms: C_10  and  O_17
REMARK    5  A    between atoms: O_17  and  C_18
REMARK    6  A    between atoms: C_19  and  N_20
REMARK    7  A    between atoms: N_20  and  C_21
REMARK    8  A    between atoms: N_20  and  C_24
REMARK    9  A    between atoms: C_21  and  C_22
REMARK   10  A    between atoms: C_22  and  O_23
REMARK                            x       y       z     vdW  Elec       q    Type
REMARK                         _______ _______ _______ _____ _____    ______ ____
ROOT
ATOM      1  C   UNL     1      -1.547  -7.701  -1.089  0.00  0.00    +0.088 C 
ATOM      2  C   UNL     1      -0.795  -6.419  -0.837  0.00  0.00    +0.124 A 
ATOM      3  C   UNL     1       0.495  -6.310  -0.472  0.00  0.00    +0.066 A 
ATOM      4  N   UNL     1       0.781  -5.005  -0.356  0.00  0.00    -0.216 NA
ATOM      5  C   UNL     1      -0.301  -4.311  -0.631  0.00  0.00    +0.228 A 
ATOM      6  O   UNL     1      -1.291  -5.169  -0.936  0.00  0.00    -0.440 OA
ENDROOT
BRANCH   5   7
ATOM      7  C   UNL     1      -0.410  -2.842  -0.615  0.00  0.00    +0.045 A 
ATOM      8  C   UNL     1       0.687  -2.056  -0.283  0.00  0.00    +0.017 A 
ATOM      9  C   UNL     1       0.587  -0.673  -0.266  0.00  0.00    +0.047 A 
ATOM     10  C   UNL     1      -0.591  -0.031  -0.575  0.00  0.00    +0.128 A 
ATOM     11  C   UNL     1      -1.741  -0.773  -0.915  0.00  0.00    +0.025 A 
ATOM     12  C   UNL     1      -1.673  -2.186  -0.947  0.00  0.00    -0.002 A 
ATOM     13  C   UNL     1      -2.811  -2.926  -1.289  0.00  0.00    +0.009 A 
ATOM     14  C   UNL     1      -3.975  -2.277  -1.576  0.00  0.00    +0.001 A 
ATOM     15  C   UNL     1      -4.044  -0.887  -1.550  0.00  0.00    +0.001 A 
ATOM     16  C   UNL     1      -2.954  -0.137  -1.227  0.00  0.00    +0.012 A 
BRANCH  10  17
ATOM     17  O   UNL     1      -0.648   1.325  -0.546  0.00  0.00    -0.495 OA
ATOM     18  C   UNL     1       0.550   2.016  -0.188  0.00  0.00    +0.277 C 
ENDBRANCH  10  17
ENDBRANCH   5   7
BRANCH   3  19
ATOM     19  C   UNL     1       1.451  -7.452  -0.241  0.00  0.00    -0.018 C 
BRANCH  19  20
ATOM     20  N   UNL     1       2.135  -7.780  -1.499  0.00  0.00    +0.388 N 
ATOM     21  H   UNL     1       1.367  -7.927  -2.273  0.00  0.00    -0.081 HD
BRANCH  20  22
ATOM     22  C   UNL     1       2.894  -9.032  -1.374  0.00  0.00    -0.045 C 
ATOM     23  C   UNL     1       1.926 -10.207  -1.155  0.00  0.00    +0.009 C 
ATOM     24  C   UNL     1       2.713 -11.462  -0.707  0.00  0.00    +0.164 C 
ATOM     25  S   UNL     1       4.174 -10.740   0.145  0.00  0.00    -0.033 S 
ATOM     26  O   UNL     1       5.351 -11.112  -0.559  0.00  0.00    -0.174 OA
ATOM     27  O   UNL     1       4.077 -11.009   1.538  0.00  0.00    -0.174 OA
ATOM     28  C   UNL     1       3.842  -8.951  -0.143  0.00  0.00    +0.151 C 
ENDBRANCH  20  22
BRANCH  20  29
ATOM     29  C   UNL     1       3.005  -6.678  -1.928  0.00  0.00    -0.050 C 
BRANCH  29  30
ATOM     30  C   UNL     1       3.378  -6.866  -3.400  0.00  0.00    +0.137 C 
BRANCH  30  31
ATOM     31  O   UNL     1       2.205  -6.748  -4.207  0.00  0.00    -0.397 OA
ATOM     32  H   UNL     1       2.277  -6.854  -5.300  0.00  0.00    +0.209 HD
ENDBRANCH  30  31
ENDBRANCH  29  30
ENDBRANCH  20  29
ENDBRANCH  19  20
ENDBRANCH   3  19
TORSDOF 8
