REMARK  Name = ZINC61687377
REMARK  7 active torsions:
REMARK  status: ('A' for Active; 'I' for Inactive)
REMARK    1  A    between atoms: C_1  and  C_2
REMARK    2  A    between atoms: C_3  and  C_19
REMARK    3  A    between atoms: C_4  and  N_17
REMARK    4  A    between atoms: C_6  and  C_8
REMARK    5  A    between atoms: N_17  and  C_18
REMARK    6  A    between atoms: C_19  and  C_20
REMARK    7  A    between atoms: C_19  and  C_21
REMARK                            x       y       z     vdW  Elec       q    Type
REMARK                         _______ _______ _______ _____ _____    ______ ____
ROOT
ATOM      1  C   UNL     1       0.226   1.278   0.022  0.00  0.00    +0.066 C 
ATOM      2  C   UNL     1       0.072  -0.219  -0.055  0.00  0.00    +0.047 A 
ATOM      3  C   UNL     1      -0.123  -0.840  -1.274  0.00  0.00    +0.016 A 
ATOM      4  C   UNL     1      -0.262  -2.230  -1.301  0.00  0.00    +0.126 A 
ATOM      5  N   UNL     1      -0.201  -2.905  -0.158  0.00  0.00    -0.213 NA
ATOM      6  C   UNL     1      -0.013  -2.272   0.991  0.00  0.00    +0.162 A 
ATOM      7  N   UNL     1       0.127  -0.955   1.045  0.00  0.00    -0.232 NA
ENDROOT
BRANCH   6   8
ATOM      8  C   UNL     1       0.049  -3.058   2.247  0.00  0.00    +0.025 A 
ATOM      9  C   UNL     1       0.241  -2.410   3.467  0.00  0.00    +0.053 A 
ATOM     10  C   UNL     1       0.298  -3.146   4.636  0.00  0.00    +0.162 A 
ATOM     11  C   UNL     1       0.165  -4.526   4.596  0.00  0.00    +0.193 A 
ATOM     12  C   UNL     1      -0.026  -5.173   3.384  0.00  0.00    +0.162 A 
ATOM     13  C   UNL     1      -0.090  -4.444   2.212  0.00  0.00    +0.053 A 
ATOM     14  F   UNL     1      -0.155  -6.518   3.350  0.00  0.00    -0.202 F 
ATOM     15  F   UNL     1       0.222  -5.241   5.741  0.00  0.00    -0.199 F 
ATOM     16  F   UNL     1       0.483  -2.519   5.818  0.00  0.00    -0.202 F 
ENDBRANCH   6   8
BRANCH   4  17
ATOM     17  N   UNL     1      -0.459  -2.894  -2.500  0.00  0.00    -0.332 N 
ATOM     18  C   UNL     1      -0.676  -4.343  -2.509  0.00  0.00    +0.127 C 
ATOM     19  H   UNL     1      -0.454  -2.400  -3.335  0.00  0.00    +0.147 HD
ENDBRANCH   4  17
BRANCH   3  20
ATOM     20  C   UNL     1      -0.186  -0.035  -2.547  0.00  0.00    +0.018 C 
ATOM     21  C   UNL     1       0.940  -0.476  -3.485  0.00  0.00    +0.012 C 
ATOM     22  C   UNL     1      -1.536  -0.263  -3.229  0.00  0.00    +0.012 C 
ENDBRANCH   3  20
TORSDOF 3
