REMARK  Name = ZINC45631709
REMARK  7 active torsions:
REMARK  status: ('A' for Active; 'I' for Inactive)
REMARK    1  A    between atoms: C_1  and  C_2
REMARK    2  A    between atoms: C_3  and  N_9
REMARK    3  A    between atoms: C_10  and  C_12
REMARK    4  A    between atoms: C_12  and  C_14
REMARK    5  A    between atoms: C_12  and  N_15
REMARK    6  A    between atoms: N_15  and  C_16
REMARK    7  A    between atoms: C_25  and  C_28
REMARK                            x       y       z     vdW  Elec       q    Type
REMARK                         _______ _______ _______ _____ _____    ______ ____
ROOT
ATOM      1  N   UNL     1       0.297  -0.832  -5.993  0.00  0.00    -0.333 N 
ATOM      2  H   UNL     1       0.653  -1.722  -5.844  0.00  0.00    +0.147 HD
ENDROOT
BRANCH   1   3
ATOM      3  C   UNL     1      -0.117  -0.449  -7.273  0.00  0.00    +0.030 A 
ATOM      4  C   UNL     1      -0.621   0.828  -7.487  0.00  0.00    +0.026 A 
ATOM      5  C   UNL     1      -1.030   1.211  -8.751  0.00  0.00    +0.049 A 
ATOM      6  C   UNL     1      -0.938   0.321  -9.807  0.00  0.00    +0.143 A 
ATOM      7  C   UNL     1      -0.433  -0.961  -9.596  0.00  0.00    +0.077 A 
ATOM      8  C   UNL     1      -0.017  -1.343  -8.331  0.00  0.00    +0.050 A 
ATOM      9  N   UNL     1      -0.348  -1.851 -10.676  0.00  0.00    -0.279 N 
ATOM     10  C   UNL     1      -0.451  -1.367 -11.933  0.00  0.00    +0.258 C 
ATOM     11  O   UNL     1      -0.411  -2.122 -12.881  0.00  0.00    -0.271 OA
ATOM     12  C   UNL     1      -0.617   0.115 -12.152  0.00  0.00    +0.256 C 
ATOM     13  O   UNL     1      -1.337   0.686 -11.056  0.00  0.00    -0.478 OA
ATOM     14  C   UNL     1       0.761   0.772 -12.253  0.00  0.00    +0.062 C 
ATOM     15  H   UNL     1      -0.217  -2.800 -10.523  0.00  0.00    +0.155 HD
ENDBRANCH   1   3
BRANCH   1  16
ATOM     16  C   UNL     1       0.192   0.111  -4.876  0.00  0.00    +0.154 C 
ATOM     17  C   UNL     1       1.431   1.008  -4.848  0.00  0.00    +0.038 C 
BRANCH  16  19
ATOM     18  N   UNL     1      -0.010   0.011  -2.413  0.00  0.00    -0.284 N 
ATOM     19  C   UNL     1       0.095  -0.653  -3.581  0.00  0.00    +0.237 C 
ATOM     20  O   UNL     1       0.112  -1.866  -3.590  0.00  0.00    -0.273 OA
ATOM     21  H   UNL     1      -0.104   0.977  -2.411  0.00  0.00    +0.155 HD
BRANCH  18  24
ATOM     22  C   UNL     1      -1.263   1.189  -0.146  0.00  0.00    +0.047 C 
ATOM     23  C   UNL     1      -0.583  -0.153  -0.073  0.00  0.00    -0.011 A 
ATOM     24  C   UNL     1       0.017  -0.692  -1.204  0.00  0.00    +0.038 A 
ATOM     25  C   UNL     1       0.643  -1.929  -1.132  0.00  0.00    +0.023 A 
ATOM     26  C   UNL     1       0.667  -2.621   0.064  0.00  0.00    +0.003 A 
ATOM     27  C   UNL     1       0.069  -2.084   1.188  0.00  0.00    +0.020 A 
ATOM     28  C   UNL     1      -0.550  -0.848   1.122  0.00  0.00    +0.046 A 
ATOM     29 CL   UNL     1      -1.293  -0.173   2.538  0.00  0.00    -0.083 Cl
ENDBRANCH  18  24
ENDBRANCH  16  19
ENDBRANCH   1  16
TORSDOF 4
