REMARK  Name = ZINC60390415
REMARK  7 active torsions:
REMARK  status: ('A' for Active; 'I' for Inactive)
REMARK    1  A    between atoms: C_9  and  C_12
REMARK    2  A    between atoms: N_14  and  N_15
REMARK    3  A    between atoms: C_16  and  C_18
REMARK    4  A    between atoms: C_18  and  O_19
REMARK    5  A    between atoms: O_19  and  C_20
REMARK    6  A    between atoms: C_20  and  C_22
REMARK    7  A    between atoms: C_27  and  N_28
REMARK                            x       y       z     vdW  Elec       q    Type
REMARK                         _______ _______ _______ _____ _____    ______ ____
ROOT
ATOM      1  N   UNL     1       6.393  -4.492  -0.145  0.00  0.00    -0.231 N 
ATOM      2  C   UNL     1       6.626  -5.778  -0.474  0.00  0.00    +0.267 C 
ATOM      3  O   UNL     1       5.791  -6.408  -1.088  0.00  0.00    -0.271 OA
ATOM      4  H   UNL     1       7.061  -3.988   0.346  0.00  0.00    +0.173 HD
ENDROOT
BRANCH   1   7
ATOM      5  C   UNL     1       4.952  -2.597  -0.182  0.00  0.00    +0.273 C 
ATOM      6  O   UNL     1       5.787  -1.967   0.431  0.00  0.00    -0.270 OA
ATOM      7  N   UNL     1       5.186  -3.883  -0.512  0.00  0.00    -0.231 N 
ATOM      8  H   UNL     1       4.518  -4.387  -1.002  0.00  0.00    +0.173 HD
BRANCH   5  17
ATOM      9  C   UNL     1       0.071   1.461  -0.239  0.00  0.00    +0.004 A 
ATOM     10  C   UNL     1       1.264   2.161  -0.229  0.00  0.00    +0.004 A 
ATOM     11  C   UNL     1       2.466   1.481  -0.216  0.00  0.00    +0.049 A 
ATOM     12  C   UNL     1       2.481   0.094  -0.214  0.00  0.00    +0.163 A 
ATOM     13  C   UNL     1       1.282  -0.609  -0.227  0.00  0.00    +0.162 A 
ATOM     14  C   UNL     1       0.078   0.079  -0.238  0.00  0.00    +0.049 A 
ATOM     15  O   UNL     1       1.274  -1.970  -0.234  0.00  0.00    -0.484 OA
ATOM     16  C   UNL     1       2.488  -2.624   0.152  0.00  0.00    +0.283 C 
ATOM     17  C   UNL     1       3.653  -1.942  -0.577  0.00  0.00    +0.297 C 
ATOM     18  O   UNL     1       3.673  -0.562  -0.199  0.00  0.00    -0.472 OA
ENDBRANCH   5  17
ENDBRANCH   1   7
BRANCH   2  19
ATOM     19  C   UNL     1       7.925  -6.433  -0.079  0.00  0.00    +0.329 C 
BRANCH  19  20
ATOM     20  O   UNL     1       7.935  -7.786  -0.538  0.00  0.00    -0.452 OA
BRANCH  20  21
ATOM     21  C   UNL     1       9.034  -8.517  -0.265  0.00  0.00    +0.341 C 
ATOM     22  O   UNL     1       9.958  -8.019   0.346  0.00  0.00    -0.245 OA
BRANCH  21  23
ATOM     23  C   UNL     1       9.114  -9.920  -0.707  0.00  0.00    +0.081 A 
ATOM     24  C   UNL     1       8.008 -10.534  -1.301  0.00  0.00    +0.032 A 
ATOM     25  C   UNL     1       8.090 -11.847  -1.713  0.00  0.00    +0.019 A 
ATOM     26  C   UNL     1       9.265 -12.563  -1.541  0.00  0.00    +0.017 A 
ATOM     27  C   UNL     1      10.365 -11.970  -0.956  0.00  0.00    +0.024 A 
ATOM     28  C   UNL     1      10.304 -10.646  -0.540  0.00  0.00    +0.039 A 
ATOM     29 BR   UNL     1       6.592 -12.676  -2.516  0.00  0.00    -0.050 Br
BRANCH  28  30
ATOM     30  N   UNL     1      11.412 -10.046   0.043  0.00  0.00    -0.357 N 
ATOM     31  H   UNL     1      11.342  -9.150   0.408  0.00  0.00    +0.142 HD
ATOM     32  H   UNL     1      12.256 -10.522   0.085  0.00  0.00    +0.142 HD
ENDBRANCH  28  30
ENDBRANCH  21  23
ENDBRANCH  20  21
ENDBRANCH  19  20
ENDBRANCH   2  19
TORSDOF 7
