REMARK  Name = ZINC54647358
REMARK  7 active torsions:
REMARK  status: ('A' for Active; 'I' for Inactive)
REMARK    1  A    between atoms: C_3  and  C_9
REMARK    2  A    between atoms: C_5  and  C_7
REMARK    3  A    between atoms: C_9  and  N_10
REMARK    4  A    between atoms: N_13  and  C_14
REMARK    5  A    between atoms: C_14  and  C_15
REMARK    6  A    between atoms: C_15  and  C_16
REMARK    7  A    between atoms: C_19  and  N_22
REMARK                            x       y       z     vdW  Elec       q    Type
REMARK                         _______ _______ _______ _____ _____    ______ ____
ROOT
ATOM      1  N   UNL     1       4.102   2.451   1.356  0.00  0.00    -0.295 N 
ATOM      2  C   UNL     1       5.236   3.138   1.594  0.00  0.00    +0.300 C 
ATOM      3  O   UNL     1       5.902   3.553   0.665  0.00  0.00    -0.253 OA
ATOM      4  N   UNL     1       5.633   3.365   2.862  0.00  0.00    -0.299 N 
ATOM      5  H   UNL     1       3.571   2.119   2.097  0.00  0.00    +0.151 HD
ATOM      6  H   UNL     1       5.102   3.034   3.603  0.00  0.00    +0.150 HD
ENDROOT
BRANCH   1   7
ATOM      7  C   UNL     1       3.671   2.204  -0.023  0.00  0.00    +0.141 C 
BRANCH   7  10
ATOM      8  C   UNL     1      -0.017   1.375   0.010  0.00  0.00    +0.002 A 
ATOM      9  C   UNL     1       1.170   2.086   0.002  0.00  0.00    +0.005 A 
ATOM     10  C   UNL     1       2.383   1.421  -0.013  0.00  0.00    -0.029 A 
ATOM     11  C   UNL     1       2.416   0.041  -0.021  0.00  0.00    +0.024 A 
ATOM     12  C   UNL     1       1.223  -0.682  -0.013  0.00  0.00    +0.052 A 
ATOM     13  C   UNL     1       0.002  -0.004   0.002  0.00  0.00    +0.019 A 
BRANCH  12  14
ATOM     14  C   UNL     1       1.250  -2.114  -0.022  0.00  0.00    +0.099 C 
ATOM     15  N   UNL     1       1.271  -3.250  -0.029  0.00  0.00    -0.191 NA
ENDBRANCH  12  14
ENDBRANCH   7  10
ENDBRANCH   1   7
BRANCH   4  16
ATOM     16  C   UNL     1       6.866   4.112   3.121  0.00  0.00    +0.110 C 
BRANCH  16  17
ATOM     17  C   UNL     1       7.085   4.228   4.631  0.00  0.00    +0.054 C 
BRANCH  17  18
ATOM     18  C   UNL     1       8.353   4.997   4.897  0.00  0.00    -0.046 A 
ATOM     19  C   UNL     1       9.558   4.327   5.002  0.00  0.00    +0.006 A 
ATOM     20  C   UNL     1      10.722   5.032   5.247  0.00  0.00    +0.033 A 
ATOM     21  C   UNL     1      10.681   6.407   5.385  0.00  0.00    +0.126 A 
ATOM     22  C   UNL     1       9.476   7.077   5.279  0.00  0.00    +0.033 A 
ATOM     23  C   UNL     1       8.313   6.372   5.031  0.00  0.00    +0.006 A 
BRANCH  21  24
ATOM     24  N   UNL     1      11.926   7.162   5.648  0.00  0.00    +0.056 N 
ATOM     25  O   UNL     1      12.980   6.576   5.741  0.00  0.00    -0.126 OA
ATOM     26  O   UNL     1      11.890   8.364   5.769  0.00  0.00    -0.126 OA
ENDBRANCH  21  24
ENDBRANCH  17  18
ENDBRANCH  16  17
ENDBRANCH   4  16
TORSDOF 7
