REMARK  Name = ZINC43167554
REMARK  5 active torsions:
REMARK  status: ('A' for Active; 'I' for Inactive)
REMARK    1  A    between atoms: C_7  and  N_12
REMARK    2  A    between atoms: N_15  and  C_16
REMARK    3  A    between atoms: C_16  and  C_17
REMARK    4  A    between atoms: C_17  and  C_18
REMARK    5  A    between atoms: C_18  and  N_19
REMARK                            x       y       z     vdW  Elec       q    Type
REMARK                         _______ _______ _______ _____ _____    ______ ____
ROOT
ATOM      1  N   UNL     1      -0.048  -2.624   0.725  0.00  0.00    -0.293 N 
ATOM      2  C   UNL     1      -1.274  -2.646   0.167  0.00  0.00    +0.300 C 
ATOM      3  O   UNL     1      -1.420  -2.316  -0.994  0.00  0.00    -0.253 OA
ATOM      4  N   UNL     1      -2.339  -3.035   0.896  0.00  0.00    -0.299 N 
ATOM      5  H   UNL     1       0.069  -2.888   1.651  0.00  0.00    +0.151 HD
ATOM      6  H   UNL     1      -2.223  -3.298   1.822  0.00  0.00    +0.150 HD
ENDROOT
BRANCH   1  13
ATOM      7  C   UNL     1      -0.017   1.374   0.010  0.00  0.00    +0.000 A 
ATOM      8  C   UNL     1       1.171   2.083   0.002  0.00  0.00    +0.001 A 
ATOM      9  C   UNL     1       2.369   1.401  -0.004  0.00  0.00    +0.015 A 
ATOM     10  C   UNL     1       2.390   0.006  -0.010  0.00  0.00    +0.013 A 
ATOM     11  C   UNL     1       1.206  -0.705  -0.017  0.00  0.00    -0.014 A 
ATOM     12  C   UNL     1       0.002  -0.004   0.002  0.00  0.00    +0.006 A 
ATOM     13  C   UNL     1       1.110  -2.202  -0.068  0.00  0.00    +0.107 C 
ATOM     14  C   UNL     1       2.343  -2.911   0.464  0.00  0.00    +0.038 C 
ATOM     15  C   UNL     1       3.555  -2.522  -0.395  0.00  0.00    +0.076 C 
ATOM     16  S   UNL     1       3.963  -0.796   0.002  0.00  0.00    -0.125 S 
ENDBRANCH   1  13
BRANCH   4  17
ATOM     17  C   UNL     1      -3.672  -3.059   0.289  0.00  0.00    +0.107 C 
BRANCH  17  18
ATOM     18  C   UNL     1      -4.695  -3.534   1.324  0.00  0.00    +0.037 C 
BRANCH  18  19
ATOM     19  C   UNL     1      -6.087  -3.559   0.691  0.00  0.00    +0.104 C 
BRANCH  19  20
ATOM     20  N   UNL     1      -7.066  -4.013   1.681  0.00  0.00    -0.330 N 
ATOM     21  C   UNL     1      -8.408  -4.118   1.335  0.00  0.00    +0.096 A 
ATOM     22  C   UNL     1      -8.814  -3.795   0.044  0.00  0.00    +0.041 A 
ATOM     23  C   UNL     1     -10.153  -3.903  -0.287  0.00  0.00    +0.005 A 
ATOM     24  C   UNL     1     -11.044  -4.333   0.688  0.00  0.00    +0.018 A 
ATOM     25  C   UNL     1     -10.572  -4.637   1.948  0.00  0.00    +0.084 A 
ATOM     26  N   UNL     1      -9.288  -4.529   2.235  0.00  0.00    -0.350 N 
ATOM     27  H   UNL     1      -6.778  -4.241   2.579  0.00  0.00    +0.147 HD
ATOM     28  H   UNL     1      -8.982  -4.753   3.127  0.00  0.00    +0.166 HD
ENDBRANCH  19  20
ENDBRANCH  18  19
ENDBRANCH  17  18
ENDBRANCH   4  17
TORSDOF 5
