REMARK  Name = ZINC06483562
REMARK  6 active torsions:
REMARK  status: ('A' for Active; 'I' for Inactive)
REMARK    1  A    between atoms: C_1  and  O_2
REMARK    2  A    between atoms: O_2  and  C_3
REMARK    3  A    between atoms: C_5  and  O_18
REMARK    4  A    between atoms: C_8  and  O_9
REMARK    5  A    between atoms: C_13  and  C_16
REMARK    6  A    between atoms: C_16  and  O_17
REMARK                            x       y       z     vdW  Elec       q    Type
REMARK                         _______ _______ _______ _____ _____    ______ ____
ROOT
ATOM      1  C   UNL     1      -0.150   1.183   2.378  0.00  0.00    +0.165 A 
ATOM      2  C   UNL     1       0.988   0.402   2.413  0.00  0.00    +0.095 A 
ATOM      3  C   UNL     1       1.546   0.020   3.632  0.00  0.00    +0.132 A 
ATOM      4  C   UNL     1       0.952   0.430   4.829  0.00  0.00    +0.078 A 
ATOM      5  C   UNL     1      -0.211   1.229   4.797  0.00  0.00    +0.081 A 
ATOM      6  C   UNL     1      -0.757   1.608   3.573  0.00  0.00    +0.170 A 
ATOM      7  C   UNL     1      -0.829   1.656   6.065  0.00  0.00    +0.191 C 
ATOM      8  O   UNL     1      -1.832   2.344   6.054  0.00  0.00    -0.287 OA
ATOM      9  C   UNL     1      -0.227   1.245   7.346  0.00  0.00    +0.061 C 
ATOM     10  C   UNL     1       0.878   0.487   7.374  0.00  0.00    +0.029 C 
ATOM     11  C   UNL     1       1.523   0.041   6.126  0.00  0.00    +0.196 C 
ATOM     12  O   UNL     1       2.525  -0.648   6.170  0.00  0.00    -0.287 OA
ENDROOT
BRANCH   1  14
ATOM     13  C   UNL     1      -0.013   1.086   0.008  0.00  0.00    +0.277 C 
ATOM     14  O   UNL     1      -0.682   1.547   1.184  0.00  0.00    -0.491 OA
ENDBRANCH   1  14
BRANCH   6  15
ATOM     15  O   UNL     1      -1.870   2.380   3.533  0.00  0.00    -0.503 OA
ATOM     16  H   UNL     1      -2.697   1.878   3.525  0.00  0.00    +0.292 HD
ENDBRANCH   6  15
BRANCH   3  17
ATOM     17  O   UNL     1       2.663  -0.747   3.657  0.00  0.00    -0.506 OA
ATOM     18  H   UNL     1       3.487  -0.241   3.663  0.00  0.00    +0.292 HD
ENDBRANCH   3  17
BRANCH  10  19
ATOM     19  C   UNL     1       1.469   0.085   8.701  0.00  0.00    +0.195 C 
BRANCH  19  20
ATOM     20  O   UNL     1       0.678   0.630   9.759  0.00  0.00    -0.390 OA
ATOM     21  H   UNL     1       1.001   0.411  10.644  0.00  0.00    +0.210 HD
ENDBRANCH  19  20
ENDBRANCH  10  19
TORSDOF 5
