REMARK  Name = ZINC04680534
REMARK  7 active torsions:
REMARK  status: ('A' for Active; 'I' for Inactive)
REMARK    1  A    between atoms: C_1  and  C_2
REMARK    2  A    between atoms: C_3  and  C_22
REMARK    3  A    between atoms: C_7  and  N_11
REMARK    4  A    between atoms: N_11  and  N_12
REMARK    5  A    between atoms: C_13  and  C_14
REMARK    6  A    between atoms: C_17  and  O_20
REMARK    7  A    between atoms: O_20  and  C_21
REMARK                            x       y       z     vdW  Elec       q    Type
REMARK                         _______ _______ _______ _____ _____    ______ ____
ROOT
ATOM      1  N   UNL     1       0.262   1.092   2.839  0.00  0.00    -0.220 N 
ATOM      2  H   UNL     1       0.110   1.724   2.119  0.00  0.00    +0.176 HD
ENDROOT
BRANCH   1   9
ATOM      3  C   UNL     1      -1.601   1.384   0.672  0.00  0.00    +0.045 C 
ATOM      4  C   UNL     1      -1.428  -0.112   0.600  0.00  0.00    -0.028 A 
ATOM      5  C   UNL     1      -2.085  -0.827  -0.325  0.00  0.00    -0.008 A 
ATOM      6  S   UNL     1      -1.561  -2.501  -0.008  0.00  0.00    -0.074 S 
ATOM      7  C   UNL     1      -0.473  -2.195   1.359  0.00  0.00    +0.114 A 
ATOM      8  C   UNL     1      -0.543  -0.794   1.527  0.00  0.00    +0.052 A 
ATOM      9  C   UNL     1       0.256  -0.267   2.579  0.00  0.00    +0.150 A 
ATOM     10  N   UNL     1       0.993  -1.092   3.306  0.00  0.00    -0.219 NA
ATOM     11  C   UNL     1       1.014  -2.394   3.087  0.00  0.00    +0.224 A 
ATOM     12  N   UNL     1       0.287  -2.944   2.134  0.00  0.00    -0.228 NA
ATOM     13  C   UNL     1      -3.040  -0.332  -1.382  0.00  0.00    +0.052 C 
ENDBRANCH   1   9
BRANCH   1  14
ATOM     14  N   UNL     1       0.488   1.554   4.142  0.00  0.00    -0.189 NA
ATOM     15  C   UNL     1       0.494   2.829   4.386  0.00  0.00    +0.138 C 
BRANCH  15  16
ATOM     16  C   UNL     1       0.732   3.316   5.757  0.00  0.00    -0.005 A 
ATOM     17  C   UNL     1       0.956   2.407   6.795  0.00  0.00    +0.013 A 
ATOM     18  C   UNL     1       1.178   2.867   8.075  0.00  0.00    +0.046 A 
ATOM     19  C   UNL     1       1.178   4.231   8.335  0.00  0.00    +0.120 A 
ATOM     20  C   UNL     1       0.955   5.138   7.307  0.00  0.00    +0.046 A 
ATOM     21  C   UNL     1       0.739   4.688   6.022  0.00  0.00    +0.013 A 
BRANCH  19  22
ATOM     22  O   UNL     1       1.396   4.680   9.599  0.00  0.00    -0.495 OA
ATOM     23  C   UNL     1       1.383   6.095   9.796  0.00  0.00    +0.277 C 
ENDBRANCH  19  22
ENDBRANCH  15  16
ENDBRANCH   1  14
TORSDOF 4
