REMARK  Name = ZINC51646642
REMARK  13 active torsions:
REMARK  status: ('A' for Active; 'I' for Inactive)
REMARK    1  A    between atoms: C_1  and  C_2
REMARK    2  A    between atoms: C_4  and  C_23
REMARK    3  A    between atoms: C_7  and  N_8
REMARK    4  A    between atoms: N_11  and  C_12
REMARK    5  A    between atoms: C_12  and  C_13
REMARK    6  A    between atoms: C_18  and  C_19
REMARK    7  A    between atoms: C_19  and  N_20
REMARK    8  A    between atoms: N_20  and  C_21
REMARK    9  A    between atoms: N_20  and  C_22
REMARK   10  A    between atoms: N_25  and  C_26
REMARK   11  A    between atoms: C_26  and  C_27
REMARK   12  A    between atoms: C_27  and  C_28
REMARK   13  A    between atoms: C_27  and  C_29
REMARK                            x       y       z     vdW  Elec       q    Type
REMARK                         _______ _______ _______ _____ _____    ______ ____
ROOT
ATOM      1  N   UNL     1       0.025  -0.012   2.413  0.00  0.00    -0.269 N 
ATOM      2  C   UNL     1      -0.057  -0.688   3.577  0.00  0.00    +0.304 C 
ATOM      3  O   UNL     1      -0.040  -1.903   3.576  0.00  0.00    -0.252 OA
ATOM      4  N   UNL     1      -0.156  -0.015   4.741  0.00  0.00    -0.295 N 
ATOM      5  H   UNL     1       0.078   0.956   2.417  0.00  0.00    +0.156 HD
ATOM      6  H   UNL     1      -0.169   0.955   4.741  0.00  0.00    +0.151 HD
ENDROOT
BRANCH   1  13
ATOM      7  C   UNL     1      -1.270   1.182   0.184  0.00  0.00    +0.045 C 
ATOM      8  C   UNL     1      -0.589  -0.159   0.086  0.00  0.00    -0.028 A 
ATOM      9  C   UNL     1      -0.579  -0.838  -1.111  0.00  0.00    +0.018 A 
ATOM     10  C   UNL     1       0.053  -2.082  -1.202  0.00  0.00    +0.037 A 
ATOM     11  C   UNL     1       0.672  -2.631  -0.075  0.00  0.00    +0.015 A 
ATOM     12  C   UNL     1       0.657  -1.946   1.119  0.00  0.00    +0.024 A 
ATOM     13  C   UNL     1       0.033  -0.706   1.204  0.00  0.00    +0.038 A 
BRANCH  10  14
ATOM     14  C   UNL     1       0.066  -2.813  -2.483  0.00  0.00    +0.244 C 
ATOM     15  O   UNL     1      -0.474  -2.334  -3.462  0.00  0.00    -0.270 OA
ATOM     16  N   UNL     1       0.675  -4.012  -2.569  0.00  0.00    -0.311 N 
ATOM     17  H   UNL     1       1.105  -4.394  -1.788  0.00  0.00    +0.149 HD
BRANCH  16  18
ATOM     18  C   UNL     1       0.688  -4.738  -3.841  0.00  0.00    +0.107 C 
BRANCH  18  19
ATOM     19  C   UNL     1       1.438  -6.060  -3.666  0.00  0.00    -0.000 C 
ATOM     20  C   UNL     1       0.670  -6.958  -2.695  0.00  0.00    +0.009 C 
ATOM     21  C   UNL     1       1.560  -6.760  -5.021  0.00  0.00    +0.009 C 
ENDBRANCH  18  19
ENDBRANCH  16  18
ENDBRANCH  10  14
ENDBRANCH   1  13
BRANCH   4  22
ATOM     22  C   UNL     1      -0.245  -0.749   6.005  0.00  0.00    +0.141 C 
BRANCH  22  23
ATOM     23  C   UNL     1      -0.347   0.228   7.148  0.00  0.00    -0.029 A 
ATOM     24  C   UNL     1       0.775   0.539   7.894  0.00  0.00    +0.005 A 
ATOM     25  C   UNL     1       0.681   1.435   8.942  0.00  0.00    +0.000 A 
ATOM     26  C   UNL     1      -0.534   2.022   9.243  0.00  0.00    +0.000 A 
ATOM     27  C   UNL     1      -1.655   1.713   8.496  0.00  0.00    +0.002 A 
ATOM     28  C   UNL     1      -1.560   0.819   7.445  0.00  0.00    -0.059 A 
BRANCH  28  29
ATOM     29  C   UNL     1      -2.782   0.485   6.628  0.00  0.00    -0.043 C 
BRANCH  29  30
ATOM     30  N   UNL     1      -3.337  -0.798   7.078  0.00  0.00    +0.379 N 
ATOM     31  C   UNL     1      -3.819  -0.664   8.460  0.00  0.00    -0.096 C 
ATOM     32  C   UNL     1      -4.454  -1.181   6.205  0.00  0.00    -0.096 C 
ATOM     33  H   UNL     1      -2.620  -1.507   7.039  0.00  0.00    -0.082 HD
ENDBRANCH  29  30
ENDBRANCH  28  29
ENDBRANCH  22  23
ENDBRANCH   4  22
TORSDOF 8
