REMARK  Name = ZINC04929901
REMARK  3 active torsions:
REMARK  status: ('A' for Active; 'I' for Inactive)
REMARK    1  A    between atoms: C_6  and  N_7
REMARK    2  A    between atoms: C_8  and  C_10
REMARK    3  A    between atoms: C_11  and  N_26
REMARK                            x       y       z     vdW  Elec       q    Type
REMARK                         _______ _______ _______ _____ _____    ______ ____
ROOT
ATOM      1  C   UNL     1       4.873  -2.695   0.139  0.00  0.00    +0.097 A 
ATOM      2  C   UNL     1       5.087  -4.050   0.245  0.00  0.00    +0.053 A 
ATOM      3  C   UNL     1       6.461  -4.531   0.317  0.00  0.00    +0.030 A 
ATOM      4  C   UNL     1       6.914  -5.858   0.423  0.00  0.00    +0.022 A 
ATOM      5  C   UNL     1       8.290  -6.102   0.484  0.00  0.00    +0.001 A 
ATOM      6  C   UNL     1       8.791  -7.412   0.589  0.00  0.00    +0.014 A 
ATOM      7  C   UNL     1      10.136  -7.627   0.644  0.00  0.00    -0.043 A 
ATOM      8  C   UNL     1      11.031  -6.557   0.600  0.00  0.00    -0.042 A 
ATOM      9  C   UNL     1      10.580  -5.274   0.500  0.00  0.00    +0.032 A 
ATOM     10  C   UNL     1       9.201  -5.014   0.439  0.00  0.00    +0.073 A 
ATOM     11  N   UNL     1       8.739  -3.765   0.339  0.00  0.00    -0.239 NA
ATOM     12  C   UNL     1       7.455  -3.514   0.280  0.00  0.00    +0.111 A 
ATOM     13  S   UNL     1       6.518  -2.010   0.146  0.00  0.00    -0.062 S 
ATOM     14  C   UNL     1      12.450  -7.082   0.678  0.00  0.00    +0.036 C 
ATOM     15  C   UNL     1      12.348  -8.582   0.329  0.00  0.00    +0.009 C 
ATOM     16  C   UNL     1      10.906  -8.927   0.754  0.00  0.00    +0.036 C 
ENDROOT
BRANCH   1  18
ATOM     17  N   UNL     1       3.621  -0.663  -0.044  0.00  0.00    -0.281 N 
ATOM     18  C   UNL     1       3.638  -2.007   0.050  0.00  0.00    +0.257 C 
ATOM     19  O   UNL     1       2.592  -2.631   0.059  0.00  0.00    -0.269 OA
ATOM     20  H   UNL     1       4.454  -0.171  -0.118  0.00  0.00    +0.155 HD
BRANCH  17  26
ATOM     21  C   UNL     1       2.308   1.267   0.577  0.00  0.00    +0.027 A 
ATOM     22  C   UNL     1       1.104   1.945   0.588  0.00  0.00    +0.051 A 
ATOM     23  C   UNL     1      -0.015   1.386  -0.011  0.00  0.00    +0.162 A 
ATOM     24  C   UNL     1       0.075   0.142  -0.625  0.00  0.00    +0.164 A 
ATOM     25  C   UNL     1       1.282  -0.538  -0.634  0.00  0.00    +0.072 A 
ATOM     26  C   UNL     1       2.401   0.024  -0.033  0.00  0.00    +0.037 A 
ATOM     27  O   UNL     1      -1.011  -0.418  -1.225  0.00  0.00    -0.485 OA
ATOM     28  C   UNL     1      -2.290   0.119  -0.872  0.00  0.00    +0.270 C 
ATOM     29  C   UNL     1      -2.198   1.650  -0.918  0.00  0.00    +0.270 C 
ATOM     30  O   UNL     1      -1.195   2.066   0.017  0.00  0.00    -0.485 OA
ENDBRANCH  17  26
ENDBRANCH   1  18
BRANCH   2  31
ATOM     31  N   UNL     1       4.021  -4.936   0.278  0.00  0.00    -0.356 N 
ATOM     32  H   UNL     1       3.112  -4.604   0.226  0.00  0.00    +0.142 HD
ATOM     33  H   UNL     1       4.186  -5.889   0.354  0.00  0.00    +0.142 HD
ENDBRANCH   2  31
TORSDOF 3
