REMARK  Name = ZINC02654574
REMARK  9 active torsions:
REMARK  status: ('A' for Active; 'I' for Inactive)
REMARK    1  A    between atoms: C_10  and  N_57
REMARK    2  A    between atoms: C_12  and  C_13
REMARK    3  A    between atoms: C_12  and  N_57
REMARK    4  A    between atoms: C_13  and  C_15
REMARK    5  A    between atoms: C_13  and  O_32
REMARK    6  A    between atoms: C_15  and  O_16
REMARK    7  A    between atoms: O_16  and  C_17
REMARK    8  A    between atoms: C_17  and  C_18
REMARK    9  A    between atoms: C_17  and  C_25
REMARK                            x       y       z     vdW  Elec       q    Type
REMARK                         _______ _______ _______ _____ _____    ______ ____
ROOT
ATOM      1  C   UNL     1       6.409   1.709   1.103  0.00  0.00    +0.123 C 
ENDROOT
BRANCH   1   2
ATOM      2  O   UNL     1       5.745   2.246   2.249  0.00  0.00    -0.391 OA
ATOM      3  H   UNL     1       5.100   2.936   2.042  0.00  0.00    +0.210 HD
ENDBRANCH   1   2
BRANCH   1   4
ATOM      4  C   UNL     1       5.376   1.093   0.157  0.00  0.00    -0.048 C 
BRANCH   4   5
ATOM      5  N   UNL     1       4.657   0.016   0.862  0.00  0.00    +0.385 N 
ATOM      6  H   UNL     1       5.314  -0.742   1.083  0.00  0.00    -0.085 HD
ATOM      7  H   UNL     1       4.258   0.388   1.732  0.00  0.00    -0.085 HD
BRANCH   5  17
ATOM      8  C   UNL     1       0.530  -2.055   2.599  0.00  0.00    +0.000 A 
ATOM      9  C   UNL     1       1.171  -0.866   2.892  0.00  0.00    +0.000 A 
ATOM     10  C   UNL     1       2.152  -0.391   2.046  0.00  0.00    +0.002 A 
ATOM     11  C   UNL     1       2.501  -1.097   0.902  0.00  0.00    -0.058 A 
ATOM     12  C   UNL     1       1.866  -2.284   0.614  0.00  0.00    -0.046 A 
ATOM     13  C   UNL     1       0.877  -2.760   1.465  0.00  0.00    +0.004 A 
ATOM     14  C   UNL     1       2.205  -3.111  -0.599  0.00  0.00    +0.035 C 
ATOM     15  C   UNL     1       2.962  -2.272  -1.627  0.00  0.00    +0.003 C 
ATOM     16  C   UNL     1       4.134  -1.581  -0.919  0.00  0.00    -0.011 C 
ATOM     17  C   UNL     1       3.571  -0.514   0.016  0.00  0.00    -0.041 C 
ENDBRANCH   5  17
ENDBRANCH   4   5
ENDBRANCH   1   4
BRANCH   1  18
ATOM     18  C   UNL     1       7.161   2.828   0.378  0.00  0.00    +0.190 C 
BRANCH  18  19
ATOM     19  O   UNL     1       8.203   3.324   1.221  0.00  0.00    -0.365 OA
BRANCH  19  20
ATOM     20  C   UNL     1       8.971   4.378   0.636  0.00  0.00    +0.178 C 
BRANCH  20  21
ATOM     21  C   UNL     1       8.343   5.705   0.976  0.00  0.00    -0.014 A 
ATOM     22  C   UNL     1       7.823   5.920   2.239  0.00  0.00    +0.009 A 
ATOM     23  C   UNL     1       7.252   7.138   2.554  0.00  0.00    +0.039 A 
ATOM     24  C   UNL     1       7.191   8.140   1.601  0.00  0.00    +0.123 A 
ATOM     25  C   UNL     1       7.707   7.923   0.335  0.00  0.00    +0.039 A 
ATOM     26  C   UNL     1       8.283   6.705   0.024  0.00  0.00    +0.009 A 
ATOM     27  F   UNL     1       6.628   9.330   1.906  0.00  0.00    -0.205 F 
ENDBRANCH  20  21
BRANCH  20  28
ATOM     28  C   UNL     1      10.377   4.334   1.175  0.00  0.00    -0.014 A 
ATOM     29  C   UNL     1      10.602   3.961   2.487  0.00  0.00    +0.009 A 
ATOM     30  C   UNL     1      11.892   3.916   2.982  0.00  0.00    +0.039 A 
ATOM     31  C   UNL     1      12.958   4.255   2.166  0.00  0.00    +0.123 A 
ATOM     32  C   UNL     1      12.731   4.634   0.854  0.00  0.00    +0.039 A 
ATOM     33  C   UNL     1      11.441   4.673   0.360  0.00  0.00    +0.009 A 
ATOM     34  F   UNL     1      14.219   4.216   2.650  0.00  0.00    -0.205 F 
ENDBRANCH  20  28
ENDBRANCH  19  20
ENDBRANCH  18  19
ENDBRANCH   1  18
TORSDOF 9
