REMARK  Name = ZINC02890791
REMARK  8 active torsions:
REMARK  status: ('A' for Active; 'I' for Inactive)
REMARK    1  A    between atoms: C_1  and  O_2
REMARK    2  A    between atoms: O_2  and  C_3
REMARK    3  A    between atoms: C_6  and  C_11
REMARK    4  A    between atoms: C_8  and  O_9
REMARK    5  A    between atoms: O_9  and  C_10
REMARK    6  A    between atoms: C_13  and  C_24
REMARK    7  A    between atoms: C_17  and  N_23
REMARK    8  A    between atoms: C_18  and  C_20
REMARK                            x       y       z     vdW  Elec       q    Type
REMARK                         _______ _______ _______ _____ _____    ______ ____
ROOT
ATOM      1  C   UNL     1      -1.609   2.510  -0.893  0.00  0.00    -0.004 A 
ATOM      2  C   UNL     1      -0.486   1.932  -1.464  0.00  0.00    +0.037 A 
ATOM      3  C   UNL     1       0.749   2.574  -1.383  0.00  0.00    +0.073 A 
ATOM      4  N   UNL     1       0.860   3.738  -0.754  0.00  0.00    -0.239 NA
ATOM      5  C   UNL     1      -0.175   4.321  -0.192  0.00  0.00    +0.112 A 
ATOM      6  C   UNL     1      -1.472   3.760  -0.215  0.00  0.00    +0.037 A 
ATOM      7  C   UNL     1      -2.495   4.541   0.456  0.00  0.00    +0.054 A 
ATOM      8  C   UNL     1      -2.129   5.734   1.044  0.00  0.00    +0.097 A 
ATOM      9  S   UNL     1      -0.382   5.838   0.708  0.00  0.00    -0.062 S 
ENDROOT
BRANCH   1  13
ATOM     10  C   UNL     1      -5.393   0.580  -1.138  0.00  0.00    +0.162 A 
ATOM     11  C   UNL     1      -4.315  -0.076  -0.561  0.00  0.00    +0.050 A 
ATOM     12  C   UNL     1      -3.086   0.545  -0.485  0.00  0.00    +0.012 A 
ATOM     13  C   UNL     1      -2.927   1.840  -0.979  0.00  0.00    -0.013 A 
ATOM     14  C   UNL     1      -4.010   2.501  -1.560  0.00  0.00    +0.058 A 
ATOM     15  C   UNL     1      -5.238   1.871  -1.638  0.00  0.00    +0.162 A 
BRANCH  10  17
ATOM     16  C   UNL     1      -6.688  -1.361  -0.685  0.00  0.00    +0.277 C 
ATOM     17  O   UNL     1      -6.601  -0.038  -1.217  0.00  0.00    -0.491 OA
ENDBRANCH  10  17
BRANCH  15  18
ATOM     18  O   UNL     1      -6.296   2.513  -2.203  0.00  0.00    -0.491 OA
ATOM     19  C   UNL     1      -6.066   3.835  -2.694  0.00  0.00    +0.277 C 
ENDBRANCH  15  18
ENDBRANCH   1  13
BRANCH   3  20
ATOM     20  C   UNL     1       1.945   1.953  -2.001  0.00  0.00    +0.000 A 
ATOM     21  C   UNL     1       1.837   0.728  -2.658  0.00  0.00    +0.010 A 
ATOM     22  C   UNL     1       2.952   0.157  -3.236  0.00  0.00    +0.001 A 
ATOM     23  C   UNL     1       4.178   0.793  -3.156  0.00  0.00    +0.000 A 
ATOM     24  C   UNL     1       4.293   2.006  -2.501  0.00  0.00    +0.001 A 
ATOM     25  C   UNL     1       3.183   2.589  -1.924  0.00  0.00    +0.010 A 
ENDBRANCH   3  20
BRANCH   8  26
ATOM     26  C   UNL     1      -2.945   6.654   1.746  0.00  0.00    +0.250 C 
ATOM     27  O   UNL     1      -4.134   6.430   1.887  0.00  0.00    -0.270 OA
ATOM     28  N   UNL     1      -2.406   7.779   2.257  0.00  0.00    -0.325 N 
ATOM     29  H   UNL     1      -1.460   7.958   2.144  0.00  0.00    +0.145 HD
ATOM     30  H   UNL     1      -2.965   8.410   2.737  0.00  0.00    +0.145 HD
ENDBRANCH   8  26
BRANCH   7  31
ATOM     31  N   UNL     1      -3.811   4.099   0.504  0.00  0.00    -0.356 N 
ATOM     32  H   UNL     1      -4.536   4.739   0.567  0.00  0.00    +0.142 HD
ATOM     33  H   UNL     1      -4.004   3.148   0.476  0.00  0.00    +0.142 HD
ENDBRANCH   7  31
TORSDOF 6
