REMARK  Name = ZINC42431192
REMARK  7 active torsions:
REMARK  status: ('A' for Active; 'I' for Inactive)
REMARK    1  A    between atoms: C_1  and  C_2
REMARK    2  A    between atoms: C_2  and  C_3
REMARK    3  A    between atoms: C_2  and  N_4
REMARK    4  A    between atoms: N_4  and  C_5
REMARK    5  A    between atoms: C_5  and  C_6
REMARK    6  A    between atoms: N_11  and  C_12
REMARK    7  A    between atoms: C_18  and  N_20
REMARK                            x       y       z     vdW  Elec       q    Type
REMARK                         _______ _______ _______ _____ _____    ______ ____
ROOT
ATOM      1  N   UNL     1      -1.388  -0.500  -0.146  0.00  0.00    -0.272 N 
ATOM      2  C   UNL     1      -2.318  -0.153   0.766  0.00  0.00    +0.303 C 
ATOM      3  O   UNL     1      -3.479  -0.475   0.602  0.00  0.00    -0.253 OA
ATOM      4  N   UNL     1      -1.962   0.550   1.859  0.00  0.00    -0.298 N 
ATOM      5  H   UNL     1      -1.052   0.871   1.953  0.00  0.00    +0.150 HD
ENDROOT
BRANCH   4   6
ATOM      6  C   UNL     1      -2.950   0.829   2.905  0.00  0.00    +0.060 C 
ATOM      7  C   UNL     1      -3.742   2.084   2.535  0.00  0.00    +0.021 C 
ATOM      8  C   UNL     1      -2.786   3.272   2.407  0.00  0.00    +0.002 C 
ATOM      9  C   UNL     1      -2.068   3.495   3.740  0.00  0.00    -0.001 C 
ATOM     10  C   UNL     1      -1.276   2.240   4.109  0.00  0.00    -0.014 C 
ATOM     11  C   UNL     1      -2.232   1.052   4.237  0.00  0.00    -0.054 C 
BRANCH  11  12
ATOM     12  N   UNL     1      -1.471  -0.153   4.591  0.00  0.00    +0.381 N 
ATOM     13  H   UNL     1      -0.791  -0.345   3.871  0.00  0.00    -0.090 HD
ATOM     14  H   UNL     1      -0.998  -0.006   5.470  0.00  0.00    -0.090 HD
ATOM     15  H   UNL     1      -2.101  -0.936   4.676  0.00  0.00    -0.090 HD
ENDBRANCH  11  12
ENDBRANCH   4   6
BRANCH   1  17
ATOM     16  C   UNL     1       0.950  -1.207  -0.019  0.00  0.00    +0.028 C 
ATOM     17  C   UNL     1      -0.012  -0.017  -0.007  0.00  0.00    +0.072 C 
ATOM     18  C   UNL     1       0.320   0.918  -1.172  0.00  0.00    +0.028 C 
ENDBRANCH   1  17
BRANCH   1  19
ATOM     19  C   UNL     1      -1.753  -1.359  -1.275  0.00  0.00    +0.234 C 
BRANCH  19  20
ATOM     20  C   UNL     1      -1.552  -2.803  -0.893  0.00  0.00    +0.373 C 
ATOM     21  O   UNL     1      -1.142  -3.088   0.220  0.00  0.00    -0.245 OA
ATOM     22  O   UNL     1      -1.800  -3.686  -1.696  0.00  0.00    -0.245 OA
ENDBRANCH  19  20
ENDBRANCH   1  19
TORSDOF 5
