REMARK  Name = ZINC20921323
REMARK  12 active torsions:
REMARK  status: ('A' for Active; 'I' for Inactive)
REMARK    1  A    between atoms: C_1  and  C_2
REMARK    2  A    between atoms: C_2  and  C_3
REMARK    3  A    between atoms: C_2  and  N_4
REMARK    4  A    between atoms: C_6  and  C_9
REMARK    5  A    between atoms: N_10  and  N_11
REMARK    6  A    between atoms: C_15  and  S_18
REMARK    7  A    between atoms: N_16  and  N_17
REMARK    8  A    between atoms: S_18  and  C_19
REMARK    9  A    between atoms: C_19  and  C_20
REMARK   10  A    between atoms: C_20  and  C_21
REMARK   11  A    between atoms: N_23  and  C_24
REMARK   12  A    between atoms: C_27  and  N_30
REMARK                            x       y       z     vdW  Elec       q    Type
REMARK                         _______ _______ _______ _____ _____    ______ ____
ROOT
ATOM      1  N   UNL     1       8.387  -9.117  -0.976  0.00  0.00    -0.204 N 
ATOM      2  C   UNL     1       7.486  -8.071  -0.843  0.00  0.00    +0.254 A 
ATOM      3  N   UNL     1       7.789  -6.799  -0.758  0.00  0.00    -0.109 NA
ATOM      4  N   UNL     1       6.595  -6.076  -0.639  0.00  0.00    -0.119 NA
ATOM      5  C   UNL     1       5.601  -6.931  -0.648  0.00  0.00    +0.210 A 
ATOM      6  N   UNL     1       6.125  -8.186  -0.777  0.00  0.00    -0.211 N 
ATOM      7  H   UNL     1       8.022 -10.153  -1.039  0.00  0.00    +0.177 HD
ENDROOT
BRANCH   6   8
ATOM      8  N   UNL     1       5.414  -9.352  -0.830  0.00  0.00    -0.294 N 
ATOM      9  H   UNL     1       4.316  -9.329  -0.768  0.00  0.00    +0.163 HD
ATOM     10  H   UNL     1       5.940 -10.312  -0.935  0.00  0.00    +0.163 HD
ENDBRANCH   6   8
BRANCH   1  12
ATOM     11  C   UNL     1      10.605  -9.833  -1.156  0.00  0.00    +0.141 C 
ATOM     12  N   UNL     1       9.762  -8.855  -1.031  0.00  0.00    -0.187 NA
BRANCH  11  15
ATOM     13  N   UNL     1      14.230  -9.821  -1.356  0.00  0.00    -0.268 N 
ATOM     14  C   UNL     1      13.059 -10.489  -1.344  0.00  0.00    +0.118 A 
ATOM     15  C   UNL     1      12.054  -9.556  -1.214  0.00  0.00    +0.032 A 
ATOM     16  C   UNL     1      12.666  -8.286  -1.152  0.00  0.00    +0.143 A 
ATOM     17  N   UNL     1      13.959  -8.454  -1.232  0.00  0.00    -0.179 NA
BRANCH  13  19
ATOM     18  C   UNL     1      16.051 -10.862  -0.097  0.00  0.00    +0.032 C 
ATOM     19  C   UNL     1      15.560 -10.423  -1.478  0.00  0.00    +0.101 C 
ATOM     20  C   UNL     1      15.486 -11.640  -2.403  0.00  0.00    +0.032 C 
ENDBRANCH  13  19
ENDBRANCH  11  15
ENDBRANCH   1  12
BRANCH   5  21
ATOM     21  S   UNL     1       3.889  -6.531  -0.522  0.00  0.00    -0.084 S 
BRANCH  21  22
ATOM     22  C   UNL     1       3.871  -4.723  -0.376  0.00  0.00    +0.086 C 
BRANCH  22  23
ATOM     23  C   UNL     1       2.425  -4.236  -0.258  0.00  0.00    +0.107 C 
BRANCH  23  24
ATOM     24  C   UNL     1       2.410  -2.734  -0.137  0.00  0.00    +0.218 C 
ATOM     25  O   UNL     1       3.452  -2.114  -0.144  0.00  0.00    -0.275 OA
ATOM     26  N   UNL     1       1.237  -2.079  -0.021  0.00  0.00    -0.285 N 
ATOM     27  H   UNL     1       0.298  -2.645   0.073  0.00  0.00    +0.155 HD
BRANCH  26  28
ATOM     28  C   UNL     1       1.214  -0.680  -0.019  0.00  0.00    +0.034 A 
ATOM     29  C   UNL     1       2.137   0.031  -0.774  0.00  0.00    +0.025 A 
ATOM     30  C   UNL     1       2.111   1.412  -0.771  0.00  0.00    +0.034 A 
ATOM     31  C   UNL     1       1.168   2.086  -0.017  0.00  0.00    +0.126 A 
ATOM     32  C   UNL     1       0.248   1.380   0.736  0.00  0.00    +0.034 A 
ATOM     33  C   UNL     1       0.268  -0.001   0.737  0.00  0.00    +0.025 A 
BRANCH  31  34
ATOM     34  N   UNL     1       1.144   3.566  -0.015  0.00  0.00    +0.056 N 
ATOM     35  O   UNL     1       1.954   4.189  -0.678  0.00  0.00    -0.126 OA
ATOM     36  O   UNL     1       0.314   4.161   0.649  0.00  0.00    -0.126 OA
ENDBRANCH  31  34
ENDBRANCH  26  28
ENDBRANCH  23  24
ENDBRANCH  22  23
ENDBRANCH  21  22
ENDBRANCH   5  21
TORSDOF 10
