REMARK  Name = ZINC39637065
REMARK  12 active torsions:
REMARK  status: ('A' for Active; 'I' for Inactive)
REMARK    1  A    between atoms: C_1  and  C_2
REMARK    2  A    between atoms: C_3  and  C_8
REMARK    3  A    between atoms: C_4  and  C_7
REMARK    4  A    between atoms: C_12  and  C_21
REMARK    5  A    between atoms: N_23  and  C_24
REMARK    6  A    between atoms: C_24  and  C_25
REMARK    7  A    between atoms: C_27  and  O_35
REMARK    8  A    between atoms: C_28  and  O_33
REMARK    9  A    between atoms: C_29  and  O_31
REMARK   10  A    between atoms: O_31  and  C_32
REMARK   11  A    between atoms: O_33  and  C_34
REMARK   12  A    between atoms: O_35  and  C_36
REMARK                            x       y       z     vdW  Elec       q    Type
REMARK                         _______ _______ _______ _____ _____    ______ ____
ROOT
ATOM      1  C   UNL     1       0.029  -0.415  -2.749  0.00  0.00    +0.252 C 
ATOM      2  O   UNL     1       1.059  -0.160  -3.342  0.00  0.00    -0.270 OA
ATOM      3  N   UNL     1      -1.161  -0.208  -3.345  0.00  0.00    -0.296 N 
ATOM      4  C   UNL     1      -2.512  -0.450  -2.785  0.00  0.00    +0.121 C 
ATOM      5  C   UNL     1      -3.361   0.741  -3.283  0.00  0.00    +0.100 C 
ATOM      6  C   UNL     1      -2.638   1.236  -4.547  0.00  0.00    -0.004 C 
ATOM      7  C   UNL     1      -1.416   0.320  -4.707  0.00  0.00    +0.115 C 
ATOM      8  C   UNL     1      -2.184   2.682  -4.364  0.00  0.00    -0.010 C 
ATOM      9  C   UNL     1      -1.519   3.170  -5.653  0.00  0.00    -0.082 C 
ATOM     10  N   UNL     1      -2.472   3.072  -6.765  0.00  0.00    +0.379 N 
ATOM     11  C   UNL     1      -2.832   1.668  -6.995  0.00  0.00    -0.082 C 
ATOM     12  C   UNL     1      -3.553   1.116  -5.761  0.00  0.00    -0.010 C 
ATOM     13  H   UNL     1      -3.303   3.599  -6.541  0.00  0.00    -0.086 HD
ATOM     14  H   UNL     1      -2.052   3.451  -7.601  0.00  0.00    -0.086 HD
ENDROOT
BRANCH   1  17
ATOM     15  C   UNL     1       0.046   1.327  -0.020  0.00  0.00    +0.070 C 
ATOM     16  C   UNL     1       0.091  -0.174  -0.136  0.00  0.00    +0.093 A 
ATOM     17  C   UNL     1       0.083  -0.951  -1.377  0.00  0.00    +0.101 A 
ATOM     18  C   UNL     1       0.135  -2.268  -1.019  0.00  0.00    +0.147 A 
ATOM     19  O   UNL     1       0.172  -2.333   0.315  0.00  0.00    -0.359 OA
ATOM     20  N   UNL     1       0.149  -1.024   0.847  0.00  0.00    -0.083 NA
ATOM     21  C   UNL     1       0.148  -3.442  -1.963  0.00  0.00    +0.090 C 
ENDBRANCH   1  17
BRANCH   5  22
ATOM     22  C   UNL     1      -4.757   0.286  -3.620  0.00  0.00    +0.218 C 
ATOM     23  O   UNL     1      -4.947  -0.843  -4.021  0.00  0.00    -0.275 OA
ATOM     24  N   UNL     1      -5.796   1.133  -3.474  0.00  0.00    -0.311 N 
ATOM     25  H   UNL     1      -5.644   2.035  -3.153  0.00  0.00    +0.149 HD
BRANCH  24  26
ATOM     26  C   UNL     1      -7.153   0.690  -3.801  0.00  0.00    +0.139 C 
BRANCH  26  27
ATOM     27  C   UNL     1      -8.122   1.817  -3.553  0.00  0.00    -0.023 A 
ATOM     28  C   UNL     1      -8.710   1.960  -2.311  0.00  0.00    +0.054 A 
ATOM     29  C   UNL     1      -9.603   2.996  -2.078  0.00  0.00    +0.165 A 
ATOM     30  C   UNL     1      -9.906   3.891  -3.097  0.00  0.00    +0.204 A 
ATOM     31  C   UNL     1      -9.312   3.744  -4.345  0.00  0.00    +0.165 A 
ATOM     32  C   UNL     1      -8.417   2.709  -4.568  0.00  0.00    +0.054 A 
BRANCH  31  33
ATOM     33  O   UNL     1      -9.605   4.618  -5.346  0.00  0.00    -0.491 OA
ATOM     34  C   UNL     1      -8.958   4.406  -6.602  0.00  0.00    +0.277 C 
ENDBRANCH  31  33
BRANCH  30  35
ATOM     35  O   UNL     1     -10.781   4.908  -2.874  0.00  0.00    -0.488 OA
ATOM     36  C   UNL     1     -10.237   6.140  -2.397  0.00  0.00    +0.277 C 
ENDBRANCH  30  35
BRANCH  29  37
ATOM     37  O   UNL     1     -10.181   3.135  -0.856  0.00  0.00    -0.491 OA
ATOM     38  C   UNL     1      -9.824   2.178   0.144  0.00  0.00    +0.277 C 
ENDBRANCH  29  37
ENDBRANCH  26  27
ENDBRANCH  24  26
ENDBRANCH   5  22
TORSDOF 7
