REMARK  Name = ZINC18209061
REMARK  6 active torsions:
REMARK  status: ('A' for Active; 'I' for Inactive)
REMARK    1  A    between atoms: C_1  and  C_2
REMARK    2  A    between atoms: C_6  and  C_8
REMARK    3  A    between atoms: N_9  and  N_10
REMARK    4  A    between atoms: C_15  and  C_18
REMARK    5  A    between atoms: C_18  and  C_19
REMARK    6  A    between atoms: C_23  and  N_25
REMARK                            x       y       z     vdW  Elec       q    Type
REMARK                         _______ _______ _______ _____ _____    ______ ____
ROOT
ATOM      1  N   UNL     1       0.085  -4.806   3.548  0.00  0.00    -0.127 NA
ATOM      2  C   UNL     1       0.102  -6.123   3.535  0.00  0.00    +0.183 C 
ATOM      3  N   UNL     1       0.114  -6.963   2.442  0.00  0.00    -0.263 N 
ATOM      4  C   UNL     1       0.131  -8.280   2.559  0.00  0.00    +0.232 C 
ATOM      5  O   UNL     1       0.142  -9.013   1.593  0.00  0.00    -0.274 OA
ATOM      6  C   UNL     1       0.137  -8.818   3.981  0.00  0.00    +0.144 C 
ATOM      7  S   UNL     1       0.124  -7.240   4.929  0.00  0.00    -0.075 S 
ATOM      8  H   UNL     1       0.109  -6.574   1.554  0.00  0.00    +0.157 HD
ENDROOT
BRANCH   1  10
ATOM      9  C   UNL     1       0.053  -2.845   2.450  0.00  0.00    +0.143 C 
ATOM     10  N   UNL     1       0.070  -4.150   2.437  0.00  0.00    -0.155 NA
BRANCH   9  16
ATOM     11  C   UNL     1      -0.018   1.503   0.010  0.00  0.00    +0.044 C 
ATOM     12  C   UNL     1       0.002  -0.004   0.002  0.00  0.00    -0.050 A 
ATOM     13  C   UNL     1       0.006  -0.688  -1.202  0.00  0.00    +0.003 A 
ATOM     14  C   UNL     1       0.025  -2.071  -1.220  0.00  0.00    +0.001 A 
ATOM     15  C   UNL     1       0.040  -2.780  -0.037  0.00  0.00    +0.009 A 
ATOM     16  C   UNL     1       0.037  -2.096   1.183  0.00  0.00    -0.005 A 
ATOM     17  C   UNL     1       0.023  -0.698   1.193  0.00  0.00    +0.012 A 
ENDBRANCH   9  16
ENDBRANCH   1  10
BRANCH   6  18
ATOM     18  C   UNL     1       1.409  -9.620   4.265  0.00  0.00    +0.059 C 
BRANCH  18  19
ATOM     19  C   UNL     1       1.319 -10.235   5.638  0.00  0.00    -0.044 A 
ATOM     20  C   UNL     1       1.782  -9.539   6.739  0.00  0.00    +0.004 A 
ATOM     21  C   UNL     1       1.699 -10.104   7.998  0.00  0.00    +0.002 A 
ATOM     22  C   UNL     1       1.153 -11.364   8.156  0.00  0.00    +0.033 A 
ATOM     23  C   UNL     1       0.689 -12.059   7.055  0.00  0.00    +0.126 A 
ATOM     24  C   UNL     1       0.768 -11.493   5.796  0.00  0.00    +0.036 A 
BRANCH  23  25
ATOM     25  N   UNL     1       0.105 -13.409   7.224  0.00  0.00    +0.056 N 
ATOM     26  O   UNL     1       0.033 -13.902   8.325  0.00  0.00    -0.126 OA
ATOM     27  O   UNL     1      -0.301 -14.017   6.261  0.00  0.00    -0.126 OA
ENDBRANCH  23  25
ENDBRANCH  18  19
ENDBRANCH   6  18
TORSDOF 5
