REMARK  Name = ZINC39675563
REMARK  11 active torsions:
REMARK  status: ('A' for Active; 'I' for Inactive)
REMARK    1  A    between atoms: C_1  and  C_2
REMARK    2  A    between atoms: C_2  and  C_3
REMARK    3  A    between atoms: C_3  and  C_4
REMARK    4  A    between atoms: C_4  and  C_5
REMARK    5  A    between atoms: C_9  and  C_18
REMARK    6  A    between atoms: N_20  and  C_21
REMARK    7  A    between atoms: C_21  and  C_22
REMARK    8  A    between atoms: C_22  and  C_24
REMARK    9  A    between atoms: C_22  and  N_30
REMARK   10  A    between atoms: N_30  and  C_31
REMARK   11  A    between atoms: N_30  and  C_32
REMARK                            x       y       z     vdW  Elec       q    Type
REMARK                         _______ _______ _______ _____ _____    ______ ____
ROOT
ATOM      1  C   UNL     1       0.938  -3.753   3.035  0.00  0.00    +0.216 C 
ATOM      2  O   UNL     1       1.267  -2.951   3.883  0.00  0.00    -0.276 OA
ATOM      3  N   UNL     1       1.312  -5.043   3.147  0.00  0.00    -0.300 N 
ATOM      4  C   UNL     1       1.015  -6.159   2.217  0.00  0.00    +0.121 C 
ATOM      5  C   UNL     1       2.317  -6.990   2.176  0.00  0.00    +0.100 C 
ATOM      6  C   UNL     1       3.032  -6.664   3.498  0.00  0.00    -0.004 C 
ATOM      7  C   UNL     1       2.119  -5.665   4.223  0.00  0.00    +0.115 C 
ATOM      8  C   UNL     1       4.389  -6.023   3.220  0.00  0.00    -0.010 C 
ATOM      9  C   UNL     1       5.105  -5.761   4.548  0.00  0.00    -0.082 C 
ATOM     10  N   UNL     1       5.278  -7.027   5.271  0.00  0.00    +0.379 N 
ATOM     11  C   UNL     1       3.967  -7.590   5.616  0.00  0.00    -0.082 C 
ATOM     12  C   UNL     1       3.202  -7.929   4.333  0.00  0.00    -0.010 C 
ATOM     13  H   UNL     1       5.780  -7.679   4.689  0.00  0.00    -0.086 HD
ATOM     14  H   UNL     1       5.803  -6.860   6.117  0.00  0.00    -0.086 HD
ENDROOT
BRANCH   5  15
ATOM     15  C   UNL     1       3.166  -6.577   1.002  0.00  0.00    +0.218 C 
ATOM     16  O   UNL     1       3.095  -5.446   0.571  0.00  0.00    -0.275 OA
ATOM     17  N   UNL     1       4.003  -7.465   0.430  0.00  0.00    -0.316 N 
ATOM     18  H   UNL     1       4.059  -8.370   0.775  0.00  0.00    +0.149 HD
BRANCH  17  19
ATOM     19  C   UNL     1       4.828  -7.064  -0.712  0.00  0.00    +0.093 C 
BRANCH  19  20
ATOM     20  C   UNL     1       5.589  -8.280  -1.244  0.00  0.00    -0.021 C 
BRANCH  20  21
ATOM     21  C   UNL     1       4.608  -9.291  -1.778  0.00  0.00    -0.059 A 
ATOM     22  C   UNL     1       4.066  -9.129  -3.039  0.00  0.00    +0.002 A 
ATOM     23  C   UNL     1       3.166 -10.056  -3.530  0.00  0.00    +0.000 A 
ATOM     24  C   UNL     1       2.809 -11.147  -2.759  0.00  0.00    +0.000 A 
ATOM     25  C   UNL     1       3.352 -11.310  -1.499  0.00  0.00    +0.000 A 
ATOM     26  C   UNL     1       4.255 -10.385  -1.010  0.00  0.00    +0.002 A 
ENDBRANCH  20  21
BRANCH  20  27
ATOM     27  N   UNL     1       6.494  -7.858  -2.322  0.00  0.00    +0.382 N 
ATOM     28  C   UNL     1       7.479  -6.908  -1.790  0.00  0.00    -0.096 C 
ATOM     29  C   UNL     1       7.190  -9.033  -2.864  0.00  0.00    -0.096 C 
ATOM     30  H   UNL     1       5.960  -7.415  -3.055  0.00  0.00    -0.082 HD
ENDBRANCH  20  27
ENDBRANCH  19  20
ENDBRANCH  17  19
ENDBRANCH   5  15
BRANCH   1  31
ATOM     31  C   UNL     1       0.110  -3.308   1.857  0.00  0.00    +0.096 C 
BRANCH  31  32
ATOM     32  C   UNL     1      -0.175  -1.809   1.971  0.00  0.00    +0.009 C 
BRANCH  32  34
ATOM     33  C   UNL     1      -1.300   0.142   0.889  0.00  0.00    +0.004 C 
ATOM     34  C   UNL     1      -1.015  -1.357   0.775  0.00  0.00    -0.003 C 
ENDBRANCH  32  34
ENDBRANCH  31  32
ENDBRANCH   1  31
TORSDOF 8
