REMARK  Name = ZINC40003193
REMARK  10 active torsions:
REMARK  status: ('A' for Active; 'I' for Inactive)
REMARK    1  A    between atoms: C_1  and  C_2
REMARK    2  A    between atoms: C_2  and  C_3
REMARK    3  A    between atoms: C_3  and  S_4
REMARK    4  A    between atoms: S_4  and  C_5
REMARK    5  A    between atoms: C_11  and  C_30
REMARK    6  A    between atoms: C_13  and  C_18
REMARK    7  A    between atoms: C_18  and  C_20
REMARK    8  A    between atoms: C_23  and  O_26
REMARK    9  A    between atoms: O_26  and  C_27
REMARK   10  A    between atoms: C_27  and  C_28
REMARK                            x       y       z     vdW  Elec       q    Type
REMARK                         _______ _______ _______ _____ _____    ______ ____
ROOT
ATOM      1  C   UNL     1      -3.074  -2.990  -0.252  0.00  0.00    +0.160 A 
ATOM      2  N   UNL     1      -4.119  -2.187  -0.104  0.00  0.00    -0.133 NA
ATOM      3  N   UNL     1      -5.297  -2.632  -0.035  0.00  0.00    -0.125 NA
ATOM      4  C   UNL     1      -5.563  -3.927  -0.105  0.00  0.00    +0.192 A 
ATOM      5  S   UNL     1      -3.905  -4.575  -0.302  0.00  0.00    -0.024 S 
ATOM      6  N   UNL     1      -6.781  -4.594  -0.048  0.00  0.00    -0.230 N 
ATOM      7  C   UNL     1      -8.101  -3.969   0.104  0.00  0.00    +0.152 C 
ATOM      8  C   UNL     1      -9.103  -5.100   0.111  0.00  0.00    +0.077 C 
ATOM      9  C   UNL     1      -8.397  -6.248  -0.026  0.00  0.00    +0.250 C 
ATOM     10  C   UNL     1      -6.960  -5.925  -0.129  0.00  0.00    +0.293 C 
ATOM     11  O   UNL     1      -6.070  -6.741  -0.265  0.00  0.00    -0.266 OA
ATOM     12  O   UNL     1      -8.925  -7.493  -0.065  0.00  0.00    -0.282 OA
ENDROOT
BRANCH   7  13
ATOM     13  C   UNL     1      -8.167  -3.208   1.403  0.00  0.00    -0.022 A 
ATOM     14  C   UNL     1      -7.657  -3.769   2.559  0.00  0.00    +0.008 A 
ATOM     15  C   UNL     1      -7.717  -3.072   3.751  0.00  0.00    +0.038 A 
ATOM     16  C   UNL     1      -8.288  -1.811   3.786  0.00  0.00    +0.123 A 
ATOM     17  C   UNL     1      -8.798  -1.250   2.628  0.00  0.00    +0.038 A 
ATOM     18  C   UNL     1      -8.732  -1.947   1.436  0.00  0.00    +0.008 A 
ATOM     19  F   UNL     1      -8.347  -1.129   4.951  0.00  0.00    -0.205 F 
ENDBRANCH   7  13
BRANCH   8  20
ATOM     20  C   UNL     1     -10.557  -4.978   0.241  0.00  0.00    +0.195 C 
ATOM     21  O   UNL     1     -11.119  -5.421   1.226  0.00  0.00    -0.287 OA
BRANCH  20  22
ATOM     22  C   UNL     1     -11.341  -4.319  -0.822  0.00  0.00    +0.022 A 
ATOM     23  C   UNL     1     -10.717  -3.922  -2.009  0.00  0.00    +0.015 A 
ATOM     24  C   UNL     1     -11.451  -3.308  -2.998  0.00  0.00    +0.046 A 
ATOM     25  C   UNL     1     -12.812  -3.082  -2.818  0.00  0.00    +0.121 A 
ATOM     26  C   UNL     1     -13.436  -3.475  -1.639  0.00  0.00    +0.046 A 
ATOM     27  C   UNL     1     -12.710  -4.095  -0.648  0.00  0.00    +0.015 A 
BRANCH  25  28
ATOM     28  O   UNL     1     -13.532  -2.476  -3.796  0.00  0.00    -0.488 OA
BRANCH  28  29
ATOM     29  C   UNL     1     -14.925  -2.275  -3.546  0.00  0.00    +0.256 C 
BRANCH  29  30
ATOM     30  C   UNL     1     -15.555  -1.594  -4.733  0.00  0.00    +0.006 C 
ATOM     31  C   UNL     1     -16.701  -2.023  -5.201  0.00  0.00    +0.007 C 
ENDBRANCH  29  30
ENDBRANCH  28  29
ENDBRANCH  25  28
ENDBRANCH  20  22
ENDBRANCH   8  20
BRANCH   1  32
ATOM     32  S   UNL     1      -1.359  -2.605  -0.371  0.00  0.00    -0.097 S 
BRANCH  32  33
ATOM     33  C   UNL     1      -1.304  -0.797  -0.235  0.00  0.00    +0.076 C 
BRANCH  33  35
ATOM     34  C   UNL     1       0.195   1.202  -0.210  0.00  0.00    +0.004 C 
ATOM     35  C   UNL     1       0.148  -0.323  -0.325  0.00  0.00    +0.008 C 
ENDBRANCH  33  35
ENDBRANCH  32  33
ENDBRANCH   1  32
TORSDOF 9
