REMARK  Name = ZINC13598436
REMARK  7 active torsions:
REMARK  status: ('A' for Active; 'I' for Inactive)
REMARK    1  A    between atoms: C_1  and  C_2
REMARK    2  A    between atoms: N_9  and  N_10
REMARK    3  A    between atoms: C_11  and  C_13
REMARK    4  A    between atoms: C_16  and  N_19
REMARK    5  A    between atoms: N_19  and  S_20
REMARK    6  A    between atoms: S_20  and  C_23
REMARK    7  A    between atoms: C_28  and  O_30
REMARK                            x       y       z     vdW  Elec       q    Type
REMARK                         _______ _______ _______ _____ _____    ______ ____
ROOT
ATOM      1  N   UNL     1       0.078  -3.971   4.330  0.00  0.00    -0.202 N 
ATOM      2  C   UNL     1       0.081  -3.792   5.665  0.00  0.00    +0.263 C 
ATOM      3  O   UNL     1       0.067  -2.668   6.128  0.00  0.00    -0.268 OA
ATOM      4  H   UNL     1       0.089  -4.868   3.960  0.00  0.00    +0.178 HD
ENDROOT
BRANCH   1  13
ATOM      5  C   UNL     1      -0.018   1.503   0.010  0.00  0.00    +0.044 C 
ATOM      6  C   UNL     1       0.002  -0.004   0.002  0.00  0.00    -0.050 A 
ATOM      7  C   UNL     1       0.006  -0.688  -1.203  0.00  0.00    +0.005 A 
ATOM      8  C   UNL     1       0.025  -2.066  -1.233  0.00  0.00    +0.029 A 
ATOM      9  C   UNL     1       0.041  -2.791  -0.036  0.00  0.00    +0.077 A 
ATOM     10  C   UNL     1       0.037  -2.086   1.184  0.00  0.00    +0.033 A 
ATOM     11  C   UNL     1       0.023  -0.699   1.196  0.00  0.00    +0.015 A 
ATOM     12  C   UNL     1       0.056  -3.123   2.241  0.00  0.00    +0.152 C 
ATOM     13  N   UNL     1       0.060  -2.949   3.542  0.00  0.00    -0.174 NA
ATOM     14  C   UNL     1       0.070  -4.397   1.496  0.00  0.00    +0.241 C 
ATOM     15  N   UNL     1       0.060  -4.126   0.217  0.00  0.00    -0.211 NA
BRANCH  14  16
ATOM     16  O   UNL     1       0.090  -5.636   2.044  0.00  0.00    -0.491 OA
ATOM     17  H   UNL     1       0.097  -6.353   1.395  0.00  0.00    +0.294 HD
ENDBRANCH  14  16
ENDBRANCH   1  13
BRANCH   2  18
ATOM     18  C   UNL     1       0.102  -4.960   6.565  0.00  0.00    +0.038 A 
ATOM     19  C   UNL     1       0.124  -6.254   6.034  0.00  0.00    +0.015 A 
ATOM     20  C   UNL     1       0.143  -7.337   6.873  0.00  0.00    +0.027 A 
ATOM     21  C   UNL     1       0.141  -7.151   8.253  0.00  0.00    +0.074 A 
ATOM     22  C   UNL     1       0.119  -5.864   8.785  0.00  0.00    +0.027 A 
ATOM     23  C   UNL     1       0.105  -4.776   7.951  0.00  0.00    +0.015 A 
BRANCH  21  24
ATOM     24  N   UNL     1       0.160  -8.252   9.102  0.00  0.00    -0.097 NA
BRANCH  24  25
ATOM     25  S   UNL     1       0.157  -8.033  10.743  0.00  0.00    +0.098 S 
ATOM     26  O   UNL     1       1.392  -7.412  11.072  0.00  0.00    -0.148 OA
ATOM     27  O   UNL     1      -1.098  -7.454  11.073  0.00  0.00    -0.148 OA
BRANCH  25  28
ATOM     28  C   UNL     1       0.184  -9.632  11.482  0.00  0.00    +0.148 A 
ATOM     29  C   UNL     1       1.250 -10.387  11.845  0.00  0.00    +0.037 A 
ATOM     30  C   UNL     1       1.031 -11.626  12.416  0.00  0.00    +0.010 A 
ATOM     31  C   UNL     1      -0.244 -12.051  12.596  0.00  0.00    +0.047 A 
ATOM     32  S   UNL     1      -1.185 -10.675  11.955  0.00  0.00    -0.077 S 
ENDBRANCH  25  28
ENDBRANCH  24  25
ENDBRANCH  21  24
ENDBRANCH   2  18
TORSDOF 6
