REMARK  Name = ZINC01408193
REMARK  4 active torsions:
REMARK  status: ('A' for Active; 'I' for Inactive)
REMARK    1  A    between atoms: C_1  and  N_2
REMARK    2  A    between atoms: N_2  and  C_3
REMARK    3  A    between atoms: N_2  and  C_4
REMARK    4  A    between atoms: C_7  and  C_10
REMARK                            x       y       z     vdW  Elec       q    Type
REMARK                         _______ _______ _______ _____ _____    ______ ____
ROOT
ATOM      1  C   UNL     1      -4.870  -2.906   0.033  0.00  0.00    +0.209 C 
ATOM      2  N   UNL     1      -5.855  -2.237  -0.836  0.00  0.00    -0.294 N 
ATOM      3  C   UNL     1      -6.540  -1.146  -0.320  0.00  0.00    +0.159 C 
ATOM      4  N   UNL     1      -7.166  -1.333   0.913  0.00  0.00    -0.259 N 
ATOM      5  C   UNL     1      -6.500  -2.183   1.791  0.00  0.00    +0.205 A 
ATOM      6  N   UNL     1      -5.420  -2.940   1.393  0.00  0.00    -0.288 N 
ATOM      7  C   UNL     1      -5.012  -3.666   2.476  0.00  0.00    +0.072 A 
ATOM      8  C   UNL     1      -3.992  -4.591   2.664  0.00  0.00    +0.028 A 
ATOM      9  C   UNL     1      -3.866  -5.142   3.929  0.00  0.00    +0.002 A 
ATOM     10  C   UNL     1      -4.712  -4.796   4.968  0.00  0.00    +0.002 A 
ATOM     11  C   UNL     1      -5.735  -3.879   4.807  0.00  0.00    +0.030 A 
ATOM     12  C   UNL     1      -5.881  -3.309   3.537  0.00  0.00    +0.091 A 
ATOM     13  N   UNL     1      -6.759  -2.403   3.052  0.00  0.00    -0.214 NA
ATOM     14  N   UNL     1      -6.595  -0.008  -0.953  0.00  0.00    -0.375 N 
ATOM     15  H   UNL     1      -8.004  -0.902   1.141  0.00  0.00    +0.158 HD
ATOM     16  H   UNL     1      -6.151   0.093  -1.809  0.00  0.00    +0.158 HD
ATOM     17  H   UNL     1      -6.019  -2.549  -1.740  0.00  0.00    +0.151 HD
ATOM     18  H   UNL     1      -7.082   0.737  -0.568  0.00  0.00    +0.158 HD
ENDROOT
BRANCH   1  22
ATOM     19  C   UNL     1      -1.198  -0.719   0.010  0.00  0.00    +0.029 A 
ATOM     20  C   UNL     1      -1.181  -2.108   0.008  0.00  0.00    +0.023 A 
ATOM     21  C   UNL     1      -2.369  -2.812   0.016  0.00  0.00    +0.009 A 
ATOM     22  C   UNL     1      -3.575  -2.135   0.025  0.00  0.00    -0.007 A 
ATOM     23  C   UNL     1      -3.596  -0.752   0.027  0.00  0.00    +0.009 A 
ATOM     24  C   UNL     1      -2.411  -0.042   0.025  0.00  0.00    +0.023 A 
BRANCH  19  26
ATOM     25  C   UNL     1      -0.018   1.461   0.010  0.00  0.00    +0.129 C 
ATOM     26  N   UNL     1       0.002  -0.004   0.002  0.00  0.00    -0.336 N 
ATOM     27  C   UNL     1       1.281  -0.719  -0.014  0.00  0.00    +0.129 C 
ENDBRANCH  19  26
ENDBRANCH   1  22
TORSDOF 2
