REMARK  Name = ZINC02327809
REMARK  6 active torsions:
REMARK  status: ('A' for Active; 'I' for Inactive)
REMARK    1  A    between atoms: C_1  and  C_2
REMARK    2  A    between atoms: C_8  and  C_10
REMARK    3  A    between atoms: C_10  and  S_11
REMARK    4  A    between atoms: S_11  and  C_12
REMARK    5  A    between atoms: N_20  and  S_21
REMARK    6  A    between atoms: S_21  and  C_24
REMARK                            x       y       z     vdW  Elec       q    Type
REMARK                         _______ _______ _______ _____ _____    ______ ____
ROOT
ATOM      1  C   UNL     1      -6.268  -5.421   0.001  0.00  0.00    +0.191 A 
ATOM      2  N   UNL     1      -5.713  -6.608  -0.003  0.00  0.00    -0.220 NA
ATOM      3  C   UNL     1      -6.679  -7.564  -0.005  0.00  0.00    +0.092 A 
ATOM      4  C   UNL     1      -6.647  -8.961  -0.009  0.00  0.00    +0.030 A 
ATOM      5  C   UNL     1      -7.826  -9.672  -0.010  0.00  0.00    +0.002 A 
ATOM      6  C   UNL     1      -9.046  -9.012  -0.007  0.00  0.00    +0.002 A 
ATOM      7  C   UNL     1      -9.094  -7.633  -0.004  0.00  0.00    +0.030 A 
ATOM      8  C   UNL     1      -7.917  -6.901  -0.002  0.00  0.00    +0.093 A 
ATOM      9  N   UNL     1      -7.628  -5.546   0.007  0.00  0.00    -0.186 N 
ENDROOT
BRANCH   9  10
ATOM     10  S   UNL     1      -8.728  -4.307   0.018  0.00  0.00    +0.086 S 
ATOM     11  O   UNL     1      -9.926  -4.833   0.573  0.00  0.00    -0.148 OA
ATOM     12  O   UNL     1      -8.063  -3.179   0.571  0.00  0.00    -0.148 OA
BRANCH  10  13
ATOM     13  C   UNL     1      -9.082  -3.910  -1.661  0.00  0.00    +0.112 A 
ATOM     14  C   UNL     1      -8.310  -2.954  -2.318  0.00  0.00    +0.029 A 
ATOM     15  C   UNL     1      -8.557  -2.623  -3.615  0.00  0.00    +0.010 A 
ATOM     16  C   UNL     1      -9.606  -3.253  -4.305  0.00  0.00    -0.018 A 
ATOM     17  C   UNL     1      -9.892  -2.939  -5.645  0.00  0.00    +0.008 A 
ATOM     18  C   UNL     1     -10.915  -3.570  -6.281  0.00  0.00    +0.001 A 
ATOM     19  C   UNL     1     -11.688  -4.527  -5.625  0.00  0.00    +0.001 A 
ATOM     20  C   UNL     1     -11.441  -4.857  -4.328  0.00  0.00    +0.008 A 
ATOM     21  C   UNL     1     -10.392  -4.226  -3.637  0.00  0.00    -0.016 A 
ATOM     22  C   UNL     1     -10.103  -4.545  -2.299  0.00  0.00    +0.037 A 
ENDBRANCH  10  13
ENDBRANCH   9  10
BRANCH   1  23
ATOM     23  S   UNL     1      -5.390  -3.893   0.006  0.00  0.00    -0.077 S 
BRANCH  23  24
ATOM     24  C   UNL     1      -3.646  -4.389  -0.006  0.00  0.00    +0.173 C 
BRANCH  24  32
ATOM     25  C   UNL     1      -0.018   1.503   0.010  0.00  0.00    +0.089 C 
ATOM     26  C   UNL     1       0.002  -0.004   0.002  0.00  0.00    +0.136 A 
ATOM     27  C   UNL     1      -1.076  -0.808   0.003  0.00  0.00    +0.091 A 
ATOM     28  C   UNL     1      -0.625  -2.147  -0.007  0.00  0.00    +0.168 A 
ATOM     29  N   UNL     1       0.683  -2.130  -0.013  0.00  0.00    -0.063 NA
ATOM     30  O   UNL     1       1.100  -0.776  -0.013  0.00  0.00    -0.358 OA
ATOM     31  N   UNL     1      -1.432  -3.285  -0.010  0.00  0.00    -0.267 N 
ATOM     32  C   UNL     1      -2.774  -3.159  -0.003  0.00  0.00    +0.229 C 
ATOM     33  O   UNL     1      -3.280  -2.057   0.006  0.00  0.00    -0.275 OA
ATOM     34  H   UNL     1      -1.027  -4.166  -0.017  0.00  0.00    +0.156 HD
ENDBRANCH  24  32
ENDBRANCH  23  24
ENDBRANCH   1  23
TORSDOF 5
