REMARK  Name = ZINC31995764
REMARK  5 active torsions:
REMARK  status: ('A' for Active; 'I' for Inactive)
REMARK    1  A    between atoms: C_1  and  O_2
REMARK    2  A    between atoms: O_2  and  C_3
REMARK    3  A    between atoms: C_5  and  C_12
REMARK    4  A    between atoms: C_7  and  C_10
REMARK    5  A    between atoms: C_8  and  O_9
REMARK                            x       y       z     vdW  Elec       q    Type
REMARK                         _______ _______ _______ _____ _____    ______ ____
ROOT
ATOM      1  C   UNL     1      -3.674  -1.105   0.018  0.00  0.00    +0.163 A 
ATOM      2  C   UNL     1      -2.488  -0.394   0.009  0.00  0.00    +0.058 A 
ATOM      3  C   UNL     1      -2.505   1.003   0.021  0.00  0.00    -0.014 A 
ATOM      4  C   UNL     1      -3.714   1.685   0.030  0.00  0.00    +0.023 A 
ATOM      5  C   UNL     1      -4.916   0.971   0.033  0.00  0.00    +0.060 A 
ATOM      6  C   UNL     1      -4.892  -0.432   0.027  0.00  0.00    +0.169 A 
ENDROOT
BRANCH   3   7
ATOM      7  C   UNL     1      -1.228   1.759   0.017  0.00  0.00    -0.017 A 
ATOM      8  C   UNL     1      -0.013   1.076   0.008  0.00  0.00    +0.010 A 
ATOM      9  C   UNL     1       1.170   1.783   0.001  0.00  0.00    +0.024 A 
ATOM     10  C   UNL     1       1.153   3.175   0.007  0.00  0.00    +0.030 A 
ATOM     11  C   UNL     1      -0.054   3.859   0.021  0.00  0.00    -0.026 A 
ATOM     12  C   UNL     1      -1.242   3.151   0.029  0.00  0.00    +0.014 A 
ATOM     13  C   UNL     1      -0.106   5.364   0.023  0.00  0.00    +0.038 C 
ATOM     14  C   UNL     1       1.220   5.944   0.514  0.00  0.00    +0.023 C 
ATOM     15  C   UNL     1       2.365   5.308  -0.285  0.00  0.00    +0.102 C 
ATOM     16  N   UNL     1       2.369   3.868   0.004  0.00  0.00    -0.344 N 
ATOM     17  H   UNL     1       3.317   3.351   0.214  0.00  0.00    +0.146 HD
ENDBRANCH   3   7
BRANCH   1  19
ATOM     18  C   UNL     1      -2.364  -3.090   0.002  0.00  0.00    +0.277 C 
ATOM     19  O   UNL     1      -3.649  -2.465   0.011  0.00  0.00    -0.491 OA
ENDBRANCH   1  19
BRANCH   6  20
ATOM     20  O   UNL     1      -6.055  -1.132   0.030  0.00  0.00    -0.503 OA
ATOM     21  H   UNL     1      -7.017  -0.600   0.038  0.00  0.00    +0.292 HD
ENDBRANCH   6  20
BRANCH   5  22
ATOM     22  C   UNL     1      -6.199   1.686   0.044  0.00  0.00    +0.262 C 
ATOM     23  O   UNL     1      -7.240   1.065   0.046  0.00  0.00    -0.296 OA
ENDBRANCH   5  22
TORSDOF 4
