REMARK  Name = ZINC37282704
REMARK  5 active torsions:
REMARK  status: ('A' for Active; 'I' for Inactive)
REMARK    1  A    between atoms: C_1  and  O_2
REMARK    2  A    between atoms: O_2  and  C_3
REMARK    3  A    between atoms: C_6  and  C_10
REMARK    4  A    between atoms: C_10  and  N_11
REMARK    5  A    between atoms: N_11  and  C_12
REMARK                            x       y       z     vdW  Elec       q    Type
REMARK                         _______ _______ _______ _____ _____    ______ ____
ROOT
ATOM      1  N   UNL     1      -6.061  -1.632   0.044  0.00  0.00    +0.389 N 
ATOM      2  H   UNL     1      -6.087  -0.853   0.685  0.00  0.00    -0.084 HD
ATOM      3  H   UNL     1      -5.865  -1.296  -0.886  0.00  0.00    -0.084 HD
ENDROOT
BRANCH   1   4
ATOM      4  C   UNL     1      -7.361  -2.317   0.053  0.00  0.00    +0.016 C 
ATOM      5  C   UNL     1      -7.605  -2.975  -1.307  0.00  0.00    -0.007 C 
ATOM      6  C   UNL     1      -7.020  -2.131  -2.425  0.00  0.00    +0.000 C 
ATOM      7  C   UNL     1      -7.718  -0.796  -2.614  0.00  0.00    +0.019 C 
ATOM      8  C   UNL     1      -7.485   0.117  -1.409  0.00  0.00    +0.104 C 
ATOM      9  N   UNL     1      -8.509  -0.175  -0.392  0.00  0.00    -0.317 N 
ATOM     10  C   UNL     1      -8.464  -1.312   0.310  0.00  0.00    +0.199 C 
ATOM     11  O   UNL     1      -9.308  -1.542   1.149  0.00  0.00    -0.278 OA
ATOM     12  H   UNL     1      -9.221   0.463  -0.229  0.00  0.00    +0.149 HD
ENDBRANCH   1   4
BRANCH   1  13
ATOM     13  C   UNL     1      -5.010  -2.571   0.458  0.00  0.00    -0.046 C 
BRANCH  13  17
ATOM     14  C   UNL     1      -1.228  -0.580   0.433  0.00  0.00    +0.148 A 
ATOM     15  C   UNL     1      -2.006  -0.581   1.582  0.00  0.00    +0.061 A 
ATOM     16  C   UNL     1      -3.228  -1.226   1.588  0.00  0.00    +0.020 A 
ATOM     17  C   UNL     1      -3.677  -1.869   0.449  0.00  0.00    -0.062 A 
ATOM     18  C   UNL     1      -2.904  -1.870  -0.698  0.00  0.00    +0.020 A 
ATOM     19  C   UNL     1      -1.683  -1.222  -0.710  0.00  0.00    +0.061 A 
ATOM     20 BR   UNL     1      -0.631  -1.216  -2.281  0.00  0.00    -0.046 Br
ATOM     21 BR   UNL     1      -1.392   0.298   3.140  0.00  0.00    -0.046 Br
BRANCH  14  23
ATOM     22  C   UNL     1      -0.020   1.431   0.044  0.00  0.00    +0.277 C 
ATOM     23  O   UNL     1      -0.026   0.054   0.425  0.00  0.00    -0.493 OA
ENDBRANCH  14  23
ENDBRANCH  13  17
ENDBRANCH   1  13
TORSDOF 4
