REMARK  Name = ZINC43219048
REMARK  7 active torsions:
REMARK  status: ('A' for Active; 'I' for Inactive)
REMARK    1  A    between atoms: C_1  and  C_2
REMARK    2  A    between atoms: C_2  and  C_3
REMARK    3  A    between atoms: C_3  and  C_4
REMARK    4  A    between atoms: C_4  and  N_5
REMARK    5  A    between atoms: C_10  and  C_27
REMARK    6  A    between atoms: C_13  and  C_18
REMARK    7  A    between atoms: C_13  and  C_24
REMARK                            x       y       z     vdW  Elec       q    Type
REMARK                         _______ _______ _______ _____ _____    ______ ____
ROOT
ATOM      1  N   UNL     1       2.025  -2.113  -2.117  0.00  0.00    -0.242 N 
ATOM      2  C   UNL     1       1.172  -2.270  -3.181  0.00  0.00    +0.224 C 
ATOM      3  O   UNL     1       0.070  -1.785  -3.323  0.00  0.00    -0.275 OA
ATOM      4  C   UNL     1       1.875  -3.139  -4.092  0.00  0.00    +0.080 C 
ATOM      5  C   UNL     1       1.889  -3.525  -5.514  0.00  0.00    +0.010 C 
ATOM      6  N   UNL     1       3.155  -4.330  -5.609  0.00  0.00    +0.400 N 
ATOM      7  C   UNL     1       4.048  -3.911  -4.488  0.00  0.00    +0.074 C 
ATOM      8  C   UNL     1       3.371  -2.671  -3.885  0.00  0.00    +0.090 C 
ATOM      9  C   UNL     1       3.292  -2.546  -2.389  0.00  0.00    +0.225 C 
ATOM     10  O   UNL     1       4.172  -2.782  -1.589  0.00  0.00    -0.275 OA
ATOM     11  H   UNL     1       2.942  -5.312  -5.528  0.00  0.00    -0.083 HD
ATOM     12  H   UNL     1       3.609  -4.149  -6.492  0.00  0.00    -0.083 HD
ENDROOT
BRANCH   5  13
ATOM     13  C   UNL     1       1.956  -2.308  -6.400  0.00  0.00    +0.093 A 
ATOM     14  C   UNL     1       0.907  -1.754  -7.024  0.00  0.00    +0.051 A 
ATOM     15  C   UNL     1       1.434  -0.603  -7.767  0.00  0.00    +0.020 A 
ATOM     16  C   UNL     1       0.867   0.363  -8.598  0.00  0.00    +0.011 A 
ATOM     17  C   UNL     1       1.660   1.329  -9.151  0.00  0.00    +0.001 A 
ATOM     18  C   UNL     1       3.023   1.354  -8.892  0.00  0.00    +0.004 A 
ATOM     19  C   UNL     1       3.600   0.407  -8.073  0.00  0.00    +0.047 A 
ATOM     20  C   UNL     1       2.813  -0.583  -7.500  0.00  0.00    +0.135 A 
ATOM     21  O   UNL     1       3.076  -1.617  -6.676  0.00  0.00    -0.461 OA
ENDBRANCH   5  13
BRANCH   7  22
ATOM     22  C   UNL     1       4.164  -5.018  -3.472  0.00  0.00    -0.047 A 
ATOM     23  C   UNL     1       5.248  -5.059  -2.614  0.00  0.00    +0.003 A 
ATOM     24  C   UNL     1       5.354  -6.074  -1.683  0.00  0.00    +0.000 A 
ATOM     25  C   UNL     1       4.377  -7.049  -1.609  0.00  0.00    +0.000 A 
ATOM     26  C   UNL     1       3.293  -7.008  -2.466  0.00  0.00    +0.000 A 
ATOM     27  C   UNL     1       3.185  -5.990  -3.395  0.00  0.00    +0.003 A 
ENDBRANCH   7  22
BRANCH   7  28
ATOM     28  C   UNL     1       5.411  -3.541  -5.016  0.00  0.00    +0.350 C 
ATOM     29  O   UNL     1       5.649  -3.637  -6.208  0.00  0.00    -0.248 OA
ATOM     30  O   UNL     1       6.274  -3.147  -4.251  0.00  0.00    -0.248 OA
ENDBRANCH   7  28
BRANCH   1  31
ATOM     31  C   UNL     1       1.623  -1.537  -0.832  0.00  0.00    +0.116 C 
BRANCH  31  32
ATOM     32  C   UNL     1       1.829  -0.022  -0.865  0.00  0.00    +0.019 C 
BRANCH  32  34
ATOM     33  C   UNL     1       1.614   2.095   0.445  0.00  0.00    +0.004 C 
ATOM     34  C   UNL     1       1.408   0.580   0.478  0.00  0.00    -0.002 C 
ENDBRANCH  32  34
ENDBRANCH  31  32
ENDBRANCH   1  31
TORSDOF 6
