REMARK  Name = ZINC65397264
REMARK  4 active torsions:
REMARK  status: ('A' for Active; 'I' for Inactive)
REMARK    1  A    between atoms: C_1  and  C_2
REMARK    2  A    between atoms: C_2  and  C_26
REMARK    3  A    between atoms: C_13  and  C_15
REMARK    4  A    between atoms: C_17  and  C_20
REMARK                            x       y       z     vdW  Elec       q    Type
REMARK                         _______ _______ _______ _____ _____    ______ ____
ROOT
ATOM      1  C   UNL     1      -0.019   1.533   0.011  0.00  0.00    +0.012 C 
ATOM      2  C   UNL     1       0.002  -0.004   0.002  0.00  0.00    -0.017 C 
ATOM      3  C   UNL     1       0.722  -0.489  -1.265  0.00  0.00    +0.034 C 
ATOM      4  C   UNL     1       1.331  -1.865  -1.132  0.00  0.00    +0.110 C 
ATOM      5  C   UNL     1       2.783  -1.830  -0.624  0.00  0.00    +0.180 C 
ATOM      6  C   UNL     1       3.034  -0.702   0.336  0.00  0.00    +0.235 C 
ATOM      7  O   UNL     1       4.166  -0.258   0.382  0.00  0.00    -0.274 OA
ATOM      8  N   UNL     1       2.148  -0.152   1.129  0.00  0.00    -0.313 N 
ATOM      9  C   UNL     1       0.742  -0.495   1.241  0.00  0.00    +0.110 C 
ATOM     10  N   UNL     1       2.824  -3.068   0.206  0.00  0.00    -0.315 N 
ATOM     11  C   UNL     1       1.528  -3.489   0.402  0.00  0.00    +0.140 C 
ATOM     12  N   UNL     1       0.648  -2.831  -0.296  0.00  0.00    -0.365 N 
ATOM     13  C   UNL     1      -1.444  -0.509   0.019  0.00  0.00    +0.012 C 
ATOM     14  H   UNL     1       2.470   0.562   1.707  0.00  0.00    +0.149 HD
ATOM     15  H   UNL     1       3.628  -3.506   0.550  0.00  0.00    +0.148 HD
ATOM     16  H   UNL     1      -0.312  -2.990  -0.263  0.00  0.00    +0.161 HD
ENDROOT
BRANCH  11  17
ATOM     17  C   UNL     1       1.165  -4.593   1.320  0.00  0.00    +0.212 A 
ATOM     18  N   UNL     1       2.026  -5.304   2.058  0.00  0.00    -0.204 NA
ATOM     19  C   UNL     1       1.373  -6.204   2.760  0.00  0.00    +0.157 A 
ATOM     20  N   UNL     1       0.050  -6.078   2.473  0.00  0.00    -0.258 N 
ATOM     21  N   UNL     1      -0.056  -5.028   1.546  0.00  0.00    -0.149 NA
ATOM     22  H   UNL     1      -0.677  -6.607   2.838  0.00  0.00    +0.191 HD
BRANCH  19  23
ATOM     23  C   UNL     1       1.972  -7.181   3.695  0.00  0.00    +0.019 A 
ATOM     24  C   UNL     1       1.160  -8.090   4.374  0.00  0.00    +0.011 A 
ATOM     25  C   UNL     1       1.725  -8.999   5.245  0.00  0.00    +0.001 A 
ATOM     26  C   UNL     1       3.093  -9.011   5.446  0.00  0.00    +0.000 A 
ATOM     27  C   UNL     1       3.904  -8.112   4.776  0.00  0.00    +0.001 A 
ATOM     28  C   UNL     1       3.352  -7.202   3.898  0.00  0.00    +0.011 A 
ENDBRANCH  19  23
ENDBRANCH  11  17
TORSDOF 2
