REMARK  Name = ZINC05554077
REMARK  8 active torsions:
REMARK  status: ('A' for Active; 'I' for Inactive)
REMARK    1  A    between atoms: C_1  and  C_2
REMARK    2  A    between atoms: C_4  and  C_18
REMARK    3  A    between atoms: C_5  and  S_14
REMARK    4  A    between atoms: C_7  and  N_8
REMARK    5  A    between atoms: N_8  and  C_9
REMARK    6  A    between atoms: N_8  and  S_10
REMARK    7  A    between atoms: S_10  and  C_13
REMARK    8  A    between atoms: S_14  and  N_17
REMARK                            x       y       z     vdW  Elec       q    Type
REMARK                         _______ _______ _______ _____ _____    ______ ____
ROOT
ATOM      1  C   UNL     1      -2.513   0.978   0.019  0.00  0.00    +0.046 C 
ATOM      2  C   UNL     1      -1.218   1.749   0.017  0.00  0.00    -0.028 A 
ATOM      3  C   UNL     1      -0.013   1.076   0.008  0.00  0.00    +0.010 A 
ATOM      4  C   UNL     1       1.176   1.783   0.000  0.00  0.00    -0.024 A 
ATOM      5  C   UNL     1       1.161   3.166   0.007  0.00  0.00    +0.110 A 
ATOM      6  C   UNL     1      -0.040   3.845   0.023  0.00  0.00    +0.053 A 
ATOM      7  C   UNL     1      -1.236   3.138   0.031  0.00  0.00    +0.055 A 
ATOM      8  C   UNL     1       2.489   1.044  -0.016  0.00  0.00    +0.046 C 
ENDROOT
BRANCH   5   9
ATOM      9  S   UNL     1       2.679   4.061  -0.003  0.00  0.00    +0.056 S 
ATOM     10  O   UNL     1       3.474   3.502  -1.040  0.00  0.00    -0.153 OA
ATOM     11  O   UNL     1       2.337   5.440   0.034  0.00  0.00    -0.153 OA
BRANCH   9  12
ATOM     12  N   UNL     1       3.455   3.727   1.421  0.00  0.00    -0.204 NA
ATOM     13  H   UNL     1       3.047   3.130   2.067  0.00  0.00    +0.144 HD
ATOM     14  H   UNL     1       4.317   4.129   1.609  0.00  0.00    +0.144 HD
ENDBRANCH   9  12
ENDBRANCH   5   9
BRANCH   7  15
ATOM     15  N   UNL     1      -2.454   3.822   0.046  0.00  0.00    -0.210 N 
ATOM     16  C   UNL     1      -3.051   4.284  -1.210  0.00  0.00    +0.157 C 
BRANCH  15  17
ATOM     17  S   UNL     1      -3.223   4.112   1.484  0.00  0.00    +0.042 S 
ATOM     18  O   UNL     1      -4.598   4.226   1.143  0.00  0.00    -0.155 OA
ATOM     19  O   UNL     1      -2.775   3.078   2.349  0.00  0.00    -0.155 OA
ATOM     20  C   UNL     1      -2.583   5.715   2.041  0.00  0.00    +0.218 C 
ENDBRANCH  15  17
ENDBRANCH   7  15
TORSDOF 4
