REMARK  Name = ZINC16042025
REMARK  3 active torsions:
REMARK  status: ('A' for Active; 'I' for Inactive)
REMARK    1  A    between atoms: C_14  and  C_16
REMARK    2  A    between atoms: C_16  and  C_18
REMARK    3  A    between atoms: C_22  and  N_24
REMARK                            x       y       z     vdW  Elec       q    Type
REMARK                         _______ _______ _______ _____ _____    ______ ____
ROOT
ATOM      1  C   UNL     1      -4.868  -0.638  -3.020  0.00  0.00    +0.000 A 
ATOM      2  C   UNL     1      -4.983  -1.845  -3.685  0.00  0.00    +0.002 A 
ATOM      3  C   UNL     1      -4.091  -2.866  -3.434  0.00  0.00    +0.023 A 
ATOM      4  C   UNL     1      -3.066  -2.689  -2.507  0.00  0.00    +0.038 A 
ATOM      5  C   UNL     1      -2.961  -1.471  -1.843  0.00  0.00    -0.012 A 
ATOM      6  C   UNL     1      -3.854  -0.454  -2.098  0.00  0.00    +0.006 A 
ATOM      7  C   UNL     1      -1.776  -1.601  -0.929  0.00  0.00    +0.071 C 
ATOM      8  C   UNL     1      -2.161  -1.379   0.533  0.00  0.00    -0.046 C 
ATOM      9  C   UNL     1      -3.291  -0.329   0.633  0.00  0.00    -0.016 C 
ATOM     10  C   UNL     1      -3.032   0.266   2.043  0.00  0.00    -0.020 C 
ATOM     11  C   UNL     1      -1.493   0.255   2.150  0.00  0.00    -0.076 C 
ATOM     12  C   UNL     1      -0.231  -0.041   0.122  0.00  0.00    +0.052 C 
ATOM     13  C   UNL     1      -0.705  -0.550  -1.242  0.00  0.00    +0.080 C 
ATOM     14  C   UNL     1       1.250  -0.263   0.289  0.00  0.00    -0.027 A 
ATOM     15  C   UNL     1       2.040  -1.390   0.292  0.00  0.00    +0.004 A 
ATOM     16  C   UNL     1       3.407  -1.276   0.474  0.00  0.00    +0.000 A 
ATOM     17  C   UNL     1       3.976  -0.028   0.653  0.00  0.00    +0.002 A 
ATOM     18  C   UNL     1       3.187   1.104   0.649  0.00  0.00    +0.023 A 
ATOM     19  C   UNL     1       1.810   0.998   0.467  0.00  0.00    +0.036 A 
ATOM     20  N   UNL     1       0.817   1.978   0.424  0.00  0.00    -0.286 N 
ATOM     21  C   UNL     1      -0.406   1.453   0.227  0.00  0.00    +0.212 C 
ATOM     22  O   UNL     1      -1.450   2.065   0.143  0.00  0.00    -0.277 OA
ATOM     23  C   UNL     1      -1.256  -2.995  -1.160  0.00  0.00    +0.227 C 
ATOM     24  O   UNL     1      -0.303  -3.512  -0.617  0.00  0.00    -0.275 OA
ATOM     25  N   UNL     1      -2.055  -3.557  -2.087  0.00  0.00    -0.285 N 
ATOM     26  H   UNL     1       0.989   2.927   0.525  0.00  0.00    +0.155 HD
ATOM     27  H   UNL     1      -1.942  -4.459  -2.425  0.00  0.00    +0.155 HD
ATOM     28  N   UNL     1      -1.008  -0.730   1.161  0.00  0.00    +0.395 N 
ATOM     29  H   UNL     1      -0.421  -1.431   1.627  0.00  0.00    -0.079 HD
ENDROOT
BRANCH  13  30
ATOM     30  C   UNL     1      -1.300   0.579  -2.043  0.00  0.00    +0.167 C 
ATOM     31  O   UNL     1      -2.196   1.248  -1.575  0.00  0.00    -0.292 OA
BRANCH  30  32
ATOM     32  C   UNL     1      -0.795   0.869  -3.395  0.00  0.00    +0.020 A 
ATOM     33  C   UNL     1       0.242   0.102  -3.937  0.00  0.00    +0.011 A 
ATOM     34  C   UNL     1       0.708   0.377  -5.205  0.00  0.00    +0.003 A 
ATOM     35  C   UNL     1       0.159   1.415  -5.938  0.00  0.00    +0.033 A 
ATOM     36  C   UNL     1      -0.864   2.181  -5.407  0.00  0.00    +0.127 A 
ATOM     37  C   UNL     1      -1.344   1.915  -4.141  0.00  0.00    +0.044 A 
BRANCH  36  38
ATOM     38  N   UNL     1      -1.445   3.289  -6.199  0.00  0.00    +0.056 N 
ATOM     39  O   UNL     1      -2.345   3.964  -5.733  0.00  0.00    -0.126 OA
ATOM     40  O   UNL     1      -1.022   3.525  -7.316  0.00  0.00    -0.126 OA
ENDBRANCH  36  38
ENDBRANCH  30  32
ENDBRANCH  13  30
TORSDOF 3
