REMARK  Name = ZINC27753992
REMARK  10 active torsions:
REMARK  status: ('A' for Active; 'I' for Inactive)
REMARK    1  A    between atoms: C_1  and  C_2
REMARK    2  A    between atoms: C_2  and  O_3
REMARK    3  A    between atoms: O_3  and  C_4
REMARK    4  A    between atoms: C_6  and  C_11
REMARK    5  A    between atoms: C_9  and  O_10
REMARK    6  A    between atoms: C_13  and  C_28
REMARK    7  A    between atoms: C_15  and  C_20
REMARK    8  A    between atoms: C_15  and  O_27
REMARK    9  A    between atoms: C_23  and  C_26
REMARK   10  A    between atoms: C_28  and  C_30
REMARK                            x       y       z     vdW  Elec       q    Type
REMARK                         _______ _______ _______ _____ _____    ______ ____
ROOT
ATOM      1  C   UNL     1      -2.008  -0.173  -1.319  0.00  0.00    +0.120 C 
ATOM      2  C   UNL     1      -1.402  -0.514   0.046  0.00  0.00    +0.144 C 
ATOM      3  C   UNL     1      -0.010   0.119   0.134  0.00  0.00    +0.172 C 
ATOM      4  N   UNL     1       0.797  -0.335  -1.000  0.00  0.00    -0.267 N 
ATOM      5  C   UNL     1       0.232  -0.664  -2.171  0.00  0.00    +0.302 C 
ATOM      6  O   UNL     1       0.949  -1.026  -3.084  0.00  0.00    -0.253 OA
ATOM      7  N   UNL     1      -1.093  -0.612  -2.374  0.00  0.00    -0.292 N 
ATOM      8  H   UNL     1       1.890  -0.411  -0.901  0.00  0.00    +0.153 HD
ATOM      9  H   UNL     1      -1.488  -0.907  -3.357  0.00  0.00    +0.151 HD
ENDROOT
BRANCH   3  10
ATOM     10  C   UNL     1       0.654  -0.295   1.422  0.00  0.00    +0.003 A 
ATOM     11  C   UNL     1       0.413   0.415   2.583  0.00  0.00    +0.008 A 
ATOM     12  C   UNL     1       1.018   0.032   3.766  0.00  0.00    +0.004 A 
ATOM     13  C   UNL     1       1.871  -1.056   3.785  0.00  0.00    -0.050 A 
ATOM     14  C   UNL     1       2.115  -1.763   2.623  0.00  0.00    +0.004 A 
ATOM     15  C   UNL     1       1.507  -1.383   1.441  0.00  0.00    +0.008 A 
ATOM     16  C   UNL     1       2.533  -1.471   5.074  0.00  0.00    +0.044 C 
ENDBRANCH   3  10
BRANCH   1  19
ATOM     17  C   UNL     1      -5.719  -0.879  -1.278  0.00  0.00    +0.162 A 
ATOM     18  C   UNL     1      -4.503  -0.231  -1.137  0.00  0.00    +0.055 A 
ATOM     19  C   UNL     1      -3.330  -0.880  -1.474  0.00  0.00    -0.023 A 
ATOM     20  C   UNL     1      -3.368  -2.175  -1.957  0.00  0.00    +0.009 A 
ATOM     21  C   UNL     1      -4.577  -2.830  -2.095  0.00  0.00    +0.049 A 
ATOM     22  C   UNL     1      -5.757  -2.184  -1.759  0.00  0.00    +0.158 A 
BRANCH  22  23
ATOM     23  O   UNL     1      -6.948  -2.825  -1.899  0.00  0.00    -0.503 OA
ATOM     24  H   UNL     1      -6.976  -3.857  -2.280  0.00  0.00    +0.292 HD
ENDBRANCH  22  23
BRANCH  17  25
ATOM     25  O   UNL     1      -6.874  -0.241  -0.947  0.00  0.00    -0.489 OA
BRANCH  25  27
ATOM     26  C   UNL     1      -8.152   1.645  -0.142  0.00  0.00    +0.048 C 
ATOM     27  C   UNL     1      -6.759   1.097  -0.459  0.00  0.00    +0.226 C 
ENDBRANCH  25  27
ENDBRANCH  17  25
ENDBRANCH   1  19
BRANCH   3  28
ATOM     28  O   UNL     1      -0.130   1.543   0.095  0.00  0.00    -0.367 OA
ATOM     29  H   UNL     1       0.771   2.172   0.147  0.00  0.00    +0.212 HD
ENDBRANCH   3  28
BRANCH   2  30
ATOM     30  C   UNL     1      -1.287  -2.010   0.189  0.00  0.00    +0.245 C 
ATOM     31  O   UNL     1      -0.615  -2.641  -0.591  0.00  0.00    -0.287 OA
BRANCH  30  32
ATOM     32  C   UNL     1      -2.011  -2.719   1.305  0.00  0.00    +0.451 C 
ATOM     33  F   UNL     1      -1.675  -4.077   1.291  0.00  0.00    -0.163 F 
ATOM     34  F   UNL     1      -1.639  -2.158   2.531  0.00  0.00    -0.163 F 
ATOM     35  F   UNL     1      -3.392  -2.579   1.127  0.00  0.00    -0.163 F 
ENDBRANCH  30  32
ENDBRANCH   2  30
TORSDOF 8
