REMARK  Name = ZINC54557726
REMARK  6 active torsions:
REMARK  status: ('A' for Active; 'I' for Inactive)
REMARK    1  A    between atoms: C_1  and  C_2
REMARK    2  A    between atoms: N_5  and  C_9
REMARK    3  A    between atoms: C_9  and  C_18
REMARK    4  A    between atoms: C_12  and  C_15
REMARK    5  A    between atoms: C_15  and  C_16
REMARK    6  A    between atoms: C_15  and  C_17
REMARK                            x       y       z     vdW  Elec       q    Type
REMARK                         _______ _______ _______ _____ _____    ______ ____
ROOT
ATOM      1  C   UNL     1       1.479  -2.443  -2.439  0.00  0.00    +0.038 C 
ATOM      2  C   UNL     1       0.655  -2.122  -3.688  0.00  0.00    -0.000 C 
ATOM      3  C   UNL     1      -0.715  -2.796  -3.582  0.00  0.00    +0.003 C 
ATOM      4  C   UNL     1      -0.530  -4.311  -3.468  0.00  0.00    -0.008 C 
ATOM      5  C   UNL     1       0.293  -4.632  -2.220  0.00  0.00    +0.003 C 
ATOM      6  C   UNL     1       1.663  -3.958  -2.325  0.00  0.00    -0.000 C 
ENDROOT
BRANCH   1  10
ATOM      7  C   UNL     1      -0.151   1.562  -0.138  0.00  0.00    +0.036 C 
ATOM      8  C   UNL     1      -0.075   0.035  -0.087  0.00  0.00    +0.099 C 
ATOM      9  C   UNL     1       0.655  -0.482  -1.329  0.00  0.00    -0.046 C 
ATOM     10  N   UNL     1       0.778  -1.944  -1.248  0.00  0.00    +0.394 N 
ATOM     11  C   UNL     1       1.539  -2.306  -0.044  0.00  0.00    -0.049 C 
ATOM     12  C   UNL     1       0.807  -1.785   1.195  0.00  0.00    +0.141 C 
ATOM     13  O   UNL     1       0.639  -0.369   1.084  0.00  0.00    -0.380 OA
ATOM     14  H   UNL     1      -0.142  -2.357  -1.202  0.00  0.00    -0.080 HD
ENDBRANCH   1  10
BRANCH   4  15
ATOM     15  C   UNL     1      -1.900  -4.985  -3.363  0.00  0.00    -0.014 C 
ATOM     16  C   UNL     1      -2.724  -4.664  -4.611  0.00  0.00    +0.007 C 
ATOM     17  C   UNL     1      -1.716  -6.499  -3.249  0.00  0.00    +0.007 C 
ENDBRANCH   4  15
BRANCH   1  18
ATOM     18  C   UNL     1       2.828  -1.780  -2.543  0.00  0.00    +0.346 C 
ATOM     19  O   UNL     1       3.221  -1.054  -1.646  0.00  0.00    -0.248 OA
ATOM     20  O   UNL     1       3.526  -1.968  -3.524  0.00  0.00    -0.248 OA
ENDBRANCH   1  18
TORSDOF 3
