REMARK  Name = ZINC05744505
REMARK  7 active torsions:
REMARK  status: ('A' for Active; 'I' for Inactive)
REMARK    1  A    between atoms: C_1  and  C_2
REMARK    2  A    between atoms: C_5  and  O_9
REMARK    3  A    between atoms: O_9  and  C_10
REMARK    4  A    between atoms: C_10  and  C_11
REMARK    5  A    between atoms: N_13  and  N_14
REMARK    6  A    between atoms: C_15  and  C_17
REMARK    7  A    between atoms: C_22  and  N_23
REMARK                            x       y       z     vdW  Elec       q    Type
REMARK                         _______ _______ _______ _____ _____    ______ ____
ROOT
ATOM      1  C   UNL     1      -5.938  -0.306   0.567  0.00  0.00    +0.267 C 
ATOM      2  O   UNL     1      -5.987  -1.512   0.677  0.00  0.00    -0.271 OA
ATOM      3  N   UNL     1      -4.751   0.306   0.381  0.00  0.00    -0.231 N 
ATOM      4  H   UNL     1      -4.712   1.271   0.293  0.00  0.00    +0.173 HD
ENDROOT
BRANCH   3   5
ATOM      5  N   UNL     1      -3.575  -0.453   0.316  0.00  0.00    -0.230 N 
ATOM      6  C   UNL     1      -2.388   0.159   0.130  0.00  0.00    +0.262 C 
ATOM      7  O   UNL     1      -2.339   1.369   0.019  0.00  0.00    -0.269 OA
ATOM      8  H   UNL     1      -3.615  -1.418   0.404  0.00  0.00    +0.173 HD
BRANCH   6   9
ATOM      9  C   UNL     1      -1.147  -0.641   0.060  0.00  0.00    +0.068 A 
ATOM     10  C   UNL     1      -0.815  -1.512   1.100  0.00  0.00    +0.015 A 
ATOM     11  C   UNL     1       0.344  -2.256   1.028  0.00  0.00    +0.001 A 
ATOM     12  C   UNL     1       1.177  -2.141  -0.070  0.00  0.00    +0.002 A 
ATOM     13  C   UNL     1       0.851  -1.284  -1.106  0.00  0.00    +0.033 A 
ATOM     14  C   UNL     1      -0.302  -0.530  -1.045  0.00  0.00    +0.138 A 
BRANCH  14  15
ATOM     15  N   UNL     1      -0.646   0.391  -2.152  0.00  0.00    +0.057 N 
ATOM     16  O   UNL     1       0.144   0.574  -3.060  0.00  0.00    -0.126 OA
ATOM     17  O   UNL     1      -1.722   0.962  -2.157  0.00  0.00    -0.126 OA
ENDBRANCH  14  15
ENDBRANCH   6   9
ENDBRANCH   3   5
BRANCH   1  18
ATOM     18  C   UNL     1      -7.203   0.510   0.638  0.00  0.00    +0.326 C 
BRANCH  18  19
ATOM     19  O   UNL     1      -8.319  -0.359   0.838  0.00  0.00    -0.482 OA
BRANCH  19  24
ATOM     20  C   UNL     1     -13.400   2.047   1.196  0.00  0.00    +0.044 C 
ATOM     21  C   UNL     1     -12.041   1.403   1.100  0.00  0.00    -0.049 A 
ATOM     22  C   UNL     1     -10.918   2.186   0.908  0.00  0.00    +0.007 A 
ATOM     23  C   UNL     1      -9.671   1.599   0.820  0.00  0.00    +0.047 A 
ATOM     24  C   UNL     1      -9.545   0.221   0.925  0.00  0.00    +0.135 A 
ATOM     25  C   UNL     1     -10.674  -0.564   1.114  0.00  0.00    +0.060 A 
ATOM     26  C   UNL     1     -11.919   0.030   1.206  0.00  0.00    +0.022 A 
ATOM     27 BR   UNL     1     -10.509  -2.442   1.251  0.00  0.00    -0.047 Br
ENDBRANCH  19  24
ENDBRANCH  18  19
ENDBRANCH   1  18
TORSDOF 6
