REMARK  Name = ZINC49435731
REMARK  4 active torsions:
REMARK  status: ('A' for Active; 'I' for Inactive)
REMARK    1  A    between atoms: C_5  and  C_6
REMARK    2  A    between atoms: C_6  and  C_8
REMARK    3  A    between atoms: C_8  and  C_10
REMARK    4  A    between atoms: C_8  and  C_12
REMARK                            x       y       z     vdW  Elec       q    Type
REMARK                         _______ _______ _______ _____ _____    ______ ____
ROOT
ATOM      1  C   UNL     1      -0.817  -2.396  -0.022  0.00  0.00    +0.230 C 
ENDROOT
BRANCH   1   2
ATOM      2  C   UNL     1      -2.005  -3.119   0.559  0.00  0.00    +0.161 A 
ATOM      3  N   UNL     1      -3.190  -3.005  -0.015  0.00  0.00    -0.198 NA
ATOM      4  C   UNL     1      -4.242  -3.642   0.495  0.00  0.00    +0.217 A 
ATOM      5  N   UNL     1      -4.099  -4.391   1.583  0.00  0.00    -0.181 NA
ATOM      6  C   UNL     1      -2.906  -4.503   2.157  0.00  0.00    +0.217 A 
ATOM      7  N   UNL     1      -2.753  -5.280   3.287  0.00  0.00    -0.327 N 
ATOM      8  N   UNL     1      -1.858  -3.868   1.637  0.00  0.00    -0.198 NA
ATOM      9  N   UNL     1      -5.479  -3.523  -0.104  0.00  0.00    -0.327 N 
ATOM     10  H   UNL     1      -3.516  -5.746   3.662  0.00  0.00    +0.145 HD
ATOM     11  H   UNL     1      -5.583  -2.975  -0.898  0.00  0.00    +0.145 HD
ATOM     12  H   UNL     1      -6.245  -3.987   0.268  0.00  0.00    +0.145 HD
ATOM     13  H   UNL     1      -1.882  -5.361   3.705  0.00  0.00    +0.145 HD
ENDBRANCH   1   2
BRANCH   1  14
ATOM     14  C   UNL     1      -1.079  -0.912  -0.017  0.00  0.00    +0.194 C 
ATOM     15  O   UNL     1      -2.221  -0.497  -0.030  0.00  0.00    -0.290 OA
BRANCH  14  20
ATOM     16  C   UNL     1      -0.017   1.379   0.010  0.00  0.00    +0.023 A 
ATOM     17  C   UNL     1       1.218   2.028   0.001  0.00  0.00    -0.036 A 
ATOM     18  C   UNL     1       2.318   1.249  -0.055  0.00  0.00    -0.006 A 
ATOM     19  S   UNL     1       1.751  -0.335   0.022  0.00  0.00    -0.090 S 
ATOM     20  C   UNL     1       0.002  -0.004   0.002  0.00  0.00    +0.057 A 
ATOM     21  C   UNL     1       3.782   1.566  -0.240  0.00  0.00    +0.043 C 
ATOM     22  C   UNL     1       4.035   3.064  -0.410  0.00  0.00    +0.005 C 
ATOM     23  C   UNL     1       4.021   3.773   0.935  0.00  0.00    +0.000 C 
ATOM     24  C   UNL     1       2.973   3.222   1.880  0.00  0.00    +0.000 C 
ATOM     25  C   UNL     1       1.654   3.923   1.538  0.00  0.00    +0.005 C 
ATOM     26  C   UNL     1       1.248   3.546   0.113  0.00  0.00    +0.036 C 
ENDBRANCH  14  20
ENDBRANCH   1  14
BRANCH   1  27
ATOM     27  C   UNL     1      -0.594  -2.851  -1.405  0.00  0.00    +0.082 C 
ATOM     28  N   UNL     1      -0.423  -3.201  -2.471  0.00  0.00    -0.195 NA
ENDBRANCH   1  27
TORSDOF 4
