REMARK  Name = ZINC20991112
REMARK  10 active torsions:
REMARK  status: ('A' for Active; 'I' for Inactive)
REMARK    1  A    between atoms: C_6  and  C_7
REMARK    2  A    between atoms: C_7  and  C_9
REMARK    3  A    between atoms: C_7  and  N_28
REMARK    4  A    between atoms: C_9  and  C_10
REMARK    5  A    between atoms: C_10  and  O_12
REMARK    6  A    between atoms: O_12  and  C_13
REMARK    7  A    between atoms: C_13  and  C_14
REMARK    8  A    between atoms: N_16  and  C_17
REMARK    9  A    between atoms: C_20  and  O_24
REMARK   10  A    between atoms: O_24  and  C_25
REMARK                            x       y       z     vdW  Elec       q    Type
REMARK                         _______ _______ _______ _____ _____    ______ ____
ROOT
ATOM      1  C   UNL     1      -1.390   2.215   2.636  0.00  0.00    +0.310 C 
ATOM      2  O   UNL     1      -1.381   1.007   2.635  0.00  0.00    -0.251 OA
ENDROOT
BRANCH   1   3
ATOM      3  C   UNL     1      -1.393   2.970   1.332  0.00  0.00    +0.147 C 
BRANCH   3   4
ATOM      4  C   UNL     1      -1.383   1.977   0.168  0.00  0.00    +0.115 C 
BRANCH   4  10
ATOM      5  C   UNL     1      -0.386   3.263  -1.734  0.00  0.00    +0.007 A 
ATOM      6  C   UNL     1      -0.501   3.947  -2.929  0.00  0.00    +0.020 A 
ATOM      7  C   UNL     1      -1.742   4.105  -3.519  0.00  0.00    +0.041 A 
ATOM      8  C   UNL     1      -2.867   3.572  -2.915  0.00  0.00    +0.020 A 
ATOM      9  C   UNL     1      -2.751   2.884  -1.722  0.00  0.00    +0.007 A 
ATOM     10  C   UNL     1      -1.510   2.727  -1.133  0.00  0.00    -0.027 A 
ATOM     11 CL   UNL     1      -1.888   4.970  -5.017  0.00  0.00    -0.084 Cl
ENDBRANCH   4  10
BRANCH   4  12
ATOM     12  N   UNL     1      -0.126   1.225   0.178  0.00  0.00    -0.292 N 
ATOM     13  C   UNL     1      -0.042   0.044  -0.465  0.00  0.00    +0.298 C 
ATOM     14  O   UNL     1      -1.032  -0.440  -0.979  0.00  0.00    -0.253 OA
ATOM     15  N   UNL     1       1.139  -0.602  -0.537  0.00  0.00    -0.313 N 
ATOM     16  H   UNL     1       0.750   1.625   0.710  0.00  0.00    +0.151 HD
ATOM     17  H   UNL     1       1.207  -1.566  -1.062  0.00  0.00    +0.146 HD
ATOM     18  H   UNL     1       2.034  -0.164  -0.072  0.00  0.00    +0.146 HD
ENDBRANCH   4  12
ENDBRANCH   3   4
ENDBRANCH   1   3
BRANCH   1  19
ATOM     19  O   UNL     1      -1.397   2.885   3.800  0.00  0.00    -0.455 OA
BRANCH  19  20
ATOM     20  C   UNL     1      -1.394   2.092   5.017  0.00  0.00    +0.328 C 
BRANCH  20  21
ATOM     21  C   UNL     1      -1.403   3.009   6.213  0.00  0.00    +0.255 C 
ATOM     22  O   UNL     1      -1.412   4.212   6.055  0.00  0.00    -0.272 OA
ATOM     23  N   UNL     1      -1.402   2.492   7.458  0.00  0.00    -0.283 N 
ATOM     24  H   UNL     1      -1.467   1.403   7.601  0.00  0.00    +0.155 HD
BRANCH  23  25
ATOM     25  C   UNL     1      -1.319   3.342   8.569  0.00  0.00    +0.035 A 
ATOM     26  C   UNL     1      -0.625   2.938   9.701  0.00  0.00    +0.027 A 
ATOM     27  C   UNL     1      -0.539   3.777  10.794  0.00  0.00    +0.049 A 
ATOM     28  C   UNL     1      -1.155   5.020  10.766  0.00  0.00    +0.145 A 
ATOM     29  C   UNL     1      -1.853   5.422   9.636  0.00  0.00    +0.084 A 
ATOM     30  C   UNL     1      -1.936   4.585   8.540  0.00  0.00    +0.047 A 
ATOM     31 CL   UNL     1      -2.625   6.977   9.601  0.00  0.00    -0.080 Cl
BRANCH  28  32
ATOM     32  O   UNL     1      -1.074   5.843  11.845  0.00  0.00    -0.433 OA
BRANCH  32  33
ATOM     33  C   UNL     1      -0.339   5.365  12.973  0.00  0.00    +0.541 C 
ATOM     34  F   UNL     1      -0.924   4.184  13.444  0.00  0.00    -0.166 F 
ATOM     35  F   UNL     1       0.984   5.111  12.594  0.00  0.00    -0.166 F 
ENDBRANCH  32  33
ENDBRANCH  28  32
ENDBRANCH  23  25
ENDBRANCH  20  21
ENDBRANCH  19  20
ENDBRANCH   1  19
TORSDOF 10
