REMARK  Name = ZINC01452766
REMARK  8 active torsions:
REMARK  status: ('A' for Active; 'I' for Inactive)
REMARK    1  A    between atoms: C_1  and  O_2
REMARK    2  A    between atoms: O_2  and  C_3
REMARK    3  A    between atoms: C_8  and  O_9
REMARK    4  A    between atoms: O_9  and  C_10
REMARK    5  A    between atoms: C_14  and  C_16
REMARK    6  A    between atoms: C_17  and  N_32
REMARK    7  A    between atoms: N_18  and  C_25
REMARK    8  A    between atoms: C_25  and  C_26
REMARK                            x       y       z     vdW  Elec       q    Type
REMARK                         _______ _______ _______ _____ _____    ______ ____
ROOT
ATOM      1  C   UNL     1      -6.270  -1.351   2.352  0.00  0.00    +0.099 A 
ATOM      2  C   UNL     1      -7.223  -2.014   1.630  0.00  0.00    +0.113 A 
ATOM      3  N   UNL     1      -7.393  -3.364   1.816  0.00  0.00    -0.277 N 
ATOM      4  C   UNL     1      -6.636  -4.029   2.708  0.00  0.00    +0.331 A 
ATOM      5  O   UNL     1      -6.802  -5.223   2.864  0.00  0.00    -0.246 OA
ATOM      6  N   UNL     1      -5.697  -3.391   3.431  0.00  0.00    -0.274 N 
ATOM      7  H   UNL     1      -5.087  -3.950   4.156  0.00  0.00    +0.173 HD
ATOM      8  C   UNL     1      -5.494  -2.068   3.276  0.00  0.00    +0.263 A 
ATOM      9  O   UNL     1      -4.641  -1.497   3.934  0.00  0.00    -0.267 OA
ENDROOT
BRANCH   1  19
ATOM     10  C   UNL     1      -2.102   1.188   1.006  0.00  0.00    +0.162 A 
ATOM     11  C   UNL     1      -2.806   0.413   0.101  0.00  0.00    +0.050 A 
ATOM     12  C   UNL     1      -4.104   0.014   0.383  0.00  0.00    +0.012 A 
ATOM     13  C   UNL     1      -4.699   0.387   1.563  0.00  0.00    +0.015 A 
ATOM     14  C   UNL     1      -4.004   1.171   2.491  0.00  0.00    +0.111 A 
ATOM     15  C   UNL     1      -2.691   1.568   2.208  0.00  0.00    +0.176 A 
ATOM     16  C   UNL     1      -4.888   1.406   3.643  0.00  0.00    +0.344 C 
ATOM     17  O   UNL     1      -4.589   2.052   4.628  0.00  0.00    -0.245 OA
ATOM     18  O   UNL     1      -6.074   0.804   3.450  0.00  0.00    -0.448 OA
ATOM     19  C   UNL     1      -6.059   0.129   2.163  0.00  0.00    +0.247 C 
BRANCH  10  21
ATOM     20  C   UNL     1      -0.284   1.145  -0.526  0.00  0.00    +0.277 C 
ATOM     21  O   UNL     1      -0.829   1.575   0.723  0.00  0.00    -0.491 OA
ENDBRANCH  10  21
BRANCH  15  22
ATOM     22  O   UNL     1      -2.000   2.323   3.099  0.00  0.00    -0.491 OA
ATOM     23  C   UNL     1      -2.113   3.742   2.973  0.00  0.00    +0.277 C 
ENDBRANCH  15  22
ENDBRANCH   1  19
BRANCH   2  24
ATOM     24  N   UNL     1      -7.999  -1.337   0.724  0.00  0.00    -0.344 N 
ATOM     25  H   UNL     1      -8.764  -1.875   0.145  0.00  0.00    +0.144 HD
ATOM     26  H   UNL     1      -7.856  -0.257   0.575  0.00  0.00    +0.144 HD
ENDBRANCH   2  24
BRANCH   3  27
ATOM     27  C   UNL     1      -8.408  -4.084   1.043  0.00  0.00    +0.164 C 
BRANCH  27  28
ATOM     28  C   UNL     1      -9.716  -4.065   1.791  0.00  0.00    -0.009 A 
ATOM     29  C   UNL     1     -10.027  -5.076   2.687  0.00  0.00    +0.008 A 
ATOM     30  C   UNL     1     -11.240  -5.014   3.356  0.00  0.00    +0.020 A 
ATOM     31  C   UNL     1     -12.097  -3.960   3.102  0.00  0.00    +0.111 A 
ATOM     32  N   UNL     1     -11.770  -3.018   2.238  0.00  0.00    -0.263 NA
ATOM     33  C   UNL     1     -10.623  -3.042   1.588  0.00  0.00    +0.116 A 
ENDBRANCH  27  28
ENDBRANCH   3  27
TORSDOF 6
