REMARK  Name = ZINC20990199
REMARK  4 active torsions:
REMARK  status: ('A' for Active; 'I' for Inactive)
REMARK    1  A    between atoms: C_1  and  C_2
REMARK    2  A    between atoms: C_7  and  S_8
REMARK    3  A    between atoms: S_8  and  N_11
REMARK    4  A    between atoms: C_16  and  C_18
REMARK                            x       y       z     vdW  Elec       q    Type
REMARK                         _______ _______ _______ _____ _____    ______ ____
ROOT
ATOM      1  C   UNL     1       0.980   4.248  -0.202  0.00  0.00    +0.046 C 
ATOM      2  C   UNL     1       0.617   2.785  -0.218  0.00  0.00    -0.023 A 
ATOM      3  C   UNL     1      -0.674   2.402  -0.507  0.00  0.00    +0.016 A 
ATOM      4  C   UNL     1      -1.009   1.050  -0.522  0.00  0.00    +0.011 A 
ATOM      5  C   UNL     1      -0.028   0.082  -0.241  0.00  0.00    +0.049 A 
ATOM      6  C   UNL     1       1.270   0.490   0.048  0.00  0.00    +0.055 A 
ATOM      7  C   UNL     1       1.585   1.831   0.059  0.00  0.00    +0.110 A 
ATOM      8  N   UNL     1      -0.625  -1.163  -0.324  0.00  0.00    -0.357 N 
ATOM      9  H   UNL     1      -0.033  -2.071  -0.136  0.00  0.00    +0.166 HD
ATOM     10  C   UNL     1      -1.920  -1.046  -0.643  0.00  0.00    +0.028 A 
ATOM     11  C   UNL     1      -2.239   0.298  -0.780  0.00  0.00    +0.046 A 
ATOM     12  C   UNL     1      -3.541   0.744  -1.109  0.00  0.00    +0.165 C 
ATOM     13  O   UNL     1      -3.783   1.925  -1.256  0.00  0.00    -0.292 OA
ATOM     14  C   UNL     1      -4.622  -0.303  -1.270  0.00  0.00    +0.080 C 
ATOM     15  C   UNL     1      -4.018  -1.599  -1.811  0.00  0.00    +0.014 C 
ATOM     16  C   UNL     1      -2.947  -2.134  -0.852  0.00  0.00    +0.054 C 
ENDROOT
BRANCH   7  17
ATOM     17  S   UNL     1       3.232   2.338   0.427  0.00  0.00    +0.061 S 
ATOM     18  O   UNL     1       3.130   3.393   1.374  0.00  0.00    -0.153 OA
ATOM     19  O   UNL     1       3.974   1.154   0.682  0.00  0.00    -0.153 OA
BRANCH  17  20
ATOM     20  N   UNL     1       3.860   3.002  -0.954  0.00  0.00    -0.174 NA
ATOM     21  C   UNL     1       4.015   4.458  -1.082  0.00  0.00    +0.110 C 
ATOM     22  C   UNL     1       5.472   4.763  -1.462  0.00  0.00    +0.017 C 
ATOM     23  C   UNL     1       5.838   3.979  -2.724  0.00  0.00    +0.003 C 
ATOM     24  C   UNL     1       5.716   2.478  -2.449  0.00  0.00    +0.020 C 
ATOM     25  C   UNL     1       4.268   2.147  -2.077  0.00  0.00    +0.077 C 
ATOM     26  C   UNL     1       4.167   0.677  -1.666  0.00  0.00    +0.026 C 
ENDBRANCH  17  20
ENDBRANCH   7  17
TORSDOF 2
