REMARK  Name = ZINC08295013
REMARK  12 active torsions:
REMARK  status: ('A' for Active; 'I' for Inactive)
REMARK    1  A    between atoms: C_1  and  C_2
REMARK    2  A    between atoms: C_2  and  C_3
REMARK    3  A    between atoms: C_2  and  C_4
REMARK    4  A    between atoms: C_4  and  C_6
REMARK    5  A    between atoms: C_4  and  N_10
REMARK    6  A    between atoms: C_6  and  O_8
REMARK    7  A    between atoms: O_8  and  C_9
REMARK    8  A    between atoms: C_11  and  C_13
REMARK    9  A    between atoms: C_15  and  N_24
REMARK   10  A    between atoms: C_17  and  O_23
REMARK   11  A    between atoms: C_19  and  O_22
REMARK   12  A    between atoms: C_25  and  C_27
REMARK                            x       y       z     vdW  Elec       q    Type
REMARK                         _______ _______ _______ _____ _____    ______ ____
ROOT
ATOM      1  C   UNL     1      -2.485   1.370  -2.856  0.00  0.00    +0.015 C 
ATOM      2  C   UNL     1      -3.503   0.666  -3.300  0.00  0.00    +0.006 C 
ATOM      3  C   UNL     1      -4.327   1.052  -4.494  0.00  0.00    +0.127 C 
ATOM      4  C   UNL     1      -3.574   2.079  -5.342  0.00  0.00    +0.167 C 
ATOM      5  C   UNL     1      -3.083   3.204  -4.422  0.00  0.00    +0.149 C 
ATOM      6  C   UNL     1      -2.003   2.638  -3.498  0.00  0.00    +0.074 C 
ENDROOT
BRANCH   1   8
ATOM      7  N   UNL     1      -0.721   1.571  -1.179  0.00  0.00    -0.298 N 
ATOM      8  C   UNL     1      -1.773   0.883  -1.664  0.00  0.00    +0.241 C 
ATOM      9  O   UNL     1      -2.135  -0.141  -1.117  0.00  0.00    -0.271 OA
ATOM     10  H   UNL     1      -0.433   2.388  -1.615  0.00  0.00    +0.150 HD
BRANCH   7  11
ATOM     11  C   UNL     1      -0.013   1.086   0.008  0.00  0.00    +0.185 C 
BRANCH  11  13
ATOM     12  C   UNL     1      -2.164   1.050   1.278  0.00  0.00    +0.009 C 
ATOM     13  C   UNL     1      -0.729   1.579   1.267  0.00  0.00    +0.014 C 
ATOM     14  C   UNL     1       0.011   1.072   2.506  0.00  0.00    +0.009 C 
ENDBRANCH  11  13
BRANCH  11  15
ATOM     15  C   UNL     1       1.401   1.607  -0.003  0.00  0.00    +0.328 C 
ATOM     16  O   UNL     1       1.778   2.312  -0.909  0.00  0.00    -0.249 OA
BRANCH  15  17
ATOM     17  O   UNL     1       2.241   1.289   0.994  0.00  0.00    -0.467 OA
ATOM     18  C   UNL     1       3.588   1.827   0.919  0.00  0.00    +0.280 C 
ENDBRANCH  15  17
ENDBRANCH  11  15
ENDBRANCH   7  11
ENDBRANCH   1   8
BRANCH   3  19
ATOM     19  N   UNL     1      -5.598   1.629  -4.048  0.00  0.00    -0.308 N 
ATOM     20  C   UNL     1      -6.633   0.823  -3.740  0.00  0.00    +0.200 C 
ATOM     21  O   UNL     1      -6.513  -0.380  -3.833  0.00  0.00    -0.278 OA
ATOM     22  H   UNL     1      -5.694   2.592  -3.973  0.00  0.00    +0.149 HD
BRANCH  20  23
ATOM     23  C   UNL     1      -7.939   1.416  -3.280  0.00  0.00    +0.016 C 
ATOM     24  C   UNL     1      -8.794   1.847  -4.498  0.00  0.00    -0.009 C 
ATOM     25  C   UNL     1     -10.227   1.812  -3.904  0.00  0.00    -0.020 C 
ATOM     26  C   UNL     1     -10.171   0.612  -2.936  0.00  0.00    -0.082 C 
ATOM     27  N   UNL     1      -8.757   0.399  -2.594  0.00  0.00    +0.387 N 
ATOM     28  H   UNL     1      -8.631   0.484  -1.578  0.00  0.00    -0.085 HD
ATOM     29  H   UNL     1      -8.466  -0.538  -2.897  0.00  0.00    -0.085 HD
ENDBRANCH  20  23
ENDBRANCH   3  19
BRANCH   5  30
ATOM     30  O   UNL     1      -2.536   4.266  -5.206  0.00  0.00    -0.389 OA
ATOM     31  H   UNL     1      -2.194   5.005  -4.684  0.00  0.00    +0.210 HD
ENDBRANCH   5  30
BRANCH   4  32
ATOM     32  O   UNL     1      -4.447   2.619  -6.337  0.00  0.00    -0.387 OA
ATOM     33  H   UNL     1      -4.034   3.288  -6.901  0.00  0.00    +0.210 HD
ENDBRANCH   4  32
TORSDOF 9
