REMARK  Name = ZINC62362077
REMARK  6 active torsions:
REMARK  status: ('A' for Active; 'I' for Inactive)
REMARK    1  A    between atoms: C_1  and  C_2
REMARK    2  A    between atoms: C_5  and  C_8
REMARK    3  A    between atoms: C_8  and  C_10
REMARK    4  A    between atoms: C_8  and  N_21
REMARK    5  A    between atoms: C_10  and  N_11
REMARK    6  A    between atoms: N_14  and  C_15
REMARK                            x       y       z     vdW  Elec       q    Type
REMARK                         _______ _______ _______ _____ _____    ______ ____
ROOT
ATOM      1  C   UNL     1       0.028  -4.285  -0.000  0.00  0.00    -0.020 C 
ENDROOT
BRANCH   1   6
ATOM      2  C   UNL     1      -0.223   1.455   0.618  0.00  0.00    +0.044 C 
ATOM      3  C   UNL     1      -0.157  -0.042   0.457  0.00  0.00    -0.050 A 
ATOM      4  C   UNL     1      -0.110  -0.599  -0.807  0.00  0.00    +0.003 A 
ATOM      5  C   UNL     1      -0.050  -1.972  -0.955  0.00  0.00    +0.002 A 
ATOM      6  C   UNL     1      -0.037  -2.788   0.161  0.00  0.00    -0.059 A 
ATOM      7  C   UNL     1      -0.083  -2.230   1.425  0.00  0.00    +0.002 A 
ATOM      8  C   UNL     1      -0.139  -0.857   1.573  0.00  0.00    +0.003 A 
ENDBRANCH   1   6
BRANCH   1   9
ATOM      9  N   UNL     1       0.924  -4.849   1.018  0.00  0.00    +0.385 N 
ATOM     10  C   UNL     1       2.253  -4.239   0.890  0.00  0.00    -0.078 C 
ATOM     11  C   UNL     1       3.167  -4.763   2.000  0.00  0.00    -0.019 C 
ATOM     12  C   UNL     1       3.289  -6.284   1.877  0.00  0.00    -0.004 C 
ATOM     13  C   UNL     1       1.890  -6.905   1.937  0.00  0.00    -0.019 C 
ATOM     14  C   UNL     1       1.023  -6.301   0.830  0.00  0.00    -0.078 C 
ATOM     15  H   UNL     1       0.553  -4.654   1.936  0.00  0.00    -0.081 HD
ENDBRANCH   1   9
BRANCH   1  16
ATOM     16  C   UNL     1      -1.373  -4.877   0.169  0.00  0.00    +0.095 C 
BRANCH  16  17
ATOM     17  N   UNL     1      -2.244  -4.385  -0.902  0.00  0.00    -0.301 N 
ATOM     18  C   UNL     1      -3.557  -4.689  -0.896  0.00  0.00    +0.300 C 
ATOM     19  O   UNL     1      -4.019  -5.372  -0.003  0.00  0.00    -0.253 OA
ATOM     20  N   UNL     1      -4.357  -4.236  -1.881  0.00  0.00    -0.296 N 
ATOM     21  H   UNL     1      -1.875  -3.840  -1.615  0.00  0.00    +0.150 HD
ATOM     22  H   UNL     1      -3.989  -3.691  -2.594  0.00  0.00    +0.151 HD
BRANCH  20  23
ATOM     23  C   UNL     1      -5.785  -4.566  -1.875  0.00  0.00    +0.079 C 
ATOM     24  C   UNL     1      -5.998  -5.928  -2.542  0.00  0.00    +0.050 C 
ATOM     25  C   UNL     1      -7.498  -6.229  -2.602  0.00  0.00    +0.161 C 
ATOM     26  O   UNL     1      -8.164  -5.184  -3.313  0.00  0.00    -0.380 OA
ATOM     27  C   UNL     1      -8.039  -3.895  -2.710  0.00  0.00    +0.161 C 
ATOM     28  C   UNL     1      -6.561  -3.500  -2.654  0.00  0.00    +0.050 C 
ENDBRANCH  20  23
ENDBRANCH  16  17
ENDBRANCH   1  16
TORSDOF 5
