REMARK  Name = ZINC63265308
REMARK  7 active torsions:
REMARK  status: ('A' for Active; 'I' for Inactive)
REMARK    1  A    between atoms: C_1  and  C_2
REMARK    2  A    between atoms: C_2  and  C_3
REMARK    3  A    between atoms: C_2  and  N_4
REMARK    4  A    between atoms: N_7  and  N_8
REMARK    5  A    between atoms: C_9  and  C_11
REMARK    6  A    between atoms: C_11  and  C_12
REMARK    7  A    between atoms: C_15  and  C_17
REMARK                            x       y       z     vdW  Elec       q    Type
REMARK                         _______ _______ _______ _____ _____    ______ ____
ROOT
ATOM      1  N   UNL     1      -3.940  -1.414   0.052  0.00  0.00    -0.233 N 
ATOM      2  C   UNL     1      -5.205  -1.881   0.061  0.00  0.00    +0.235 C 
ATOM      3  O   UNL     1      -5.449  -2.981  -0.386  0.00  0.00    -0.274 OA
ATOM      4  H   UNL     1      -3.745  -0.534   0.409  0.00  0.00    +0.173 HD
ENDROOT
BRANCH   1   8
ATOM      5  N   UNL     1      -1.372  -0.511   0.012  0.00  0.00    -0.296 N 
ATOM      6  C   UNL     1      -1.643  -1.734  -0.485  0.00  0.00    +0.316 C 
ATOM      7  O   UNL     1      -0.747  -2.417  -0.942  0.00  0.00    -0.251 OA
ATOM      8  N   UNL     1      -2.908  -2.201  -0.475  0.00  0.00    -0.218 N 
ATOM      9  H   UNL     1      -2.087   0.033   0.377  0.00  0.00    +0.151 HD
ATOM     10  H   UNL     1      -3.103  -3.081  -0.833  0.00  0.00    +0.174 HD
BRANCH   5  12
ATOM     11  C   UNL     1      -0.019   1.526   0.010  0.00  0.00    +0.027 C 
ATOM     12  C   UNL     1       0.002  -0.004   0.002  0.00  0.00    +0.068 C 
ATOM     13  C   UNL     1       0.742  -0.511   1.242  0.00  0.00    +0.027 C 
ENDBRANCH   5  12
ENDBRANCH   1   8
BRANCH   2  14
ATOM     14  C   UNL     1      -6.316  -1.035   0.628  0.00  0.00    +0.153 C 
BRANCH  14  15
ATOM     15  C   UNL     1      -7.620  -1.781   0.520  0.00  0.00    +0.058 A 
ATOM     16  C   UNL     1      -8.383  -1.980   1.626  0.00  0.00    +0.071 A 
ATOM     17  S   UNL     1      -9.757  -2.885   0.923  0.00  0.00    -0.075 S 
ATOM     18  C   UNL     1      -9.168  -2.900  -0.765  0.00  0.00    +0.115 A 
ATOM     19  N   UNL     1      -8.024  -2.235  -0.645  0.00  0.00    -0.243 NA
BRANCH  18  20
ATOM     20  C   UNL     1      -9.785  -3.485  -1.964  0.00  0.00    +0.046 A 
ATOM     21  C   UNL     1     -10.973  -4.162  -2.082  0.00  0.00    +0.019 A 
ATOM     22  C   UNL     1     -11.351  -4.624  -3.322  0.00  0.00    +0.028 A 
ATOM     23  C   UNL     1     -10.538  -4.397  -4.389  0.00  0.00    +0.079 A 
ATOM     24  S   UNL     1      -9.188  -3.495  -3.647  0.00  0.00    -0.075 S 
ATOM     25 CL   UNL     1     -10.759  -4.860  -6.048  0.00  0.00    -0.076 Cl
ENDBRANCH  18  20
ENDBRANCH  14  15
ENDBRANCH   2  14
TORSDOF 5
