REMARK  Name = ZINC21627500
REMARK  8 active torsions:
REMARK  status: ('A' for Active; 'I' for Inactive)
REMARK    1  A    between atoms: C_1  and  C_2
REMARK    2  A    between atoms: C_2  and  C_3
REMARK    3  A    between atoms: C_3  and  N_4
REMARK    4  A    between atoms: C_5  and  N_27
REMARK    5  A    between atoms: C_6  and  C_13
REMARK    6  A    between atoms: C_13  and  C_15
REMARK    7  A    between atoms: C_15  and  S_16
REMARK    8  A    between atoms: S_16  and  C_17
REMARK                            x       y       z     vdW  Elec       q    Type
REMARK                         _______ _______ _______ _____ _____    ______ ____
ROOT
ATOM      1  N   UNL     1       2.362   1.420   0.005  0.00  0.00    -0.281 N 
ATOM      2  C   UNL     1       1.212   2.117   0.241  0.00  0.00    +0.116 A 
ATOM      3  C   UNL     1      -0.015   1.430   0.228  0.00  0.00    +0.120 A 
ATOM      4  C   UNL     1       0.010  -0.013  -0.042  0.00  0.00    +0.266 A 
ATOM      5  O   UNL     1      -1.022  -0.659  -0.066  0.00  0.00    -0.267 OA
ATOM      6  N   UNL     1       1.200  -0.609  -0.264  0.00  0.00    -0.274 N 
ATOM      7  H   UNL     1       1.245  -1.689  -0.468  0.00  0.00    +0.173 HD
ATOM      8  C   UNL     1       2.340   0.100  -0.239  0.00  0.00    +0.331 A 
ATOM      9  O   UNL     1       3.391  -0.474  -0.444  0.00  0.00    -0.246 OA
ENDROOT
BRANCH   2  10
ATOM     10  N   UNL     1       1.252   3.455   0.485  0.00  0.00    -0.344 N 
ATOM     11  H   UNL     1       0.320   4.008   0.675  0.00  0.00    +0.144 HD
ATOM     12  H   UNL     1       2.216   3.984   0.493  0.00  0.00    +0.144 HD
ENDBRANCH   2  10
BRANCH   3  13
ATOM     13  C   UNL     1      -1.231   2.107   0.461  0.00  0.00    +0.182 C 
ATOM     14  O   UNL     1      -1.242   3.316   0.570  0.00  0.00    -0.291 OA
BRANCH  13  15
ATOM     15  C   UNL     1      -2.517   1.328   0.574  0.00  0.00    +0.156 C 
BRANCH  15  16
ATOM     16  S   UNL     1      -3.889   2.470   0.871  0.00  0.00    -0.091 S 
BRANCH  16  17
ATOM     17  C   UNL     1      -5.226   1.325   0.959  0.00  0.00    +0.132 C 
ATOM     18  N   UNL     1      -4.993   0.052   0.807  0.00  0.00    -0.234 NA
ATOM     19  C   UNL     1      -5.940  -0.925   0.871  0.00  0.00    +0.070 A 
ATOM     20  C   UNL     1      -5.527  -2.227   1.192  0.00  0.00    +0.028 A 
ATOM     21  C   UNL     1      -6.444  -3.252   1.250  0.00  0.00    +0.002 A 
ATOM     22  C   UNL     1      -7.781  -3.003   0.994  0.00  0.00    +0.000 A 
ATOM     23  C   UNL     1      -8.198  -1.723   0.681  0.00  0.00    +0.006 A 
ATOM     24  C   UNL     1      -7.288  -0.684   0.620  0.00  0.00    -0.012 A 
ATOM     25  C   UNL     1      -7.787   0.697   0.280  0.00  0.00    +0.113 C 
ATOM     26  S   UNL     1      -6.860   1.918   1.244  0.00  0.00    -0.094 S 
ENDBRANCH  16  17
ENDBRANCH  15  16
ENDBRANCH  13  15
ENDBRANCH   3  13
BRANCH   1  27
ATOM     27  C   UNL     1       3.645   2.127   0.016  0.00  0.00    +0.128 C 
BRANCH  27  29
ATOM     28  C   UNL     1       5.299   3.374  -1.381  0.00  0.00    +0.005 C 
ATOM     29  C   UNL     1       3.959   2.636  -1.393  0.00  0.00    +0.018 C 
ENDBRANCH  27  29
ENDBRANCH   1  27
TORSDOF 7
