REMARK  Name = ZINC35696282
REMARK  13 active torsions:
REMARK  status: ('A' for Active; 'I' for Inactive)
REMARK    1  A    between atoms: C_1  and  C_2
REMARK    2  A    between atoms: C_3  and  C_30
REMARK    3  A    between atoms: C_4  and  C_23
REMARK    4  A    between atoms: C_7  and  C_12
REMARK    5  A    between atoms: C_13  and  N_15
REMARK    6  A    between atoms: N_15  and  C_16
REMARK    7  A    between atoms: C_16  and  C_17
REMARK    8  A    between atoms: C_17  and  N_18
REMARK    9  A    between atoms: C_30  and  O_32
REMARK   10  A    between atoms: O_32  and  C_33
REMARK   11  A    between atoms: C_33  and  C_34
REMARK   12  A    between atoms: C_34  and  O_35
REMARK   13  A    between atoms: O_35  and  C_36
REMARK                            x       y       z     vdW  Elec       q    Type
REMARK                         _______ _______ _______ _____ _____    ______ ____
ROOT
ATOM      1  C   UNL     1       0.375   1.229   0.763  0.00  0.00    +0.066 C 
ATOM      2  C   UNL     1       0.268  -0.235   0.422  0.00  0.00    +0.053 C 
ATOM      3  C   UNL     1      -0.969  -0.850   0.417  0.00  0.00    +0.082 C 
ATOM      4  C   UNL     1      -1.024  -2.321   0.068  0.00  0.00    +0.150 C 
ATOM      5  N   UNL     1       0.267  -2.991  -0.242  0.00  0.00    -0.267 N 
ATOM      6  C   UNL     1       0.454  -4.316  -0.584  0.00  0.00    +0.048 C 
ATOM      7  C   UNL     1       1.717  -4.727  -0.830  0.00  0.00    +0.072 C 
ATOM      8  S   UNL     1       2.649  -3.230  -0.576  0.00  0.00    -0.060 S 
ATOM      9  C   UNL     1       1.381  -2.203  -0.181  0.00  0.00    +0.166 C 
ATOM     10  N   UNL     1       1.360  -0.922   0.126  0.00  0.00    -0.230 NA
ENDROOT
BRANCH   4  11
ATOM     11  C   UNL     1      -1.657  -3.049   1.226  0.00  0.00    -0.022 A 
ATOM     12  C   UNL     1      -0.945  -3.238   2.396  0.00  0.00    +0.007 A 
ATOM     13  C   UNL     1      -1.524  -3.906   3.458  0.00  0.00    +0.020 A 
ATOM     14  C   UNL     1      -2.818  -4.384   3.351  0.00  0.00    +0.041 A 
ATOM     15  C   UNL     1      -3.530  -4.194   2.180  0.00  0.00    +0.020 A 
ATOM     16  C   UNL     1      -2.951  -3.522   1.121  0.00  0.00    +0.007 A 
ATOM     17 CL   UNL     1      -3.547  -5.223   4.684  0.00  0.00    -0.084 Cl
ENDBRANCH   4  11
BRANCH   6  18
ATOM     18  C   UNL     1      -0.681  -5.245  -0.677  0.00  0.00    +0.091 C 
ATOM     19  C   UNL     1      -0.461  -6.558  -0.882  0.00  0.00    +0.239 C 
ATOM     20  O   UNL     1       0.805  -7.042  -0.879  0.00  0.00    -0.271 OA
BRANCH  19  21
ATOM     21  N   UNL     1      -1.528  -7.414  -1.097  0.00  0.00    -0.314 N 
ATOM     22  H   UNL     1      -2.437  -7.083  -1.026  0.00  0.00    +0.149 HD
BRANCH  21  23
ATOM     23  C   UNL     1      -1.284  -8.819  -1.431  0.00  0.00    +0.086 C 
BRANCH  23  24
ATOM     24  C   UNL     1      -2.615  -9.509  -1.737  0.00  0.00    -0.060 C 
BRANCH  24  25
ATOM     25  N   UNL     1      -2.371 -10.918  -2.072  0.00  0.00    +0.381 N 
ATOM     26  C   UNL     1      -1.910 -11.658  -0.870  0.00  0.00    -0.079 C 
ATOM     27  C   UNL     1      -2.240 -13.133  -1.212  0.00  0.00    -0.020 C 
ATOM     28  C   UNL     1      -3.584 -13.019  -1.967  0.00  0.00    -0.020 C 
ATOM     29  C   UNL     1      -3.632 -11.570  -2.487  0.00  0.00    -0.079 C 
ATOM     30  H   UNL     1      -1.685 -10.987  -2.809  0.00  0.00    -0.082 HD
ENDBRANCH  24  25
ENDBRANCH  23  24
ENDBRANCH  21  23
ENDBRANCH  19  21
ENDBRANCH   6  18
BRANCH   3  31
ATOM     31  C   UNL     1      -2.133  -0.136   0.725  0.00  0.00    +0.339 C 
ATOM     32  O   UNL     1      -2.066   1.049   1.003  0.00  0.00    -0.245 OA
BRANCH  31  33
ATOM     33  O   UNL     1      -3.332  -0.760   0.712  0.00  0.00    -0.459 OA
BRANCH  33  34
ATOM     34  C   UNL     1      -4.478   0.030   1.036  0.00  0.00    +0.260 C 
BRANCH  34  35
ATOM     35  C   UNL     1      -5.733  -0.841   0.971  0.00  0.00    +0.200 C 
BRANCH  35  36
ATOM     36  O   UNL     1      -5.669  -1.847   1.984  0.00  0.00    -0.380 OA
ATOM     37  C   UNL     1      -6.800  -2.720   2.010  0.00  0.00    +0.194 C 
ENDBRANCH  35  36
ENDBRANCH  34  35
ENDBRANCH  33  34
ENDBRANCH  31  33
ENDBRANCH   3  31
TORSDOF 11
