REMARK  Name = ZINC39684194
REMARK  9 active torsions:
REMARK  status: ('A' for Active; 'I' for Inactive)
REMARK    1  A    between atoms: C_1  and  C_2
REMARK    2  A    between atoms: C_7  and  C_11
REMARK    3  A    between atoms: C_11  and  C_12
REMARK    4  A    between atoms: C_12  and  N_13
REMARK    5  A    between atoms: C_14  and  C_16
REMARK    6  A    between atoms: C_27  and  C_29
REMARK    7  A    between atoms: C_30  and  C_41
REMARK    8  A    between atoms: C_33  and  C_35
REMARK    9  A    between atoms: C_37  and  C_40
REMARK                            x       y       z     vdW  Elec       q    Type
REMARK                         _______ _______ _______ _____ _____    ______ ____
ROOT
ATOM      1  C   UNL     1      -8.351   1.011  -7.040  0.00  0.00    +0.100 C 
ATOM      2  C   UNL     1      -7.935   2.420  -7.519  0.00  0.00    +0.121 C 
ATOM      3  N   UNL     1      -7.576   2.240  -8.945  0.00  0.00    -0.296 N 
ATOM      4  C   UNL     1      -8.587   1.286  -9.462  0.00  0.00    +0.115 C 
ATOM      5  C   UNL     1      -8.782   0.271  -8.318  0.00  0.00    -0.004 C 
ATOM      6  C   UNL     1     -10.248  -0.140  -8.222  0.00  0.00    -0.010 C 
ATOM      7  C   UNL     1     -10.637  -0.925  -9.478  0.00  0.00    -0.082 C 
ATOM      8  N   UNL     1      -9.781  -2.111  -9.601  0.00  0.00    +0.379 N 
ATOM      9  C   UNL     1      -8.383  -1.704  -9.787  0.00  0.00    -0.082 C 
ATOM     10  C   UNL     1      -7.899  -0.952  -8.543  0.00  0.00    -0.010 C 
ATOM     11  C   UNL     1      -6.561   2.815  -9.620  0.00  0.00    +0.247 C 
ATOM     12  O   UNL     1      -6.431   2.611 -10.814  0.00  0.00    -0.270 OA
ATOM     13  H   UNL     1      -9.859  -2.669  -8.764  0.00  0.00    -0.086 HD
ATOM     14  H   UNL     1     -10.079  -2.658 -10.395  0.00  0.00    -0.086 HD
ENDROOT
BRANCH  11  15
ATOM     15  C   UNL     1      -5.647   3.655  -8.943  0.00  0.00    +0.072 C 
ATOM     16  C   UNL     1      -4.512   4.174  -9.448  0.00  0.00    +0.047 C 
ATOM     17  N   UNL     1      -3.872   4.938  -8.523  0.00  0.00    -0.269 N 
ATOM     18  O   UNL     1      -4.596   4.953  -7.307  0.00  0.00    -0.260 OA
ATOM     19  C   UNL     1      -5.763   4.143  -7.516  0.00  0.00    +0.237 C 
ATOM     20  C   UNL     1      -4.016   3.940 -10.852  0.00  0.00    +0.066 C 
ATOM     21  H   UNL     1      -3.036   5.406  -8.674  0.00  0.00    +0.194 HD
BRANCH  19  22
ATOM     22  C   UNL     1      -7.013   4.966  -7.345  0.00  0.00    +0.120 A 
ATOM     23  C   UNL     1      -7.941   4.849  -6.294  0.00  0.00    +0.073 A 
ATOM     24  C   UNL     1      -8.918   5.755  -6.495  0.00  0.00    +0.135 A 
ATOM     25  O   UNL     1      -8.635   6.427  -7.621  0.00  0.00    -0.360 OA
ATOM     26  N   UNL     1      -7.421   5.914  -8.140  0.00  0.00    -0.080 NA
ATOM     27  C   UNL     1     -10.117   5.976  -5.609  0.00  0.00    +0.089 C 
ENDBRANCH  19  22
ENDBRANCH  11  15
BRANCH   1  29
ATOM     28  N   UNL     1      -7.398  -0.623  -5.447  0.00  0.00    -0.315 N 
ATOM     29  C   UNL     1      -7.184   0.309  -6.396  0.00  0.00    +0.218 C 
ATOM     30  O   UNL     1      -6.051   0.583  -6.732  0.00  0.00    -0.275 OA
ATOM     31  H   UNL     1      -8.304  -0.843  -5.178  0.00  0.00    +0.149 HD
BRANCH  28  32
ATOM     32  C   UNL     1      -6.263  -1.306  -4.821  0.00  0.00    +0.109 C 
BRANCH  32  33
ATOM     33  C   UNL     1      -6.778  -2.308  -3.785  0.00  0.00    +0.056 C 
BRANCH  33  40
ATOM     34  C   UNL     1      -1.894  -4.377  -0.441  0.00  0.00    +0.046 C 
ATOM     35  C   UNL     1      -2.946  -3.333  -0.717  0.00  0.00    -0.027 A 
ATOM     36  C   UNL     1      -3.014  -2.197   0.060  0.00  0.00    +0.005 A 
ATOM     37  C   UNL     1      -3.978  -1.230  -0.184  0.00  0.00    +0.001 A 
ATOM     38  C   UNL     1      -4.878  -1.387  -1.200  0.00  0.00    +0.010 A 
ATOM     39  C   UNL     1      -4.827  -2.530  -2.000  0.00  0.00    +0.003 A 
ATOM     40  C   UNL     1      -5.611  -3.009  -3.141  0.00  0.00    -0.021 A 
ATOM     41  C   UNL     1      -5.092  -4.193  -3.503  0.00  0.00    +0.087 A 
ATOM     42  N   UNL     1      -4.040  -4.511  -2.688  0.00  0.00    -0.360 N 
ATOM     43  C   UNL     1      -3.848  -3.511  -1.761  0.00  0.00    +0.050 A 
ATOM     44  H   UNL     1      -3.507  -5.318  -2.755  0.00  0.00    +0.165 HD
ENDBRANCH  33  40
ENDBRANCH  32  33
ENDBRANCH  28  32
ENDBRANCH   1  29
TORSDOF 6
