REMARK  Name = ZINC64538752
REMARK  9 active torsions:
REMARK  status: ('A' for Active; 'I' for Inactive)
REMARK    1  A    between atoms: C_1  and  C_2
REMARK    2  A    between atoms: N_4  and  C_5
REMARK    3  A    between atoms: C_8  and  S_11
REMARK    4  A    between atoms: S_11  and  N_14
REMARK    5  A    between atoms: C_17  and  C_20
REMARK    6  A    between atoms: C_20  and  C_21
REMARK    7  A    between atoms: N_23  and  C_24
REMARK    8  A    between atoms: C_24  and  C_25
REMARK    9  A    between atoms: C_25  and  C_26
REMARK                            x       y       z     vdW  Elec       q    Type
REMARK                         _______ _______ _______ _____ _____    ______ ____
ROOT
ATOM      1  N   UNL     1      -0.878  -7.002   1.964  0.00  0.00    -0.177 NA
ATOM      2  C   UNL     1       0.365  -7.106   2.740  0.00  0.00    +0.110 C 
ATOM      3  C   UNL     1       0.248  -6.215   3.980  0.00  0.00    +0.021 C 
ATOM      4  C   UNL     1      -1.012  -6.595   4.760  0.00  0.00    +0.000 C 
ATOM      5  C   UNL     1      -2.245  -6.365   3.883  0.00  0.00    +0.021 C 
ATOM      6  C   UNL     1      -2.157  -7.253   2.643  0.00  0.00    +0.110 C 
ENDROOT
BRANCH   1   7
ATOM      7  S   UNL     1      -0.840  -6.603   0.357  0.00  0.00    +0.061 S 
ATOM      8  O   UNL     1      -2.038  -7.108  -0.216  0.00  0.00    -0.153 OA
ATOM      9  O   UNL     1       0.447  -6.970  -0.121  0.00  0.00    -0.153 OA
BRANCH   7  13
ATOM     10  C   UNL     1      -1.081  -2.089   0.091  0.00  0.00    +0.033 A 
ATOM     11  C   UNL     1       0.155  -2.716   0.178  0.00  0.00    +0.025 A 
ATOM     12  C   UNL     1       0.225  -4.092   0.259  0.00  0.00    +0.030 A 
ATOM     13  C   UNL     1      -0.934  -4.847   0.254  0.00  0.00    +0.106 A 
ATOM     14  C   UNL     1      -2.166  -4.226   0.168  0.00  0.00    +0.030 A 
ATOM     15  C   UNL     1      -2.244  -2.849   0.093  0.00  0.00    +0.025 A 
BRANCH  10  19
ATOM     16  C   UNL     1      -2.194   1.470   0.609  0.00  0.00    +0.109 C 
ATOM     17  C   UNL     1      -2.169  -0.037   0.608  0.00  0.00    +0.214 C 
ATOM     18  O   UNL     1      -3.061  -0.658   1.145  0.00  0.00    -0.276 OA
ATOM     19  N   UNL     1      -1.156  -0.694   0.009  0.00  0.00    -0.286 N 
ATOM     20  H   UNL     1      -0.478  -0.200  -0.478  0.00  0.00    +0.155 HD
ENDBRANCH  10  19
ENDBRANCH   7  13
ENDBRANCH   1   7
BRANCH   4  21
ATOM     21  C   UNL     1      -1.114  -5.730   6.018  0.00  0.00    +0.099 C 
BRANCH  21  22
ATOM     22  C   UNL     1      -2.286  -6.186   6.848  0.00  0.00    +0.213 C 
ATOM     23  O   UNL     1      -2.973  -7.112   6.470  0.00  0.00    -0.276 OA
ATOM     24  N   UNL     1      -2.571  -5.565   8.010  0.00  0.00    -0.315 N 
ATOM     25  H   UNL     1      -2.022  -4.825   8.312  0.00  0.00    +0.149 HD
BRANCH  24  26
ATOM     26  C   UNL     1      -3.711  -6.009   8.816  0.00  0.00    +0.108 C 
BRANCH  26  27
ATOM     27  C   UNL     1      -3.812  -5.144  10.075  0.00  0.00    +0.052 C 
BRANCH  27  28
ATOM     28  C   UNL     1      -4.984  -5.600  10.905  0.00  0.00    -0.040 C 
ATOM     29  C   UNL     1      -4.957  -6.464  11.945  0.00  0.00    -0.001 A 
ATOM     30  C   UNL     1      -3.869  -7.210  12.589  0.00  0.00    +0.010 A 
ATOM     31  C   UNL     1      -4.158  -8.018  13.635  0.00  0.00    +0.001 A 
ATOM     32  C   UNL     1      -5.466  -8.160  14.117  0.00  0.00    +0.002 A 
ATOM     33  C   UNL     1      -6.518  -7.508  13.577  0.00  0.00    +0.026 A 
ATOM     34  C   UNL     1      -6.330  -6.631  12.473  0.00  0.00    +0.043 A 
ATOM     35  N   UNL     1      -7.173  -5.899  11.787  0.00  0.00    -0.380 N 
ATOM     36  C   UNL     1      -6.428  -5.179  10.747  0.00  0.00    +0.144 C 
ATOM     37  H   UNL     1      -8.128  -5.840  11.942  0.00  0.00    +0.160 HD
ENDBRANCH  27  28
ENDBRANCH  26  27
ENDBRANCH  24  26
ENDBRANCH  21  22
ENDBRANCH   4  21
TORSDOF 8
