REMARK  Name = ZINC18223064
REMARK  4 active torsions:
REMARK  status: ('A' for Active; 'I' for Inactive)
REMARK    1  A    between atoms: C_8  and  C_12
REMARK    2  A    between atoms: C_12  and  C_13
REMARK    3  A    between atoms: C_12  and  C_19
REMARK    4  A    between atoms: C_20  and  O_30
REMARK                            x       y       z     vdW  Elec       q    Type
REMARK                         _______ _______ _______ _____ _____    ______ ____
ROOT
ATOM      1  C   UNL     1       2.677  -4.256  -0.047  0.00  0.00    +0.115 C 
ENDROOT
BRANCH   1   9
ATOM      2  C   UNL     1       1.841   1.820   1.103  0.00  0.00    +0.001 A 
ATOM      3  C   UNL     1       1.723   2.195  -0.228  0.00  0.00    +0.002 A 
ATOM      4  C   UNL     1       1.812   1.256  -1.232  0.00  0.00    +0.026 A 
ATOM      5  C   UNL     1       2.023  -0.082  -0.914  0.00  0.00    +0.053 A 
ATOM      6  C   UNL     1       2.144  -0.460   0.434  0.00  0.00    +0.045 A 
ATOM      7  C   UNL     1       2.050   0.501   1.440  0.00  0.00    +0.014 A 
ATOM      8  C   UNL     1       2.367  -1.883   0.751  0.00  0.00    +0.197 A 
ATOM      9  C   UNL     1       2.449  -2.792  -0.319  0.00  0.00    +0.077 A 
ATOM     10  C   UNL     1       2.324  -2.350  -1.601  0.00  0.00    +0.257 A 
ATOM     11  N   UNL     1       2.116  -1.041  -1.901  0.00  0.00    -0.322 N 
ATOM     12  O   UNL     1       2.407  -3.244  -2.610  0.00  0.00    -0.267 OA
ATOM     13  O   UNL     1       2.478  -2.260   1.907  0.00  0.00    -0.287 OA
ATOM     14  H   UNL     1       2.033  -0.775  -2.830  0.00  0.00    +0.169 HD
ENDBRANCH   1   9
BRANCH   1  15
ATOM     15  C   UNL     1       2.112  -4.609   1.305  0.00  0.00    +0.072 A 
ATOM     16  C   UNL     1       2.907  -5.207   2.241  0.00  0.00    +0.135 A 
ATOM     17  C   UNL     1       2.321  -5.536   3.547  0.00  0.00    +0.040 A 
ATOM     18  C   UNL     1       3.081  -6.148   4.547  0.00  0.00    +0.013 A 
ATOM     19  C   UNL     1       2.506  -6.441   5.752  0.00  0.00    +0.001 A 
ATOM     20  C   UNL     1       1.173  -6.136   5.990  0.00  0.00    +0.002 A 
ATOM     21  C   UNL     1       0.405  -5.532   5.017  0.00  0.00    +0.026 A 
ATOM     22  C   UNL     1       0.971  -5.225   3.784  0.00  0.00    +0.053 A 
ATOM     23  N   UNL     1       0.227  -4.620   2.792  0.00  0.00    -0.322 N 
ATOM     24  C   UNL     1       0.771  -4.318   1.601  0.00  0.00    +0.257 A 
ATOM     25  O   UNL     1       0.080  -3.779   0.752  0.00  0.00    -0.267 OA
ATOM     26  H   UNL     1      -0.705  -4.407   2.958  0.00  0.00    +0.169 HD
BRANCH  16  27
ATOM     27  O   UNL     1       4.203  -5.490   1.971  0.00  0.00    -0.506 OA
ATOM     28  H   UNL     1       4.674  -5.912   2.702  0.00  0.00    +0.292 HD
ENDBRANCH  16  27
ENDBRANCH   1  15
BRANCH   1  29
ATOM     29  C   UNL     1       1.991  -5.077  -1.108  0.00  0.00    +0.054 A 
ATOM     30  C   UNL     1       0.766  -4.669  -1.602  0.00  0.00    +0.024 A 
ATOM     31  C   UNL     1       0.144  -5.432  -2.578  0.00  0.00    +0.003 A 
ATOM     32  C   UNL     1       0.779  -6.581  -3.023  0.00  0.00    +0.020 A 
ATOM     33  C   UNL     1       2.004  -6.926  -2.483  0.00  0.00    +0.111 A 
ATOM     34  N   UNL     1       2.569  -6.173  -1.559  0.00  0.00    -0.259 NA
ENDBRANCH   1  29
TORSDOF 4
