REMARK  Name = ZINC05409096
REMARK  8 active torsions:
REMARK  status: ('A' for Active; 'I' for Inactive)
REMARK    1  A    between atoms: C_1  and  C_2
REMARK    2  A    between atoms: C_5  and  C_8
REMARK    3  A    between atoms: C_8  and  O_9
REMARK    4  A    between atoms: O_9  and  C_10
REMARK    5  A    between atoms: C_15  and  C_16
REMARK    6  A    between atoms: C_19  and  C_30
REMARK    7  A    between atoms: C_25  and  N_29
REMARK    8  A    between atoms: C_26  and  C_27
REMARK                            x       y       z     vdW  Elec       q    Type
REMARK                         _______ _______ _______ _____ _____    ______ ____
ROOT
ATOM      1  C   UNL     1       4.081  -5.662  -0.051  0.00  0.00    +0.105 C 
ATOM      2  C   UNL     1       4.934  -5.923   1.164  0.00  0.00    +0.049 A 
ATOM      3  C   UNL     1       4.683  -5.619   2.495  0.00  0.00    +0.068 A 
ATOM      4  N   UNL     1       5.705  -6.033   3.207  0.00  0.00    -0.176 NA
ATOM      5  N   UNL     1       6.641  -6.617   2.340  0.00  0.00    -0.246 N 
ATOM      6  H   UNL     1       7.492  -7.007   2.596  0.00  0.00    +0.192 HD
ATOM      7  C   UNL     1       6.152  -6.539   1.092  0.00  0.00    +0.222 A 
ATOM      8  O   UNL     1       6.690  -6.962  -0.079  0.00  0.00    -0.423 OA
ATOM      9  C   UNL     1       6.126  -6.520  -1.221  0.00  0.00    +0.200 C 
ATOM     10  C   UNL     1       4.921  -5.909  -1.279  0.00  0.00    +0.098 C 
ATOM     11  C   UNL     1       3.453  -4.933   3.030  0.00  0.00    +0.068 C 
ENDROOT
BRANCH   1  17
ATOM     12  C   UNL     1       1.608  -6.079  -0.040  0.00  0.00    +0.125 A 
ATOM     13  C   UNL     1       0.520  -6.939  -0.044  0.00  0.00    +0.046 A 
ATOM     14  C   UNL     1       0.721  -8.306  -0.053  0.00  0.00    +0.004 A 
ATOM     15  C   UNL     1       2.006  -8.817  -0.058  0.00  0.00    +0.001 A 
ATOM     16  C   UNL     1       3.092  -7.962  -0.053  0.00  0.00    +0.008 A 
ATOM     17  C   UNL     1       2.896  -6.594  -0.050  0.00  0.00    +0.007 A 
BRANCH  12  18
ATOM     18  O   UNL     1       1.413  -4.734  -0.032  0.00  0.00    -0.487 OA
BRANCH  18  19
ATOM     19  C   UNL     1       0.059  -4.275  -0.021  0.00  0.00    +0.264 C 
BRANCH  19  24
ATOM     20  C   UNL     1      -0.018   1.503   0.010  0.00  0.00    +0.044 C 
ATOM     21  C   UNL     1       0.002  -0.004   0.002  0.00  0.00    -0.050 A 
ATOM     22  C   UNL     1       0.006  -0.689  -1.199  0.00  0.00    +0.004 A 
ATOM     23  C   UNL     1       0.025  -2.071  -1.206  0.00  0.00    +0.007 A 
ATOM     24  C   UNL     1       0.040  -2.768  -0.013  0.00  0.00    -0.010 A 
ATOM     25  C   UNL     1       0.037  -2.084   1.188  0.00  0.00    +0.007 A 
ATOM     26  C   UNL     1       0.023  -0.702   1.195  0.00  0.00    +0.004 A 
ENDBRANCH  19  24
ENDBRANCH  18  19
ENDBRANCH  12  18
ENDBRANCH   1  17
BRANCH   9  27
ATOM     27  N   UNL     1       6.814  -6.703  -2.395  0.00  0.00    -0.328 N 
ATOM     28  H   UNL     1       7.681  -7.139  -2.386  0.00  0.00    +0.145 HD
ATOM     29  H   UNL     1       6.434  -6.397  -3.233  0.00  0.00    +0.145 HD
ENDBRANCH   9  27
BRANCH  10  30
ATOM     30  C   UNL     1       4.425  -5.479  -2.551  0.00  0.00    +0.101 C 
ATOM     31  N   UNL     1       4.031  -5.137  -3.561  0.00  0.00    -0.191 NA
ENDBRANCH  10  30
TORSDOF 6
