REMARK  Name = ZINC05744643
REMARK  11 active torsions:
REMARK  status: ('A' for Active; 'I' for Inactive)
REMARK    1  A    between atoms: C_1  and  C_2
REMARK    2  A    between atoms: C_5  and  N_9
REMARK    3  A    between atoms: C_6  and  C_8
REMARK    4  A    between atoms: N_12  and  C_13
REMARK    5  A    between atoms: C_13  and  C_14
REMARK    6  A    between atoms: C_17  and  N_22
REMARK    7  A    between atoms: C_19  and  C_20
REMARK    8  A    between atoms: C_19  and  C_21
REMARK    9  A    between atoms: N_25  and  C_26
REMARK   10  A    between atoms: C_29  and  C_33
REMARK   11  A    between atoms: C_31  and  C_32
REMARK                            x       y       z     vdW  Elec       q    Type
REMARK                         _______ _______ _______ _____ _____    ______ ____
ROOT
ATOM      1  C   UNL     1       4.665   0.514   0.182  0.00  0.00    +0.015 C 
ATOM      2  C   UNL     1       4.981   0.107   1.631  0.00  0.00    +0.028 C 
ATOM      3  C   UNL     1       6.467   0.168   1.241  0.00  0.00    +0.081 C 
ATOM      4  C   UNL     1       6.057   1.165   0.144  0.00  0.00    -0.012 C 
ATOM      5  C   UNL     1       6.795   0.958  -1.179  0.00  0.00    +0.013 C 
ATOM      6  C   UNL     1       6.064   2.623   0.608  0.00  0.00    +0.013 C 
ENDROOT
BRANCH   3   7
ATOM      7  N   UNL     1       7.322   0.754   2.277  0.00  0.00    -0.296 N 
ATOM      8  C   UNL     1       8.108  -0.041   3.030  0.00  0.00    +0.304 C 
ATOM      9  O   UNL     1       8.108  -1.243   2.849  0.00  0.00    -0.253 OA
ATOM     10  N   UNL     1       8.895   0.498   3.982  0.00  0.00    -0.269 N 
ATOM     11  H   UNL     1       7.322   1.713   2.421  0.00  0.00    +0.151 HD
ATOM     12  H   UNL     1       8.845   1.448   4.173  0.00  0.00    +0.156 HD
BRANCH  10  13
ATOM     13  C   UNL     1       9.783  -0.314   4.697  0.00  0.00    +0.038 A 
ATOM     14  C   UNL     1       9.435  -1.622   5.008  0.00  0.00    +0.024 A 
ATOM     15  C   UNL     1      10.316  -2.421   5.710  0.00  0.00    +0.005 A 
ATOM     16  C   UNL     1      11.539  -1.917   6.112  0.00  0.00    -0.050 A 
ATOM     17  C   UNL     1      11.886  -0.614   5.809  0.00  0.00    +0.008 A 
ATOM     18  C   UNL     1      11.012   0.189   5.103  0.00  0.00    -0.029 A 
ATOM     19  C   UNL     1      11.392   1.610   4.774  0.00  0.00    +0.045 C 
ATOM     20  C   UNL     1      12.495  -2.790   6.884  0.00  0.00    +0.044 C 
ENDBRANCH  10  13
ENDBRANCH   3   7
BRANCH   1  21
ATOM     21  C   UNL     1       3.515   1.517   0.064  0.00  0.00    +0.110 C 
BRANCH  21  25
ATOM     22  N   UNL     1      -0.094   0.821  -0.037  0.00  0.00    -0.269 N 
ATOM     23  C   UNL     1       1.081   1.482  -0.035  0.00  0.00    +0.304 C 
ATOM     24  O   UNL     1       1.096   2.695  -0.120  0.00  0.00    -0.253 OA
ATOM     25  N   UNL     1       2.239   0.799   0.062  0.00  0.00    -0.299 N 
ATOM     26  H   UNL     1      -0.104  -0.148  -0.054  0.00  0.00    +0.156 HD
ATOM     27  H   UNL     1       2.226  -0.169   0.129  0.00  0.00    +0.150 HD
BRANCH  22  32
ATOM     28  C   UNL     1      -4.975   3.712   0.030  0.00  0.00    +0.044 C 
ATOM     29  C   UNL     1      -3.678   2.944   0.013  0.00  0.00    -0.050 A 
ATOM     30  C   UNL     1      -2.526   3.524   0.511  0.00  0.00    +0.005 A 
ATOM     31  C   UNL     1      -1.337   2.821   0.501  0.00  0.00    +0.024 A 
ATOM     32  C   UNL     1      -1.298   1.534  -0.020  0.00  0.00    +0.038 A 
ATOM     33  C   UNL     1      -2.456   0.955  -0.520  0.00  0.00    -0.029 A 
ATOM     34  C   UNL     1      -3.643   1.661  -0.502  0.00  0.00    +0.008 A 
ATOM     35  C   UNL     1      -2.419  -0.443  -1.081  0.00  0.00    +0.045 C 
ENDBRANCH  22  32
ENDBRANCH  21  25
ENDBRANCH   1  21
TORSDOF 5
