REMARK  Name = ZINC44884093
REMARK  6 active torsions:
REMARK  status: ('A' for Active; 'I' for Inactive)
REMARK    1  A    between atoms: C_1  and  C_2
REMARK    2  A    between atoms: C_2  and  N_3
REMARK    3  A    between atoms: N_3  and  C_4
REMARK    4  A    between atoms: C_11  and  C_13
REMARK    5  A    between atoms: C_16  and  N_20
REMARK    6  A    between atoms: C_18  and  N_19
REMARK                            x       y       z     vdW  Elec       q    Type
REMARK                         _______ _______ _______ _____ _____    ______ ____
ROOT
ATOM      1  N   UNL     1      -1.223  -0.468  -0.086  0.00  0.00    -0.268 N 
ATOM      2  C   UNL     1      -1.834  -0.855   1.051  0.00  0.00    +0.253 C 
ATOM      3  O   UNL     1      -2.933  -1.376   1.004  0.00  0.00    -0.270 OA
ENDROOT
BRANCH   1   4
ATOM      4  C   UNL     1      -1.901  -0.548  -1.307  0.00  0.00    +0.039 A 
ATOM      5  C   UNL     1      -1.223  -0.315  -2.497  0.00  0.00    +0.024 A 
ATOM      6  C   UNL     1      -1.894  -0.395  -3.701  0.00  0.00    +0.005 A 
ATOM      7  C   UNL     1      -3.241  -0.707  -3.724  0.00  0.00    +0.038 A 
ATOM      8  C   UNL     1      -3.921  -0.940  -2.541  0.00  0.00    +0.125 A 
ATOM      9  C   UNL     1      -3.252  -0.867  -1.332  0.00  0.00    +0.061 A 
ATOM     10  F   UNL     1      -5.237  -1.244  -2.567  0.00  0.00    -0.205 F 
ENDBRANCH   1   4
BRANCH   2  11
ATOM     11  C   UNL     1      -1.173  -0.649   2.348  0.00  0.00    +0.058 A 
ATOM     12  C   UNL     1       0.025  -1.311   2.639  0.00  0.00    +0.017 A 
ATOM     13  C   UNL     1       0.639  -1.119   3.843  0.00  0.00    +0.023 A 
ATOM     14  C   UNL     1       0.080  -0.263   4.792  0.00  0.00    +0.026 A 
ATOM     15  C   UNL     1      -1.108   0.402   4.520  0.00  0.00    +0.046 A 
ATOM     16  C   UNL     1      -1.738   0.219   3.298  0.00  0.00    +0.039 A 
BRANCH  16  17
ATOM     17  N   UNL     1      -2.924   0.886   3.017  0.00  0.00    -0.357 N 
ATOM     18  H   UNL     1      -3.403   0.698   2.195  0.00  0.00    +0.142 HD
ATOM     19  H   UNL     1      -3.274   1.538   3.644  0.00  0.00    +0.142 HD
ENDBRANCH  16  17
BRANCH  14  20
ATOM     20  N   UNL     1       0.714  -0.076   6.015  0.00  0.00    -0.358 N 
ATOM     21  H   UNL     1       1.544  -0.541   6.207  0.00  0.00    +0.142 HD
ATOM     22  H   UNL     1       0.327   0.519   6.676  0.00  0.00    +0.142 HD
ENDBRANCH  14  20
ENDBRANCH   2  11
BRANCH   1  24
ATOM     23  C   UNL     1       0.132   1.564   0.034  0.00  0.00    +0.025 C 
ATOM     24  C   UNL     1       0.152   0.036  -0.044  0.00  0.00    +0.110 C 
ENDBRANCH   1  24
TORSDOF 5
