REMARK  Name = ZINC12949490
REMARK  6 active torsions:
REMARK  status: ('A' for Active; 'I' for Inactive)
REMARK    1  A    between atoms: C_6  and  C_7
REMARK    2  A    between atoms: C_7  and  N_32
REMARK    3  A    between atoms: C_8  and  C_10
REMARK    4  A    between atoms: C_8  and  P_19
REMARK    5  A    between atoms: C_8  and  N_32
REMARK    6  A    between atoms: C_13  and  N_16
REMARK                            x       y       z     vdW  Elec       q    Type
REMARK                         _______ _______ _______ _____ _____    ______ ____
ROOT
ATOM      1  C   UNL     1       1.236  -4.128  -1.575  0.00  0.00    +0.081 C 
ENDROOT
BRANCH   1   2
ATOM      2  C   UNL     1       0.116  -4.220  -2.579  0.00  0.00    -0.050 A 
ATOM      3  C   UNL     1      -0.893  -3.275  -2.578  0.00  0.00    +0.005 A 
ATOM      4  C   UNL     1      -1.918  -3.357  -3.502  0.00  0.00    +0.033 A 
ATOM      5  C   UNL     1      -1.939  -4.390  -4.420  0.00  0.00    +0.126 A 
ATOM      6  C   UNL     1      -0.933  -5.338  -4.418  0.00  0.00    +0.033 A 
ATOM      7  C   UNL     1       0.094  -5.253  -3.498  0.00  0.00    +0.005 A 
BRANCH   5   8
ATOM      8  N   UNL     1      -3.040  -4.481  -5.406  0.00  0.00    +0.056 N 
ATOM      9  O   UNL     1      -3.059  -5.391  -6.215  0.00  0.00    -0.126 OA
ATOM     10  O   UNL     1      -3.926  -3.646  -5.408  0.00  0.00    -0.126 OA
ENDBRANCH   5   8
ENDBRANCH   1   2
BRANCH   1  11
ATOM     11  P   UNL     1       0.722  -4.923  -0.017  0.00  0.00    +0.378 P 
ATOM     12  O   UNL     1       1.658  -4.540   1.064  0.00  0.00    -0.255 OA
ATOM     13  O   UNL     1      -0.766  -4.442   0.366  0.00  0.00    -0.140 OA
ATOM     14  O   UNL     1       0.739  -6.522  -0.200  0.00  0.00    -0.140 OA
ENDBRANCH   1  11
BRANCH   1  15
ATOM     15  N   UNL     1       1.546  -2.708  -1.322  0.00  0.00    +0.394 N 
ATOM     16  H   UNL     1       1.137  -2.134  -2.069  0.00  0.00    -0.084 HD
ATOM     17  H   UNL     1       1.145  -2.430  -0.418  0.00  0.00    -0.084 HD
BRANCH  15  18
ATOM     18  C   UNL     1       3.005  -2.500  -1.291  0.00  0.00    -0.045 C 
BRANCH  18  24
ATOM     19  C   UNL     1       3.411  -0.453   0.091  0.00  0.00    +0.004 A 
ATOM     20  C   UNL     1       3.674   0.898   0.212  0.00  0.00    +0.038 A 
ATOM     21  C   UNL     1       3.816   1.679  -0.923  0.00  0.00    +0.123 A 
ATOM     22  C   UNL     1       3.695   1.105  -2.177  0.00  0.00    +0.038 A 
ATOM     23  C   UNL     1       3.433  -0.247  -2.295  0.00  0.00    +0.004 A 
ATOM     24  C   UNL     1       3.291  -1.026  -1.161  0.00  0.00    -0.064 A 
ATOM     25  F   UNL     1       4.072   3.000  -0.806  0.00  0.00    -0.205 F 
ENDBRANCH  18  24
ENDBRANCH  15  18
ENDBRANCH   1  15
TORSDOF 6
