REMARK  Name = ZINC06062851
REMARK  5 active torsions:
REMARK  status: ('A' for Active; 'I' for Inactive)
REMARK    1  A    between atoms: C_6  and  C_7
REMARK    2  A    between atoms: C_7  and  C_12
REMARK    3  A    between atoms: C_12  and  O_14
REMARK    4  A    between atoms: O_14  and  C_15
REMARK    5  A    between atoms: C_15  and  C_16
REMARK                            x       y       z     vdW  Elec       q    Type
REMARK                         _______ _______ _______ _____ _____    ______ ____
ROOT
ATOM      1  C   UNL     1      -0.125   2.635  -2.102  0.00  0.00    +0.318 C 
ATOM      2  O   UNL     1       1.028   2.943  -1.915  0.00  0.00    -0.250 OA
ENDROOT
BRANCH   1   3
ATOM      3  C   UNL     1      -0.784   1.609  -1.216  0.00  0.00    +0.093 C 
ATOM      4  C   UNL     1       0.213   1.107  -0.158  0.00  0.00    +0.023 C 
ATOM      5  C   UNL     1      -0.387   1.462   1.219  0.00  0.00    +0.001 C 
ATOM      6  C   UNL     1      -1.346   2.643   0.921  0.00  0.00    +0.001 C 
ATOM      7  C   UNL     1      -1.958   2.251  -0.447  0.00  0.00    +0.023 C 
BRANCH   3  13
ATOM      8  C   UNL     1      -2.054  -0.534  -1.462  0.00  0.00    +0.007 A 
ATOM      9  C   UNL     1      -2.514  -1.592  -2.223  0.00  0.00    +0.038 A 
ATOM     10  C   UNL     1      -2.194  -1.668  -3.567  0.00  0.00    +0.123 A 
ATOM     11  C   UNL     1      -1.417  -0.681  -4.150  0.00  0.00    +0.038 A 
ATOM     12  C   UNL     1      -0.962   0.379  -3.388  0.00  0.00    +0.007 A 
ATOM     13  C   UNL     1      -1.282   0.454  -2.045  0.00  0.00    -0.030 A 
ATOM     14  F   UNL     1      -2.640  -2.704  -4.311  0.00  0.00    -0.205 F 
ENDBRANCH   3  13
ENDBRANCH   1   3
BRANCH   1  15
ATOM     15  O   UNL     1      -0.819   3.207  -3.098  0.00  0.00    -0.455 OA
BRANCH  15  16
ATOM     16  C   UNL     1      -0.120   4.186  -3.911  0.00  0.00    +0.328 C 
BRANCH  16  17
ATOM     17  C   UNL     1      -1.052   4.716  -4.970  0.00  0.00    +0.258 C 
ATOM     18  O   UNL     1      -2.192   4.309  -5.034  0.00  0.00    -0.272 OA
ATOM     19  N   UNL     1      -0.617   5.643  -5.847  0.00  0.00    -0.238 N 
ATOM     20  C   UNL     1      -1.450   6.117  -6.795  0.00  0.00    +0.303 C 
ATOM     21  O   UNL     1      -2.593   5.709  -6.859  0.00  0.00    -0.253 OA
ATOM     22  N   UNL     1      -1.016   7.044  -7.671  0.00  0.00    -0.313 N 
ATOM     23  H   UNL     1       0.295   5.969  -5.796  0.00  0.00    +0.159 HD
ATOM     24  H   UNL     1      -0.104   7.370  -7.620  0.00  0.00    +0.146 HD
ATOM     25  H   UNL     1      -1.615   7.385  -8.353  0.00  0.00    +0.146 HD
ENDBRANCH  16  17
ENDBRANCH  15  16
ENDBRANCH   1  15
TORSDOF 5
