REMARK  Name = ZINC66571271
REMARK  10 active torsions:
REMARK  status: ('A' for Active; 'I' for Inactive)
REMARK    1  A    between atoms: C_1  and  C_2
REMARK    2  A    between atoms: C_4  and  N_20
REMARK    3  A    between atoms: C_6  and  C_7
REMARK    4  A    between atoms: N_9  and  N_10
REMARK    5  A    between atoms: C_11  and  C_13
REMARK    6  A    between atoms: C_13  and  C_14
REMARK    7  A    between atoms: C_21  and  C_23
REMARK    8  A    between atoms: C_23  and  C_24
REMARK    9  A    between atoms: C_23  and  C_25
REMARK   10  A    between atoms: C_23  and  C_26
REMARK                            x       y       z     vdW  Elec       q    Type
REMARK                         _______ _______ _______ _____ _____    ______ ____
ROOT
ATOM      1  C   UNL     1       0.030  -0.278   2.559  0.00  0.00    +0.267 C 
ATOM      2  O   UNL     1       0.017   0.917   2.797  0.00  0.00    -0.268 OA
ATOM      3  N   UNL     1       0.052  -1.167   3.572  0.00  0.00    -0.230 N 
ATOM      4  H   UNL     1       0.063  -2.118   3.382  0.00  0.00    +0.173 HD
ENDROOT
BRANCH   1  10
ATOM      5  C   UNL     1      -0.018   1.503   0.010  0.00  0.00    +0.045 C 
ATOM      6  C   UNL     1       0.002  -0.004   0.002  0.00  0.00    -0.029 A 
ATOM      7  C   UNL     1       0.007  -0.725  -1.164  0.00  0.00    +0.035 A 
ATOM      8  C   UNL     1       0.025  -2.098  -1.090  0.00  0.00    +0.073 A 
ATOM      9  S   UNL     1       0.037  -2.419   0.559  0.00  0.00    -0.069 S 
ATOM     10  C   UNL     1       0.023  -0.747   1.175  0.00  0.00    +0.080 A 
BRANCH   8  11
ATOM     11  N   UNL     1       0.033  -3.010  -2.139  0.00  0.00    -0.280 N 
ATOM     12  C   UNL     1       0.052  -4.333  -1.881  0.00  0.00    +0.223 C 
ATOM     13  O   UNL     1       0.063  -4.727  -0.734  0.00  0.00    -0.275 OA
ATOM     14  H   UNL     1       0.024  -2.695  -3.056  0.00  0.00    +0.155 HD
BRANCH  12  15
ATOM     15  C   UNL     1       0.060  -5.322  -3.018  0.00  0.00    +0.039 C 
ATOM     16  C   UNL     1       0.082  -6.745  -2.456  0.00  0.00    +0.020 C 
ATOM     17  C   UNL     1      -1.196  -5.130  -3.870  0.00  0.00    +0.020 C 
ATOM     18  C   UNL     1       1.302  -5.096  -3.882  0.00  0.00    +0.020 C 
ENDBRANCH  12  15
ENDBRANCH   8  11
ENDBRANCH   1  10
BRANCH   3  19
ATOM     19  N   UNL     1       0.059  -0.717   4.899  0.00  0.00    -0.234 N 
ATOM     20  C   UNL     1       0.080  -1.606   5.911  0.00  0.00    +0.229 C 
ATOM     21  O   UNL     1       0.094  -2.795   5.674  0.00  0.00    -0.274 OA
ATOM     22  H   UNL     1       0.048   0.234   5.088  0.00  0.00    +0.173 HD
BRANCH  20  23
ATOM     23  C   UNL     1       0.088  -1.122   7.338  0.00  0.00    +0.101 C 
BRANCH  23  24
ATOM     24  C   UNL     1       0.113  -2.325   8.284  0.00  0.00    -0.002 C 
ATOM     25  C   UNL     1      -1.185  -3.120   8.133  0.00  0.00    +0.004 C 
ATOM     26  C   UNL     1      -1.160  -4.322   9.079  0.00  0.00    +0.000 C 
ATOM     27  C   UNL     1      -1.027  -3.833  10.522  0.00  0.00    +0.000 C 
ATOM     28  C   UNL     1       0.271  -3.038  10.674  0.00  0.00    +0.000 C 
ATOM     29  C   UNL     1       0.246  -1.835   9.728  0.00  0.00    +0.004 C 
ENDBRANCH  23  24
ENDBRANCH  20  23
ENDBRANCH   3  19
TORSDOF 6
