REMARK  Name = ZINC02656230
REMARK  7 active torsions:
REMARK  status: ('A' for Active; 'I' for Inactive)
REMARK    1  A    between atoms: C_1  and  C_2
REMARK    2  A    between atoms: C_3  and  N_9
REMARK    3  A    between atoms: C_13  and  N_17
REMARK    4  A    between atoms: N_17  and  N_18
REMARK    5  A    between atoms: C_19  and  C_21
REMARK    6  A    between atoms: C_25  and  S_27
REMARK    7  A    between atoms: S_27  and  N_30
REMARK                            x       y       z     vdW  Elec       q    Type
REMARK                         _______ _______ _______ _____ _____    ______ ____
ROOT
ATOM      1  N   UNL     1      -0.888  -0.900  -5.497  0.00  0.00    -0.246 N 
ATOM      2  C   UNL     1      -1.258  -1.723  -6.498  0.00  0.00    +0.258 C 
ATOM      3  O   UNL     1      -1.980  -1.313  -7.386  0.00  0.00    -0.269 OA
ATOM      4  H   UNL     1      -0.312  -1.226  -4.788  0.00  0.00    +0.169 HD
ENDROOT
BRANCH   2   5
ATOM      5  C   UNL     1      -0.784  -3.123  -6.516  0.00  0.00    +0.040 A 
ATOM      6  C   UNL     1       0.040  -3.598  -5.495  0.00  0.00    +0.013 A 
ATOM      7  C   UNL     1       0.478  -4.906  -5.518  0.00  0.00    +0.003 A 
ATOM      8  C   UNL     1       0.102  -5.747  -6.551  0.00  0.00    +0.028 A 
ATOM      9  C   UNL     1      -0.716  -5.282  -7.566  0.00  0.00    +0.106 A 
ATOM     10  C   UNL     1      -1.165  -3.978  -7.552  0.00  0.00    +0.041 A 
BRANCH   9  11
ATOM     11  S   UNL     1      -1.188  -6.361  -8.876  0.00  0.00    +0.061 S 
ATOM     12  O   UNL     1      -1.510  -5.535  -9.987  0.00  0.00    -0.153 OA
ATOM     13  O   UNL     1      -0.197  -7.377  -8.944  0.00  0.00    -0.153 OA
BRANCH  11  14
ATOM     14  N   UNL     1      -2.595  -7.103  -8.416  0.00  0.00    -0.172 NA
ATOM     15  C   UNL     1      -2.574  -8.373  -7.672  0.00  0.00    +0.137 C 
ATOM     16  C   UNL     1      -3.474  -8.226  -6.439  0.00  0.00    +0.177 C 
ATOM     17  O   UNL     1      -4.759  -7.751  -6.849  0.00  0.00    -0.377 OA
ATOM     18  C   UNL     1      -4.739  -6.457  -7.454  0.00  0.00    +0.177 C 
ATOM     19  C   UNL     1      -3.904  -6.510  -8.733  0.00  0.00    +0.137 C 
ENDBRANCH  11  14
ENDBRANCH   9  11
ENDBRANCH   2   5
BRANCH   1  20
ATOM     20  N   UNL     1      -1.326   0.395  -5.480  0.00  0.00    -0.228 NA
ATOM     21  H   UNL     1      -2.333   0.436  -5.512  0.00  0.00    +0.145 HD
BRANCH  20  26
ATOM     22  N   UNL     1      -0.010   0.013  -2.415  0.00  0.00    -0.209 N 
ATOM     23  C   UNL     1       1.107   0.389  -3.050  0.00  0.00    +0.228 C 
ATOM     24  O   UNL     1       2.237   0.173  -2.669  0.00  0.00    -0.275 OA
ATOM     25  C   UNL     1       0.735   1.125  -4.318  0.00  0.00    +0.126 C 
ATOM     26  C   UNL     1      -0.807   1.110  -4.306  0.00  0.00    +0.168 C 
ATOM     27  C   UNL     1      -1.144   0.361  -3.035  0.00  0.00    +0.245 C 
ATOM     28  O   UNL     1      -2.264   0.118  -2.640  0.00  0.00    -0.273 OA
BRANCH  22  31
ATOM     29  C   UNL     1      -0.018   1.503   0.010  0.00  0.00    +0.047 C 
ATOM     30  C   UNL     1       0.002  -0.004   0.002  0.00  0.00    -0.010 A 
ATOM     31  C   UNL     1       0.006  -0.692  -1.204  0.00  0.00    +0.048 A 
ATOM     32  C   UNL     1       0.025  -2.080  -1.207  0.00  0.00    +0.024 A 
ATOM     33  C   UNL     1       0.041  -2.773  -0.012  0.00  0.00    +0.003 A 
ATOM     34  C   UNL     1       0.036  -2.086   1.187  0.00  0.00    +0.020 A 
ATOM     35  C   UNL     1       0.023  -0.702   1.195  0.00  0.00    +0.046 A 
ATOM     36 CL   UNL     1       0.025   0.157   2.703  0.00  0.00    -0.083 Cl
ENDBRANCH  22  31
ENDBRANCH  20  26
ENDBRANCH   1  20
TORSDOF 6
