REMARK  Name = ZINC17352116
REMARK  6 active torsions:
REMARK  status: ('A' for Active; 'I' for Inactive)
REMARK    1  A    between atoms: C_1  and  C_2
REMARK    2  A    between atoms: C_2  and  C_3
REMARK    3  A    between atoms: C_2  and  C_4
REMARK    4  A    between atoms: C_4  and  C_15
REMARK    5  A    between atoms: N_5  and  N_6
REMARK    6  A    between atoms: N_6  and  C_7
REMARK                            x       y       z     vdW  Elec       q    Type
REMARK                         _______ _______ _______ _____ _____    ______ ____
ROOT
ATOM      1  C   UNL     1       0.133  -4.109  -0.121  0.00  0.00    +0.069 C 
ATOM      2  N   UNL     1       0.009  -2.975   0.500  0.00  0.00    -0.186 NA
ENDROOT
BRANCH   1   3
ATOM      3  C   UNL     1       1.434  -4.802  -0.137  0.00  0.00    -0.002 A 
ATOM      4  C   UNL     1       1.845  -5.495  -1.278  0.00  0.00    +0.010 A 
ATOM      5  C   UNL     1       3.066  -6.139  -1.287  0.00  0.00    +0.001 A 
ATOM      6  C   UNL     1       3.877  -6.106  -0.167  0.00  0.00    +0.000 A 
ATOM      7  C   UNL     1       3.474  -5.426   0.968  0.00  0.00    +0.001 A 
ATOM      8  C   UNL     1       2.258  -4.774   0.991  0.00  0.00    +0.010 A 
ENDBRANCH   1   3
BRANCH   1  10
ATOM      9  C   UNL     1      -1.436  -6.029  -0.139  0.00  0.00    +0.014 C 
ATOM     10  C   UNL     1      -1.054  -4.716  -0.824  0.00  0.00    +0.034 C 
ATOM     11  C   UNL     1      -2.235  -3.746  -0.762  0.00  0.00    +0.014 C 
ENDBRANCH   1  10
BRANCH   2  12
ATOM     12  N   UNL     1       1.143  -2.327   1.007  0.00  0.00    -0.234 N 
ATOM     13  H   UNL     1       2.027  -2.680   0.821  0.00  0.00    +0.174 HD
BRANCH  12  14
ATOM     14  C   UNL     1       1.000  -1.177   1.778  0.00  0.00    +0.089 A 
ATOM     15  C   UNL     1      -0.260  -0.650   2.060  0.00  0.00    +0.161 A 
ATOM     16  N   UNL     1      -0.364   0.441   2.792  0.00  0.00    -0.154 NA
ATOM     17  N   UNL     1       0.661   1.050   3.265  0.00  0.00    -0.136 NA
ATOM     18  C   UNL     1       1.896   0.628   3.053  0.00  0.00    +0.172 A 
ATOM     19  C   UNL     1       2.116  -0.511   2.295  0.00  0.00    +0.103 A 
ATOM     20 CL   UNL     1       3.724  -1.093   1.998  0.00  0.00    -0.078 Cl
ATOM     21 CL   UNL     1       3.239   1.499   3.723  0.00  0.00    -0.058 Cl
ENDBRANCH  12  14
ENDBRANCH   2  12
TORSDOF 4
