REMARK  Name = ZINC15634402
REMARK  8 active torsions:
REMARK  status: ('A' for Active; 'I' for Inactive)
REMARK    1  A    between atoms: C_1  and  N_2
REMARK    2  A    between atoms: C_3  and  C_5
REMARK    3  A    between atoms: C_8  and  C_11
REMARK    4  A    between atoms: C_11  and  N_12
REMARK    5  A    between atoms: N_12  and  C_13
REMARK    6  A    between atoms: C_14  and  C_16
REMARK    7  A    between atoms: N_25  and  C_27
REMARK    8  A    between atoms: C_27  and  C_28
REMARK                            x       y       z     vdW  Elec       q    Type
REMARK                         _______ _______ _______ _____ _____    ______ ____
ROOT
ATOM      1  C   UNL     1       2.373   4.878   3.450  0.00  0.00    +0.154 A 
ATOM      2  C   UNL     1       3.650   5.200   4.106  0.00  0.00    +0.020 A 
ATOM      3  C   UNL     1       4.883   4.998   3.496  0.00  0.00    +0.011 A 
ATOM      4  C   UNL     1       6.037   5.325   4.177  0.00  0.00    +0.001 A 
ATOM      5  C   UNL     1       5.980   5.852   5.461  0.00  0.00    +0.001 A 
ATOM      6  C   UNL     1       4.768   6.060   6.084  0.00  0.00    +0.014 A 
ATOM      7  C   UNL     1       3.592   5.737   5.414  0.00  0.00    +0.050 A 
ATOM      8  C   UNL     1       2.260   5.926   6.003  0.00  0.00    +0.275 A 
ATOM      9  O   UNL     1       2.134   6.383   7.124  0.00  0.00    -0.266 OA
ATOM     10  N   UNL     1       1.179   5.581   5.273  0.00  0.00    -0.224 N 
ATOM     11  N   UNL     1       1.250   5.102   4.089  0.00  0.00    -0.163 NA
ENDROOT
BRANCH   1  14
ATOM     12  N   UNL     1       1.185   4.156   1.436  0.00  0.00    -0.295 N 
ATOM     13  C   UNL     1      -0.075   4.482   2.108  0.00  0.00    +0.132 C 
ATOM     14  C   UNL     1       2.356   4.314   2.086  0.00  0.00    +0.267 C 
ATOM     15  O   UNL     1       3.397   3.993   1.547  0.00  0.00    -0.268 OA
BRANCH  12  16
ATOM     16  C   UNL     1       1.173   3.658   0.059  0.00  0.00    +0.142 C 
BRANCH  16  20
ATOM     17  C   UNL     1       0.912  -0.610   0.088  0.00  0.00    +0.037 A 
ATOM     18  C   UNL     1      -0.250   0.163   0.068  0.00  0.00    +0.013 A 
ATOM     19  C   UNL     1      -0.159   1.539   0.059  0.00  0.00    +0.006 A 
ATOM     20  C   UNL     1       1.081   2.154   0.070  0.00  0.00    -0.030 A 
ATOM     21  C   UNL     1       2.237   1.393   0.090  0.00  0.00    +0.006 A 
ATOM     22  C   UNL     1       2.159   0.016   0.099  0.00  0.00    +0.013 A 
BRANCH  17  25
ATOM     23  C   UNL     1       1.856  -4.292   0.129  0.00  0.00    +0.128 C 
ATOM     24  N   UNL     1       1.946  -2.830   0.118  0.00  0.00    -0.314 N 
ATOM     25  C   UNL     1       0.822  -2.086   0.099  0.00  0.00    +0.244 C 
ATOM     26  O   UNL     1      -0.266  -2.629   0.089  0.00  0.00    -0.270 OA
ATOM     27  H   UNL     1       2.814  -2.397   0.126  0.00  0.00    +0.149 HD
ENDBRANCH  17  25
ENDBRANCH  16  20
ENDBRANCH  12  16
ENDBRANCH   1  14
BRANCH  10  28
ATOM     28  C   UNL     1      -0.147   5.772   5.865  0.00  0.00    +0.182 C 
BRANCH  28  29
ATOM     29  C   UNL     1      -0.655   7.150   5.527  0.00  0.00    -0.026 A 
ATOM     30  C   UNL     1      -0.386   8.212   6.370  0.00  0.00    +0.005 A 
ATOM     31  C   UNL     1      -0.848   9.477   6.056  0.00  0.00    +0.000 A 
ATOM     32  C   UNL     1      -1.587   9.678   4.906  0.00  0.00    +0.000 A 
ATOM     33  C   UNL     1      -1.860   8.614   4.065  0.00  0.00    +0.000 A 
ATOM     34  C   UNL     1      -1.394   7.351   4.376  0.00  0.00    +0.005 A 
ENDBRANCH  28  29
ENDBRANCH  10  28
TORSDOF 6
