REMARK  Name = ZINC16938631
REMARK  9 active torsions:
REMARK  status: ('A' for Active; 'I' for Inactive)
REMARK    1  A    between atoms: C_1  and  C_2
REMARK    2  A    between atoms: C_2  and  C_4
REMARK    3  A    between atoms: C_2  and  S_16
REMARK    4  A    between atoms: N_6  and  C_7
REMARK    5  A    between atoms: C_10  and  C_14
REMARK    6  A    between atoms: S_16  and  C_17
REMARK    7  A    between atoms: C_20  and  C_29
REMARK    8  A    between atoms: N_21  and  C_22
REMARK    9  A    between atoms: C_29  and  N_58
REMARK                            x       y       z     vdW  Elec       q    Type
REMARK                         _______ _______ _______ _____ _____    ______ ____
ROOT
ATOM      1  C   UNL     1       3.896   2.112   0.944  0.00  0.00    +0.197 A 
ATOM      2  N   UNL     1       3.869   3.334   0.464  0.00  0.00    -0.122 NA
ATOM      3  N   UNL     1       5.017   3.889   0.617  0.00  0.00    -0.135 NA
ATOM      4  C   UNL     1       5.841   3.064   1.198  0.00  0.00    +0.122 A 
ATOM      5  N   UNL     1       5.156   1.902   1.433  0.00  0.00    -0.276 N 
ENDROOT
BRANCH   5   6
ATOM      6  C   UNL     1       5.645   0.739   2.047  0.00  0.00    +0.050 A 
ATOM      7  C   UNL     1       6.030   0.765   3.380  0.00  0.00    +0.029 A 
ATOM      8  C   UNL     1       6.507  -0.383   3.983  0.00  0.00    +0.040 A 
ATOM      9  C   UNL     1       6.609  -1.556   3.256  0.00  0.00    +0.124 A 
ATOM     10  C   UNL     1       6.230  -1.583   1.924  0.00  0.00    +0.040 A 
ATOM     11  C   UNL     1       5.748  -0.439   1.319  0.00  0.00    +0.029 A 
ATOM     12  F   UNL     1       7.081  -2.677   3.846  0.00  0.00    -0.205 F 
ENDBRANCH   5   6
BRANCH   1  13
ATOM     13  S   UNL     1       2.560   0.963   0.961  0.00  0.00    -0.073 S 
BRANCH  13  15
ATOM     14  C   UNL     1       1.681   2.254  -1.280  0.00  0.00    +0.029 C 
ATOM     15  C   UNL     1       1.277   1.961   0.166  0.00  0.00    +0.137 C 
BRANCH  15  16
ATOM     16  C   UNL     1      -0.027   1.206   0.179  0.00  0.00    +0.230 C 
ATOM     17  O   UNL     1      -0.030   0.002   0.331  0.00  0.00    -0.274 OA
ATOM     18  N   UNL     1      -1.191   1.867   0.018  0.00  0.00    -0.285 N 
ATOM     19  H   UNL     1      -1.196   2.836  -0.026  0.00  0.00    +0.155 HD
BRANCH  18  20
ATOM     20  C   UNL     1      -2.388   1.157  -0.086  0.00  0.00    +0.035 A 
ATOM     21  C   UNL     1      -2.405  -0.089  -0.705  0.00  0.00    +0.024 A 
ATOM     22  C   UNL     1      -3.582  -0.794  -0.805  0.00  0.00    +0.022 A 
ATOM     23  C   UNL     1      -4.765  -0.253  -0.293  0.00  0.00    +0.070 A 
ATOM     24  C   UNL     1      -4.746   1.002   0.324  0.00  0.00    +0.060 A 
ATOM     25  C   UNL     1      -3.561   1.699   0.425  0.00  0.00    +0.044 A 
ATOM     26 CL   UNL     1      -6.212   1.679   0.962  0.00  0.00    -0.082 Cl
BRANCH  23  27
ATOM     27  C   UNL     1      -5.994  -0.982  -0.402  0.00  0.00    +0.101 C 
ATOM     28  N   UNL     1      -6.968  -1.560  -0.487  0.00  0.00    -0.191 NA
ENDBRANCH  23  27
ENDBRANCH  18  20
ENDBRANCH  15  16
ENDBRANCH  13  15
ENDBRANCH   1  13
BRANCH   4  29
ATOM     29  C   UNL     1       7.280   3.340   1.552  0.00  0.00    -0.001 C 
BRANCH  29  35
ATOM     30  C   UNL     1       6.715   5.229   2.955  0.00  0.00    -0.078 C 
ATOM     31  C   UNL     1       6.679   5.725   4.403  0.00  0.00    -0.019 C 
ATOM     32  C   UNL     1       8.109   5.805   4.945  0.00  0.00    -0.004 C 
ATOM     33  C   UNL     1       8.766   4.426   4.837  0.00  0.00    -0.019 C 
ATOM     34  C   UNL     1       8.741   3.969   3.377  0.00  0.00    -0.078 C 
ATOM     35  N   UNL     1       7.337   3.889   2.922  0.00  0.00    +0.384 N 
ATOM     36  H   UNL     1       6.818   3.266   3.553  0.00  0.00    -0.081 HD
ENDBRANCH  29  35
ENDBRANCH   4  29
TORSDOF 8
