REMARK  Name = ZINC33938146
REMARK  3 active torsions:
REMARK  status: ('A' for Active; 'I' for Inactive)
REMARK    1  A    between atoms: C_1  and  C_2
REMARK    2  A    between atoms: C_14  and  C_24
REMARK    3  A    between atoms: C_22  and  O_23
REMARK                            x       y       z     vdW  Elec       q    Type
REMARK                         _______ _______ _______ _____ _____    ______ ____
ROOT
ATOM      1  C   UNL     1      -0.018   1.503   0.010  0.00  0.00    +0.035 C 
ATOM      2  C   UNL     1       0.002  -0.004   0.002  0.00  0.00    -0.032 C 
ATOM      3  C   UNL     1      -1.123  -0.674   0.009  0.00  0.00    -0.083 C 
ATOM      4  C   UNL     1      -1.122  -2.175   0.007  0.00  0.00    -0.047 C 
ATOM      5  N   UNL     1      -2.055  -2.735  -0.990  0.00  0.00    +0.385 N 
ATOM      6  C   UNL     1      -2.374  -4.087  -0.392  0.00  0.00    -0.077 C 
ATOM      7  C   UNL     1      -3.085  -3.639   0.920  0.00  0.00    -0.003 C 
ATOM      8  C   UNL     1      -3.969  -2.467   0.421  0.00  0.00    +0.022 C 
ATOM      9  C   UNL     1      -3.380  -2.071  -0.922  0.00  0.00    -0.051 C 
ATOM     10  C   UNL     1      -3.295  -0.569  -1.111  0.00  0.00    -0.002 C 
ATOM     11  C   UNL     1      -2.448   0.044   0.026  0.00  0.00    +0.046 C 
ATOM     12  C   UNL     1      -3.183  -0.210   1.324  0.00  0.00    +0.017 C 
ATOM     13  C   UNL     1      -3.951  -1.322   1.396  0.00  0.00    +0.024 C 
ATOM     14  N   UNL     1      -5.021  -1.531   2.217  0.00  0.00    -0.314 N 
ATOM     15  C   UNL     1      -5.963  -2.315   1.560  0.00  0.00    +0.077 A 
ATOM     16  C   UNL     1      -5.392  -2.908   0.420  0.00  0.00    -0.013 A 
ATOM     17  C   UNL     1      -6.120  -3.709  -0.431  0.00  0.00    +0.006 A 
ATOM     18  C   UNL     1      -7.452  -3.941  -0.101  0.00  0.00    +0.004 A 
ATOM     19  C   UNL     1      -8.018  -3.395   1.032  0.00  0.00    +0.047 A 
ATOM     20  C   UNL     1      -7.295  -2.575   1.893  0.00  0.00    +0.138 A 
ATOM     21  H   UNL     1      -5.111  -1.186   3.119  0.00  0.00    +0.152 HD
ATOM     22  H   UNL     1      -1.672  -2.767  -1.922  0.00  0.00    -0.081 HD
ENDROOT
BRANCH  20  23
ATOM     23  O   UNL     1      -7.861  -2.049   3.011  0.00  0.00    -0.505 OA
ATOM     24  H   UNL     1      -8.278  -1.188   2.873  0.00  0.00    +0.292 HD
ENDBRANCH  20  23
BRANCH  12  25
ATOM     25  C   UNL     1      -3.077   0.674   2.407  0.00  0.00    +0.256 C 
ATOM     26  O   UNL     1      -2.384   1.668   2.313  0.00  0.00    -0.296 OA
ENDBRANCH  12  25
TORSDOF 2
