REMARK  Name = ZINC09123914
REMARK  3 active torsions:
REMARK  status: ('A' for Active; 'I' for Inactive)
REMARK    1  A    between atoms: C_1  and  C_2
REMARK    2  A    between atoms: C_5  and  N_9
REMARK    3  A    between atoms: C_28  and  C_33
REMARK                            x       y       z     vdW  Elec       q    Type
REMARK                         _______ _______ _______ _____ _____    ______ ____
ROOT
ATOM      1  N   UNL     1      -1.766   2.082   7.154  0.00  0.00    -0.209 N 
ATOM      2  C   UNL     1      -0.739   2.644   7.802  0.00  0.00    +0.228 C 
ATOM      3  O   UNL     1      -0.823   3.279   8.831  0.00  0.00    -0.275 OA
ATOM      4  C   UNL     1       0.543   2.364   7.050  0.00  0.00    +0.074 C 
ATOM      5  C   UNL     1       1.087   3.676   6.457  0.00  0.00    -0.054 C 
ATOM      6  C   UNL     1       0.540   4.867   7.265  0.00  0.00    -0.016 C 
ATOM      7  C   UNL     1      -0.764   5.283   6.556  0.00  0.00    -0.020 C 
ATOM      8  C   UNL     1      -0.921   4.289   5.387  0.00  0.00    -0.076 C 
ATOM      9  C   UNL     1       0.387   2.408   4.612  0.00  0.00    +0.053 C 
ATOM     10  C   UNL     1       0.082   1.525   5.827  0.00  0.00    +0.089 C 
ATOM     11  C   UNL     1      -1.428   1.432   6.035  0.00  0.00    +0.229 C 
ATOM     12  O   UNL     1      -2.199   0.853   5.300  0.00  0.00    -0.275 OA
ATOM     13  C   UNL     1      -0.662   2.255   3.546  0.00  0.00    -0.026 A 
ATOM     14  C   UNL     1      -2.023   2.465   3.521  0.00  0.00    +0.024 A 
ATOM     15  C   UNL     1      -2.738   2.228   2.359  0.00  0.00    +0.042 A 
ATOM     16  C   UNL     1      -2.080   1.788   1.224  0.00  0.00    +0.025 A 
ATOM     17  C   UNL     1      -0.718   1.572   1.248  0.00  0.00    -0.028 A 
ATOM     18  C   UNL     1       0.009   1.807   2.413  0.00  0.00    +0.039 A 
ATOM     19  N   UNL     1       1.373   1.670   2.681  0.00  0.00    -0.286 N 
ATOM     20  C   UNL     1       1.677   2.005   3.950  0.00  0.00    +0.212 C 
ATOM     21  O   UNL     1       2.777   1.985   4.460  0.00  0.00    -0.277 OA
ATOM     22  C   UNL     1      -0.013   1.086   0.008  0.00  0.00    +0.046 C 
ATOM     23 CL   UNL     1      -4.454   2.492   2.324  0.00  0.00    -0.084 Cl
ATOM     24  H   UNL     1       2.025   1.370   2.030  0.00  0.00    +0.155 HD
ATOM     25  N   UNL     1       0.443   3.764   5.167  0.00  0.00    +0.395 N 
ATOM     26  H   UNL     1       0.965   4.385   4.537  0.00  0.00    -0.079 HD
ENDROOT
BRANCH   1  31
ATOM     27  C   UNL     1      -7.123   2.428   9.001  0.00  0.00    +0.044 C 
ATOM     28  C   UNL     1      -5.700   2.336   8.511  0.00  0.00    -0.049 A 
ATOM     29  C   UNL     1      -5.201   3.302   7.656  0.00  0.00    +0.005 A 
ATOM     30  C   UNL     1      -3.898   3.220   7.205  0.00  0.00    +0.025 A 
ATOM     31  C   UNL     1      -3.089   2.168   7.611  0.00  0.00    +0.058 A 
ATOM     32  C   UNL     1      -3.594   1.197   8.466  0.00  0.00    +0.040 A 
ATOM     33  C   UNL     1      -4.898   1.286   8.917  0.00  0.00    +0.020 A 
ATOM     34 BR   UNL     1      -2.499  -0.243   9.016  0.00  0.00    -0.048 Br
ENDBRANCH   1  31
TORSDOF 1
