REMARK  Name = ZINC61857003
REMARK  4 active torsions:
REMARK  status: ('A' for Active; 'I' for Inactive)
REMARK    1  A    between atoms: C_3  and  C_17
REMARK    2  A    between atoms: C_6  and  S_7
REMARK    3  A    between atoms: S_7  and  C_8
REMARK    4  A    between atoms: N_12  and  C_13
REMARK                            x       y       z     vdW  Elec       q    Type
REMARK                         _______ _______ _______ _____ _____    ______ ____
ROOT
ATOM      1  C   UNL     1       0.040   1.105   0.004  0.00  0.00    +0.016 A 
ATOM      2  C   UNL     1       1.155   1.906  -0.103  0.00  0.00    +0.014 A 
ATOM      3  C   UNL     1       2.427   1.358   0.082  0.00  0.00    +0.030 A 
ATOM      4  C   UNL     1       2.564  -0.003   0.375  0.00  0.00    +0.052 A 
ATOM      5  C   UNL     1       1.444  -0.798   0.480  0.00  0.00    +0.035 A 
ATOM      6  C   UNL     1       0.179  -0.249   0.296  0.00  0.00    +0.017 A 
ATOM      7 CL   UNL     1       4.142  -0.688   0.604  0.00  0.00    -0.083 Cl
ENDROOT
BRANCH   3   8
ATOM      8  C   UNL     1       3.624   2.214  -0.033  0.00  0.00    +0.096 C 
ATOM      9  N   UNL     1       4.588   1.899  -0.898  0.00  0.00    -0.387 N 
ATOM     10  N   UNL     1       3.741   3.303   0.728  0.00  0.00    -0.345 N 
ATOM     11  H   UNL     1       4.492   1.122  -1.470  0.00  0.00    +0.157 HD
ATOM     12  H   UNL     1       3.039   3.532   1.357  0.00  0.00    +0.144 HD
ATOM     13  H   UNL     1       4.527   3.865   0.653  0.00  0.00    +0.144 HD
ATOM     14  H   UNL     1       5.387   2.447  -0.955  0.00  0.00    +0.157 HD
ENDBRANCH   3   8
BRANCH   6  15
ATOM     15  S   UNL     1      -1.251  -1.270   0.432  0.00  0.00    -0.048 S 
BRANCH  15  16
ATOM     16  C   UNL     1      -1.464  -1.925  -1.189  0.00  0.00    +0.214 A 
ATOM     17  N   UNL     1      -0.647  -1.769  -2.208  0.00  0.00    -0.101 NA
ATOM     18  N   UNL     1      -1.099  -2.377  -3.245  0.00  0.00    -0.022 NA
ATOM     19  N   UNL     1      -2.218  -2.956  -2.971  0.00  0.00    -0.043 NA
ATOM     20  N   UNL     1      -2.495  -2.689  -1.619  0.00  0.00    -0.217 N 
BRANCH  20  21
ATOM     21  C   UNL     1      -3.654  -3.137  -0.843  0.00  0.00    +0.112 C 
ATOM     22  C   UNL     1      -4.790  -3.824  -1.603  0.00  0.00    +0.029 C 
ATOM     23  C   UNL     1      -3.868  -4.645  -0.700  0.00  0.00    +0.029 C 
ENDBRANCH  20  21
ENDBRANCH  15  16
ENDBRANCH   6  15
TORSDOF 4
