REMARK  Name = ZINC67535073
REMARK  10 active torsions:
REMARK  status: ('A' for Active; 'I' for Inactive)
REMARK    1  A    between atoms: C_1  and  C_2
REMARK    2  A    between atoms: C_4  and  C_29
REMARK    3  A    between atoms: C_10  and  C_13
REMARK    4  A    between atoms: C_13  and  N_14
REMARK    5  A    between atoms: N_17  and  C_18
REMARK    6  A    between atoms: C_18  and  C_20
REMARK    7  A    between atoms: C_18  and  C_21
REMARK    8  A    between atoms: C_22  and  C_28
REMARK    9  A    between atoms: N_24  and  C_27
REMARK   10  A    between atoms: C_25  and  C_26
REMARK                            x       y       z     vdW  Elec       q    Type
REMARK                         _______ _______ _______ _____ _____    ______ ____
ROOT
ATOM      1  N   UNL     1      -1.397  -6.864   4.382  0.00  0.00    -0.295 N 
ATOM      2  C   UNL     1      -1.586  -7.906   5.215  0.00  0.00    +0.300 C 
ATOM      3  O   UNL     1      -0.845  -8.869   5.163  0.00  0.00    -0.253 OA
ATOM      4  N   UNL     1      -2.597  -7.882   6.107  0.00  0.00    -0.293 N 
ATOM      5  H   UNL     1      -1.988  -6.096   4.424  0.00  0.00    +0.151 HD
ATOM      6  H   UNL     1      -3.188  -7.114   6.148  0.00  0.00    +0.151 HD
ENDROOT
BRANCH   4   7
ATOM      7  C   UNL     1      -2.803  -9.014   7.012  0.00  0.00    +0.105 C 
ATOM      8  C   UNL     1      -3.451 -10.169   6.246  0.00  0.00    +0.033 C 
BRANCH   7   9
ATOM      9  C   UNL     1      -3.704  -8.595   8.145  0.00  0.00    +0.016 A 
ATOM     10  C   UNL     1      -4.921  -7.917   8.021  0.00  0.00    +0.065 A 
ATOM     11  N   UNL     1      -5.409  -7.729   9.220  0.00  0.00    -0.176 NA
ATOM     12  N   UNL     1      -4.516  -8.283  10.147  0.00  0.00    -0.271 N 
ATOM     13  C   UNL     1      -3.481  -8.812   9.462  0.00  0.00    +0.041 A 
ATOM     14  C   UNL     1      -2.289  -9.516  10.057  0.00  0.00    +0.065 C 
ATOM     15  C   UNL     1      -4.680  -8.291  11.603  0.00  0.00    +0.172 C 
ATOM     16  C   UNL     1      -5.560  -7.478   6.728  0.00  0.00    +0.068 C 
ENDBRANCH   7   9
ENDBRANCH   4   7
BRANCH   1  17
ATOM     17  C   UNL     1      -0.298  -6.891   3.414  0.00  0.00    +0.142 C 
BRANCH  17  27
ATOM     18  C   UNL     1      -0.169   1.420  -0.225  0.00  0.00    +0.067 C 
ATOM     19  C   UNL     1      -0.322  -0.078  -0.260  0.00  0.00    +0.061 A 
ATOM     20  C   UNL     1      -0.621  -0.844  -1.393  0.00  0.00    +0.048 A 
ATOM     21  C   UNL     1      -0.672  -2.143  -1.017  0.00  0.00    +0.044 A 
ATOM     22  N   UNL     1      -0.413  -2.196   0.316  0.00  0.00    -0.219 N 
ATOM     23  N   UNL     1      -0.193  -0.886   0.761  0.00  0.00    -0.170 NA
ATOM     24  C   UNL     1      -0.370  -3.351   1.101  0.00  0.00    +0.154 A 
ATOM     25  C   UNL     1       0.379  -3.360   2.272  0.00  0.00    +0.048 A 
ATOM     26  C   UNL     1       0.413  -4.510   3.041  0.00  0.00    +0.010 A 
ATOM     27  C   UNL     1      -0.306  -5.616   2.609  0.00  0.00    -0.012 A 
ATOM     28  C   UNL     1      -1.028  -5.537   1.435  0.00  0.00    +0.118 A 
ATOM     29  N   UNL     1      -1.046  -4.425   0.726  0.00  0.00    -0.236 NA
ATOM     30  C   UNL     1      -0.964  -3.318  -1.914  0.00  0.00    +0.066 C 
ENDBRANCH  17  27
ENDBRANCH   1  17
TORSDOF 4
