REMARK  Name = ZINC02260488
REMARK  4 active torsions:
REMARK  status: ('A' for Active; 'I' for Inactive)
REMARK    1  A    between atoms: C_1  and  N_2
REMARK    2  A    between atoms: N_9  and  C_10
REMARK    3  A    between atoms: C_10  and  C_11
REMARK    4  A    between atoms: C_11  and  O_12
REMARK                            x       y       z     vdW  Elec       q    Type
REMARK                         _______ _______ _______ _____ _____    ______ ____
ROOT
ATOM      1  C   UNL     1      -1.928   2.683   3.414  0.00  0.00    +0.155 C 
ATOM      2  N   UNL     1      -0.798   1.762   3.558  0.00  0.00    -0.284 N 
ATOM      3  C   UNL     1      -0.347   1.438   4.789  0.00  0.00    +0.259 A 
ATOM      4  O   UNL     1      -0.871   1.904   5.788  0.00  0.00    -0.267 OA
ATOM      5  C   UNL     1       0.740   0.561   4.895  0.00  0.00    +0.050 A 
ATOM      6  C   UNL     1       1.308   0.057   3.733  0.00  0.00    +0.084 A 
ATOM      7  N   UNL     1       0.813   0.407   2.542  0.00  0.00    -0.215 NA
ATOM      8  C   UNL     1      -0.211   1.231   2.451  0.00  0.00    +0.199 A 
ATOM      9  N   UNL     1      -0.692   1.566   1.213  0.00  0.00    -0.313 N 
ATOM     10  C   UNL     1       2.466  -0.860   3.847  0.00  0.00    +0.004 A 
ATOM     11  C   UNL     1       3.328  -1.062   2.774  0.00  0.00    +0.010 A 
ATOM     12  C   UNL     1       4.397  -1.926   2.910  0.00  0.00    +0.001 A 
ATOM     13  C   UNL     1       4.607  -2.587   4.107  0.00  0.00    +0.000 A 
ATOM     14  C   UNL     1       3.753  -2.388   5.177  0.00  0.00    +0.004 A 
ATOM     15  C   UNL     1       2.683  -1.525   5.055  0.00  0.00    -0.037 A 
ATOM     16  C   UNL     1       1.753  -1.293   6.216  0.00  0.00    +0.047 C 
ATOM     17  C   UNL     1       1.289   0.161   6.234  0.00  0.00    +0.007 C 
ATOM     18  C   UNL     1       2.462   1.078   6.615  0.00  0.00    +0.012 C 
ATOM     19  C   UNL     1       2.055   1.793   7.920  0.00  0.00    +0.001 C 
ATOM     20  C   UNL     1       0.995   0.856   8.552  0.00  0.00    +0.001 C 
ATOM     21  C   UNL     1       0.209   0.347   7.317  0.00  0.00    +0.012 C 
ATOM     22  H   UNL     1      -1.491   2.111   1.134  0.00  0.00    +0.149 HD
ENDROOT
BRANCH   9  23
ATOM     23  C   UNL     1       0.001   1.103   0.008  0.00  0.00    +0.132 C 
BRANCH  23  24
ATOM     24  C   UNL     1      -0.737   1.613  -1.232  0.00  0.00    +0.174 C 
BRANCH  24  25
ATOM     25  O   UNL     1      -0.662   3.039  -1.278  0.00  0.00    -0.393 OA
ATOM     26  H   UNL     1      -1.109   3.432  -2.040  0.00  0.00    +0.209 HD
ENDBRANCH  24  25
ENDBRANCH  23  24
ENDBRANCH   9  23
TORSDOF 3
