REMARK  Name = ZINC44699598
REMARK  8 active torsions:
REMARK  status: ('A' for Active; 'I' for Inactive)
REMARK    1  A    between atoms: C_1  and  C_2
REMARK    2  A    between atoms: C_9  and  O_32
REMARK    3  A    between atoms: C_16  and  O_31
REMARK    4  A    between atoms: C_19  and  C_30
REMARK    5  A    between atoms: C_24  and  C_25
REMARK    6  A    between atoms: C_24  and  O_29
REMARK    7  A    between atoms: C_25  and  C_27
REMARK    8  A    between atoms: C_27  and  O_28
REMARK                            x       y       z     vdW  Elec       q    Type
REMARK                         _______ _______ _______ _____ _____    ______ ____
ROOT
ATOM      1  C   UNL     1      -0.019   1.532   0.011  0.00  0.00    +0.016 C 
ATOM      2  C   UNL     1       0.002  -0.004   0.002  0.00  0.00    -0.002 C 
ATOM      3  C   UNL     1       0.716  -0.418  -1.280  0.00  0.00    +0.019 C 
ATOM      4  C   UNL     1       2.211  -0.108  -1.220  0.00  0.00    +0.080 C 
ATOM      5  C   UNL     1       2.794  -0.834  -0.026  0.00  0.00    +0.156 C 
ATOM      6  O   UNL     1       3.878  -1.387  -0.092  0.00  0.00    -0.293 OA
ATOM      7  C   UNL     1       2.006  -0.848   1.209  0.00  0.00    +0.048 C 
ATOM      8  C   UNL     1       0.733  -0.448   1.228  0.00  0.00    -0.032 C 
ATOM      9  C   UNL     1       0.031  -0.429   2.564  0.00  0.00    +0.141 C 
ATOM     10  C   UNL     1      -1.370  -0.978   2.464  0.00  0.00    +0.040 C 
ATOM     11  C   UNL     1      -2.183  -0.483   1.282  0.00  0.00    +0.002 C 
ATOM     12  C   UNL     1      -1.440  -0.453  -0.033  0.00  0.00    +0.031 C 
ATOM     13  C   UNL     1      -1.699  -1.689  -0.877  0.00  0.00    +0.119 C 
ATOM     14  C   UNL     1      -3.166  -1.690  -1.348  0.00  0.00    +0.041 C 
ATOM     15  C   UNL     1      -4.068  -1.250  -0.224  0.00  0.00    +0.009 C 
ATOM     16  C   UNL     1      -3.374  -1.426   1.141  0.00  0.00    +0.002 C 
ATOM     17  C   UNL     1      -4.518  -1.131   2.129  0.00  0.00    +0.008 C 
ATOM     18  C   UNL     1      -5.778  -1.707   1.435  0.00  0.00    +0.043 C 
ATOM     19  C   UNL     1      -5.359  -2.057  -0.018  0.00  0.00    +0.131 C 
ATOM     20  C   UNL     1      -4.480   0.216  -0.438  0.00  0.00    +0.015 C 
ENDROOT
BRANCH  19  21
ATOM     21  C   UNL     1      -5.127  -3.538  -0.126  0.00  0.00    +0.190 C 
ATOM     22  O   UNL     1      -4.058  -4.005   0.185  0.00  0.00    -0.292 OA
BRANCH  21  23
ATOM     23  C   UNL     1      -6.227  -4.439  -0.624  0.00  0.00    +0.233 C 
BRANCH  23  24
ATOM     24  O   UNL     1      -5.766  -5.791  -0.637  0.00  0.00    -0.387 OA
ATOM     25  H   UNL     1      -6.424  -6.428  -0.947  0.00  0.00    +0.210 HD
ENDBRANCH  23  24
ENDBRANCH  21  23
ENDBRANCH  19  21
BRANCH  19  26
ATOM     26  O   UNL     1      -6.360  -1.634  -0.938  0.00  0.00    -0.380 OA
ATOM     27  H   UNL     1      -7.198  -2.109  -0.854  0.00  0.00    +0.211 HD
ENDBRANCH  19  26
BRANCH  13  28
ATOM     28  O   UNL     1      -1.405  -2.879  -0.147  0.00  0.00    -0.391 OA
ATOM     29  H   UNL     1      -1.556  -3.693  -0.646  0.00  0.00    +0.210 HD
ENDBRANCH  13  28
BRANCH   9  30
ATOM     30  O   UNL     1      -0.018   0.911   3.062  0.00  0.00    -0.387 OA
ATOM     31  H   UNL     1       0.851   1.314   3.193  0.00  0.00    +0.210 HD
ENDBRANCH   9  30
TORSDOF 6
