REMARK  Name = ZINC13498807
REMARK  13 active torsions:
REMARK  status: ('A' for Active; 'I' for Inactive)
REMARK    1  A    between atoms: C_1  and  C_2
REMARK    2  A    between atoms: C_2  and  C_3
REMARK    3  A    between atoms: C_2  and  C_4
REMARK    4  A    between atoms: C_4  and  C_6
REMARK    5  A    between atoms: C_4  and  N_70
REMARK    6  A    between atoms: N_10  and  C_11
REMARK    7  A    between atoms: C_11  and  C_12
REMARK    8  A    between atoms: C_18  and  C_19
REMARK    9  A    between atoms: C_18  and  N_70
REMARK   10  A    between atoms: C_19  and  C_20
REMARK   11  A    between atoms: C_20  and  O_21
REMARK   12  A    between atoms: C_22  and  C_23
REMARK   13  A    between atoms: C_22  and  N_70
REMARK                            x       y       z     vdW  Elec       q    Type
REMARK                         _______ _______ _______ _____ _____    ______ ____
ROOT
ATOM      1  N   UNL     1       0.596   1.575   1.567  0.00  0.00    +0.389 N 
ATOM      2  H   UNL     1       1.443   2.152   1.519  0.00  0.00    -0.080 HD
ENDROOT
BRANCH   1   3
ATOM      3  C   UNL     1       0.129   1.524   2.969  0.00  0.00    +0.006 C 
BRANCH   3   4
ATOM      4  C   UNL     1      -0.325   2.898   3.387  0.00  0.00    +0.138 A 
ATOM      5  N   UNL     1       0.356   4.013   3.282  0.00  0.00    -0.115 NA
ATOM      6  N   UNL     1      -0.372   4.970   3.746  0.00  0.00    -0.023 NA
ATOM      7  N   UNL     1      -1.500   4.494   4.145  0.00  0.00    -0.044 NA
ATOM      8  N   UNL     1      -1.512   3.221   3.935  0.00  0.00    -0.228 N 
BRANCH   8   9
ATOM      9  C   UNL     1      -2.609   2.299   4.239  0.00  0.00    +0.178 C 
BRANCH   9  10
ATOM     10  C   UNL     1      -2.520   1.866   5.704  0.00  0.00    +0.140 C 
ATOM     11  C   UNL     1      -3.618   0.826   6.010  0.00  0.00    +0.035 C 
ATOM     12  C   UNL     1      -4.078   1.241   7.435  0.00  0.00    +0.031 C 
ATOM     13  C   UNL     1      -3.915   2.780   7.359  0.00  0.00    +0.160 C 
ATOM     14  O   UNL     1      -2.742   2.994   6.559  0.00  0.00    -0.375 OA
ENDBRANCH   9  10
ENDBRANCH   8   9
ENDBRANCH   3   4
BRANCH   3  16
ATOM     15  C   UNL     1       2.463   2.043   3.691  0.00  0.00    +0.006 C 
ATOM     16  C   UNL     1       1.289   1.077   3.860  0.00  0.00    -0.024 C 
ATOM     17  C   UNL     1       0.838   1.073   5.322  0.00  0.00    +0.006 C 
ENDBRANCH   3  16
ENDBRANCH   1   3
BRANCH   1  18
ATOM     18  C   UNL     1      -0.446   2.179   0.710  0.00  0.00    -0.075 C 
BRANCH  18  19
ATOM     19  C   UNL     1       0.144   2.430  -0.679  0.00  0.00    +0.009 C 
BRANCH  19  20
ATOM     20  C   UNL     1      -0.940   2.998  -1.598  0.00  0.00    +0.154 C 
BRANCH  20  21
ATOM     21  O   UNL     1      -0.389   3.233  -2.896  0.00  0.00    -0.395 OA
ATOM     22  H   UNL     1      -1.022   3.594  -3.532  0.00  0.00    +0.209 HD
ENDBRANCH  20  21
ENDBRANCH  19  20
ENDBRANCH  18  19
ENDBRANCH   1  18
BRANCH   1  23
ATOM     23  C   UNL     1       0.915   0.212   1.091  0.00  0.00    -0.037 C 
BRANCH  23  24
ATOM     24  C   UNL     1      -0.342  -0.609   0.961  0.00  0.00    +0.001 A 
ATOM     25  C   UNL     1      -0.984  -0.677  -0.233  0.00  0.00    +0.017 A 
ATOM     26  C   UNL     1      -2.198  -1.487  -0.329  0.00  0.00    +0.002 A 
ATOM     27  C   UNL     1      -2.900  -1.598  -1.536  0.00  0.00    +0.059 A 
ATOM     28  C   UNL     1      -4.044  -2.365  -1.595  0.00  0.00    +0.163 A 
ATOM     29  C   UNL     1      -4.504  -3.032  -0.455  0.00  0.00    +0.164 A 
ATOM     30  C   UNL     1      -3.817  -2.928   0.742  0.00  0.00    +0.075 A 
ATOM     31  C   UNL     1      -2.663  -2.158   0.819  0.00  0.00    +0.053 A 
ATOM     32  N   UNL     1      -1.966  -2.043   2.004  0.00  0.00    -0.322 N 
ATOM     33  H   UNL     1      -2.288  -2.504   2.795  0.00  0.00    +0.169 HD
ATOM     34  C   UNL     1      -0.849  -1.299   2.080  0.00  0.00    +0.251 A 
ATOM     35  O   UNL     1      -0.259  -1.220   3.144  0.00  0.00    -0.268 OA
ATOM     36  O   UNL     1      -5.630  -3.794  -0.506  0.00  0.00    -0.485 OA
ATOM     37  C   UNL     1      -6.503  -3.579  -1.619  0.00  0.00    +0.270 C 
ATOM     38  C   UNL     1      -5.654  -3.536  -2.897  0.00  0.00    +0.270 C 
ATOM     39  O   UNL     1      -4.717  -2.460  -2.775  0.00  0.00    -0.485 OA
ENDBRANCH  23  24
ENDBRANCH   1  23
TORSDOF 11
