REMARK  Name = ZINC61951193
REMARK  5 active torsions:
REMARK  status: ('A' for Active; 'I' for Inactive)
REMARK    1  A    between atoms: C_1  and  N_2
REMARK    2  A    between atoms: N_2  and  C_3
REMARK    3  A    between atoms: N_2  and  C_12
REMARK    4  A    between atoms: C_3  and  C_4
REMARK    5  A    between atoms: C_16  and  C_18
REMARK                            x       y       z     vdW  Elec       q    Type
REMARK                         _______ _______ _______ _____ _____    ______ ____
ROOT
ATOM      1  C   UNL     1       0.272  -0.458  -1.164  0.00  0.00    +0.030 A 
ATOM      2  C   UNL     1       0.301  -1.842  -1.289  0.00  0.00    +0.023 A 
ATOM      3  C   UNL     1       0.493  -2.425  -2.527  0.00  0.00    +0.002 A 
ATOM      4  C   UNL     1       0.657  -1.636  -3.648  0.00  0.00    +0.011 A 
ATOM      5  C   UNL     1       0.628  -0.246  -3.534  0.00  0.00    +0.014 A 
ATOM      6  C   UNL     1       0.430   0.343  -2.286  0.00  0.00    +0.034 A 
ENDROOT
BRANCH   5   7
ATOM      7  C   UNL     1       0.804   0.601  -4.734  0.00  0.00    +0.094 C 
ATOM      8  N   UNL     1       1.545   0.168  -5.752  0.00  0.00    -0.387 N 
ATOM      9  N   UNL     1       0.221   1.797  -4.797  0.00  0.00    -0.345 N 
ATOM     10  H   UNL     1       1.970  -0.703  -5.707  0.00  0.00    +0.157 HD
ATOM     11  H   UNL     1      -0.319   2.112  -4.055  0.00  0.00    +0.144 HD
ATOM     12  H   UNL     1       0.336   2.352  -5.584  0.00  0.00    +0.144 HD
ATOM     13  H   UNL     1       1.660   0.724  -6.539  0.00  0.00    +0.157 HD
ENDBRANCH   5   7
BRANCH   1  15
ATOM     14  C   UNL     1      -0.080   1.579   0.204  0.00  0.00    +0.129 C 
ATOM     15  N   UNL     1       0.077   0.127   0.089  0.00  0.00    -0.329 N 
BRANCH  15  16
ATOM     16  C   UNL     1       0.031  -0.712   1.290  0.00  0.00    +0.142 C 
BRANCH  16  17
ATOM     17  C   UNL     1       1.433  -0.959   1.784  0.00  0.00    +0.006 A 
ATOM     18  C   UNL     1       2.059  -2.162   1.516  0.00  0.00    +0.023 A 
ATOM     19  C   UNL     1       3.345  -2.389   1.969  0.00  0.00    +0.018 A 
ATOM     20  C   UNL     1       4.007  -1.412   2.692  0.00  0.00    +0.018 A 
ATOM     21  C   UNL     1       3.383  -0.209   2.962  0.00  0.00    +0.040 A 
ATOM     22  C   UNL     1       2.097   0.021   2.503  0.00  0.00    +0.128 A 
ATOM     23  F   UNL     1       1.488   1.199   2.761  0.00  0.00    -0.205 F 
ATOM     24 BR   UNL     1       4.200  -4.035   1.602  0.00  0.00    -0.050 Br
ENDBRANCH  16  17
ENDBRANCH  15  16
ENDBRANCH   1  15
TORSDOF 4
