REMARK  Name = ZINC48236604
REMARK  4 active torsions:
REMARK  status: ('A' for Active; 'I' for Inactive)
REMARK    1  A    between atoms: C_1  and  C_2
REMARK    2  A    between atoms: C_2  and  N_3
REMARK    3  A    between atoms: N_12  and  C_13
REMARK    4  A    between atoms: C_13  and  C_15
REMARK                            x       y       z     vdW  Elec       q    Type
REMARK                         _______ _______ _______ _____ _____    ______ ____
ROOT
ATOM      1  N   UNL     1      -1.367  -0.525   0.012  0.00  0.00    -0.312 N 
ATOM      2  C   UNL     1      -2.121  -0.810   1.145  0.00  0.00    +0.068 A 
ATOM      3  C   UNL     1      -1.856  -0.727   2.505  0.00  0.00    +0.028 A 
ATOM      4  C   UNL     1      -2.826  -1.089   3.418  0.00  0.00    +0.002 A 
ATOM      5  C   UNL     1      -4.063  -1.535   2.983  0.00  0.00    +0.002 A 
ATOM      6  C   UNL     1      -4.337  -1.621   1.633  0.00  0.00    +0.028 A 
ATOM      7  C   UNL     1      -3.368  -1.259   0.707  0.00  0.00    +0.066 A 
ATOM      8  N   UNL     1      -3.345  -1.238  -0.684  0.00  0.00    -0.326 N 
ATOM      9  C   UNL     1      -2.128  -0.785  -1.083  0.00  0.00    +0.201 A 
ATOM     10  N   UNL     1      -1.741  -0.625  -2.346  0.00  0.00    -0.146 NA
ATOM     11  H   UNL     1      -4.074  -1.498  -1.268  0.00  0.00    +0.169 HD
ENDROOT
BRANCH   1  13
ATOM     12  C   UNL     1      -0.003   1.506   0.017  0.00  0.00    +0.027 C 
ATOM     13  C   UNL     1       0.010  -0.024   0.001  0.00  0.00    +0.122 C 
ENDBRANCH   1  13
BRANCH  10  14
ATOM     14  C   UNL     1      -2.535  -1.016  -3.339  0.00  0.00    +0.244 C 
ATOM     15  O   UNL     1      -3.652  -1.430  -3.097  0.00  0.00    -0.273 OA
BRANCH  14  16
ATOM     16  C   UNL     1      -2.050  -0.944  -4.764  0.00  0.00    +0.095 C 
ATOM     17  C   UNL     1      -3.145  -1.457  -5.706  0.00  0.00    +0.023 C 
ATOM     18  C   UNL     1      -2.700  -1.204  -7.149  0.00  0.00    +0.096 C 
ATOM     19  C   UNL     1      -1.294  -1.697  -7.343  0.00  0.00    +0.213 C 
ATOM     20  O   UNL     1      -0.901  -1.875  -8.476  0.00  0.00    -0.276 OA
ATOM     21  N   UNL     1      -0.457  -1.950  -6.337  0.00  0.00    -0.315 N 
ATOM     22  C   UNL     1      -0.808  -1.822  -4.927  0.00  0.00    +0.117 C 
ATOM     23  H   UNL     1       0.444  -2.234  -6.556  0.00  0.00    +0.149 HD
ENDBRANCH  14  16
ENDBRANCH  10  14
TORSDOF 3
