REMARK  Name = ZINC49601720
REMARK  13 active torsions:
REMARK  status: ('A' for Active; 'I' for Inactive)
REMARK    1  A    between atoms: C_3  and  O_38
REMARK    2  A    between atoms: C_4  and  O_37
REMARK    3  A    between atoms: C_6  and  C_7
REMARK    4  A    between atoms: C_8  and  C_9
REMARK    5  A    between atoms: C_9  and  O_11
REMARK    6  A    between atoms: O_11  and  C_12
REMARK    7  A    between atoms: C_14  and  O_36
REMARK    8  A    between atoms: C_16  and  O_35
REMARK    9  A    between atoms: C_18  and  C_33
REMARK   10  A    between atoms: C_21  and  O_23
REMARK   11  A    between atoms: O_23  and  C_24
REMARK   12  A    between atoms: C_30  and  O_32
REMARK   13  A    between atoms: C_33  and  O_34
REMARK                            x       y       z     vdW  Elec       q    Type
REMARK                         _______ _______ _______ _____ _____    ______ ____
ROOT
ATOM      1  C   UNL     1      -6.021  -0.968   0.057  0.00  0.00    +0.263 C 
ATOM      2  C   UNL     1      -7.151  -0.210  -0.647  0.00  0.00    +0.191 C 
ATOM      3  C   UNL     1      -8.436  -1.040  -0.565  0.00  0.00    +0.178 C 
ATOM      4  C   UNL     1      -8.756  -1.326   0.905  0.00  0.00    +0.178 C 
ATOM      5  O   UNL     1      -7.652  -2.005   1.508  0.00  0.00    -0.340 OA
ATOM      6  C   UNL     1      -6.433  -1.258   1.502  0.00  0.00    +0.295 C 
ENDROOT
BRANCH   3   7
ATOM      7  O   UNL     1      -9.514  -0.311  -1.156  0.00  0.00    -0.386 OA
ATOM      8  H   UNL     1     -10.361  -0.777  -1.138  0.00  0.00    +0.210 HD
ENDBRANCH   3   7
BRANCH   2   9
ATOM      9  O   UNL     1      -6.804   0.001  -2.017  0.00  0.00    -0.385 OA
ATOM     10  H   UNL     1      -7.476   0.477  -2.524  0.00  0.00    +0.210 HD
ENDBRANCH   2   9
BRANCH   1  11
ATOM     11  O   UNL     1      -4.835  -0.172   0.049  0.00  0.00    -0.450 OA
BRANCH  11  12
ATOM     12  C   UNL     1      -3.656  -0.828   0.034  0.00  0.00    +0.332 C 
ATOM     13  O   UNL     1      -3.638  -2.045   0.027  0.00  0.00    -0.246 OA
BRANCH  12  15
ATOM     14  C   UNL     1      -1.259  -0.758   0.011  0.00  0.00    +0.015 C 
ATOM     15  C   UNL     1      -2.439  -0.101   0.026  0.00  0.00    +0.092 C 
BRANCH  14  21
ATOM     16  C   UNL     1      -0.017   1.395   0.010  0.00  0.00    +0.012 A 
ATOM     17  C   UNL     1       1.167   2.100   0.002  0.00  0.00    +0.050 A 
ATOM     18  C   UNL     1       2.380   1.425  -0.013  0.00  0.00    +0.158 A 
ATOM     19  C   UNL     1       2.408   0.031  -0.021  0.00  0.00    +0.159 A 
ATOM     20  C   UNL     1       1.226  -0.683  -0.014  0.00  0.00    +0.057 A 
ATOM     21  C   UNL     1       0.002  -0.004   0.002  0.00  0.00    -0.021 A 
BRANCH  19  22
ATOM     22  O   UNL     1       3.599  -0.626  -0.037  0.00  0.00    -0.503 OA
ATOM     23  H   UNL     1       3.952  -0.821   0.842  0.00  0.00    +0.292 HD
ENDBRANCH  19  22
BRANCH  18  24
ATOM     24  O   UNL     1       3.544   2.125  -0.020  0.00  0.00    -0.503 OA
ATOM     25  H   UNL     1       3.890   2.323   0.861  0.00  0.00    +0.292 HD
ENDBRANCH  18  24
ENDBRANCH  14  21
ENDBRANCH  12  15
ENDBRANCH  11  12
ENDBRANCH   1  11
BRANCH   6  26
ATOM     26  O   UNL     1      -5.407  -2.015   2.148  0.00  0.00    -0.342 OA
BRANCH  26  27
ATOM     27  C   UNL     1      -5.641  -2.244   3.538  0.00  0.00    +0.150 C 
ATOM     28  C   UNL     1      -6.424  -3.547   3.716  0.00  0.00    +0.034 C 
ATOM     29  C   UNL     1      -6.675  -3.792   5.205  0.00  0.00    +0.003 C 
ATOM     30  C   UNL     1      -5.336  -3.898   5.937  0.00  0.00    +0.003 C 
ATOM     31  C   UNL     1      -4.553  -2.596   5.760  0.00  0.00    +0.034 C 
ATOM     32  C   UNL     1      -4.302  -2.350   4.271  0.00  0.00    +0.143 C 
BRANCH  32  33
ATOM     33  O   UNL     1      -3.571  -1.134   4.105  0.00  0.00    -0.389 OA
ATOM     34  H   UNL     1      -2.709  -1.130   4.544  0.00  0.00    +0.210 HD
ENDBRANCH  32  33
ENDBRANCH  26  27
ENDBRANCH   6  26
BRANCH   4  35
ATOM     35  C   UNL     1     -10.005  -2.204   0.994  0.00  0.00    +0.190 C 
BRANCH  35  36
ATOM     36  O   UNL     1     -10.371  -2.375   2.364  0.00  0.00    -0.392 OA
ATOM     37  H   UNL     1     -11.157  -2.923   2.496  0.00  0.00    +0.210 HD
ENDBRANCH  35  36
ENDBRANCH   4  35
TORSDOF 13
