REMARK  Name = ZINC35478355
REMARK  9 active torsions:
REMARK  status: ('A' for Active; 'I' for Inactive)
REMARK    1  A    between atoms: C_1  and  C_2
REMARK    2  A    between atoms: C_2  and  O_3
REMARK    3  A    between atoms: O_3  and  C_4
REMARK    4  A    between atoms: C_4  and  C_6
REMARK    5  A    between atoms: C_8  and  S_12
REMARK    6  A    between atoms: N_10  and  C_11
REMARK    7  A    between atoms: S_12  and  N_15
REMARK    8  A    between atoms: C_19  and  C_21
REMARK    9  A    between atoms: N_23  and  C_24
REMARK                            x       y       z     vdW  Elec       q    Type
REMARK                         _______ _______ _______ _____ _____    ______ ____
ROOT
ATOM      1  N   UNL     1       4.420  -5.643   4.167  0.00  0.00    -0.165 NA
ATOM      2  C   UNL     1       4.705  -6.478   2.986  0.00  0.00    +0.110 C 
ATOM      3  C   UNL     1       6.107  -6.024   2.509  0.00  0.00    +0.019 C 
ATOM      4  C   UNL     1       6.825  -5.758   3.859  0.00  0.00    +0.031 C 
ATOM      5  C   UNL     1       5.695  -5.188   4.742  0.00  0.00    +0.166 C 
ENDROOT
BRANCH   5   6
ATOM      6  C   UNL     1       5.749  -3.682   4.739  0.00  0.00    +0.236 C 
ATOM      7  O   UNL     1       4.817  -3.042   4.301  0.00  0.00    -0.274 OA
ATOM      8  N   UNL     1       6.835  -3.046   5.224  0.00  0.00    -0.282 N 
ATOM      9  H   UNL     1       7.545  -3.554   5.647  0.00  0.00    +0.155 HD
BRANCH   8  10
ATOM     10  C   UNL     1       6.937  -1.654   5.117  0.00  0.00    +0.072 A 
ATOM     11  C   UNL     1       6.249  -0.981   4.116  0.00  0.00    +0.064 A 
ATOM     12  C   UNL     1       6.351   0.394   4.013  0.00  0.00    +0.125 A 
ATOM     13  C   UNL     1       7.139   1.100   4.907  0.00  0.00    +0.041 A 
ATOM     14  C   UNL     1       7.826   0.433   5.904  0.00  0.00    +0.043 A 
ATOM     15  C   UNL     1       7.723  -0.942   6.016  0.00  0.00    +0.145 A 
ATOM     16  F   UNL     1       8.389  -1.593   6.994  0.00  0.00    -0.204 F 
ATOM     17  F   UNL     1       5.682   1.050   3.039  0.00  0.00    -0.205 F 
ENDBRANCH   8  10
ENDBRANCH   5   6
BRANCH   1  18
ATOM     18  S   UNL     1       2.913  -5.273   4.746  0.00  0.00    +0.063 S 
ATOM     19  O   UNL     1       3.074  -4.955   6.122  0.00  0.00    -0.153 OA
ATOM     20  O   UNL     1       2.042  -6.302   4.299  0.00  0.00    -0.153 OA
BRANCH  18  23
ATOM     21  C   UNL     1       1.490  -2.370   2.480  0.00  0.00    +0.129 A 
ATOM     22  C   UNL     1       1.686  -3.711   2.743  0.00  0.00    +0.063 A 
ATOM     23  C   UNL     1       2.396  -3.791   3.944  0.00  0.00    +0.124 A 
ATOM     24  C   UNL     1       2.616  -2.528   4.382  0.00  0.00    +0.114 A 
ATOM     25  N   UNL     1       2.078  -1.658   3.502  0.00  0.00    -0.343 N 
ATOM     26  C   UNL     1       2.110  -0.198   3.617  0.00  0.00    +0.149 C 
BRANCH  21  27
ATOM     27  C   UNL     1       0.791  -1.807   1.322  0.00  0.00    +0.356 C 
ATOM     28  O   UNL     1       0.312  -2.546   0.483  0.00  0.00    -0.243 OA
BRANCH  27  29
ATOM     29  O   UNL     1       0.678  -0.470   1.188  0.00  0.00    -0.460 OA
BRANCH  29  31
ATOM     30  C   UNL     1      -0.043   1.539   0.054  0.00  0.00    +0.048 C 
ATOM     31  C   UNL     1      -0.016   0.010   0.034  0.00  0.00    +0.229 C 
ENDBRANCH  29  31
ENDBRANCH  27  29
ENDBRANCH  21  27
ENDBRANCH  18  23
ENDBRANCH   1  18
TORSDOF 7
