REMARK  Name = ZINC51145425
REMARK  8 active torsions:
REMARK  status: ('A' for Active; 'I' for Inactive)
REMARK    1  A    between atoms: C_1  and  C_2
REMARK    2  A    between atoms: C_7  and  N_8
REMARK    3  A    between atoms: N_8  and  C_9
REMARK    4  A    between atoms: N_8  and  C_10
REMARK    5  A    between atoms: C_10  and  C_11
REMARK    6  A    between atoms: C_14  and  N_20
REMARK    7  A    between atoms: C_15  and  N_17
REMARK    8  A    between atoms: N_20  and  N_21
REMARK                            x       y       z     vdW  Elec       q    Type
REMARK                         _______ _______ _______ _____ _____    ______ ____
ROOT
ATOM      1  C   UNL     1      -1.913  -0.720   4.000  0.00  0.00    -0.028 A 
ATOM      2  C   UNL     1      -2.471  -1.893   3.525  0.00  0.00    +0.007 A 
ATOM      3  C   UNL     1      -2.589  -2.989   4.357  0.00  0.00    +0.027 A 
ATOM      4  C   UNL     1      -2.147  -2.912   5.672  0.00  0.00    +0.071 A 
ATOM      5  C   UNL     1      -1.587  -1.732   6.145  0.00  0.00    +0.148 A 
ATOM      6  C   UNL     1      -1.467  -0.641   5.306  0.00  0.00    +0.039 A 
ENDROOT
BRANCH   5   7
ATOM      7  N   UNL     1      -1.116  -1.645   7.545  0.00  0.00    +0.058 N 
ATOM      8  O   UNL     1      -1.730  -2.200   8.426  0.00  0.00    -0.126 OA
ATOM      9  O   UNL     1      -0.116  -1.018   7.809  0.00  0.00    -0.126 OA
ENDBRANCH   5   7
BRANCH   4  10
ATOM     10  N   UNL     1      -2.266  -4.018   6.517  0.00  0.00    -0.281 N 
ATOM     11  H   UNL     1      -1.886  -3.990   7.409  0.00  0.00    +0.166 HD
BRANCH  10  12
ATOM     12  N   UNL     1      -2.917  -5.139   6.086  0.00  0.00    -0.256 NA
ATOM     13  H   UNL     1      -2.509  -5.488   5.232  0.00  0.00    +0.140 HD
ATOM     14  H   UNL     1      -2.922  -5.851   6.801  0.00  0.00    +0.140 HD
ENDBRANCH  10  12
ENDBRANCH   4  10
BRANCH   1  15
ATOM     15  C   UNL     1      -1.785   0.473   3.088  0.00  0.00    +0.140 C 
BRANCH  15  16
ATOM     16  N   UNL     1      -0.496   0.422   2.394  0.00  0.00    -0.328 N 
ATOM     17  C   UNL     1       0.682   1.058   2.989  0.00  0.00    +0.129 C 
BRANCH  16  24
ATOM     18  C   UNL     1      -0.949   1.931   0.025  0.00  0.00    +0.045 C 
ATOM     19  C   UNL     1      -0.604   0.464  -0.017  0.00  0.00    -0.029 A 
ATOM     20  C   UNL     1      -0.493  -0.186  -1.230  0.00  0.00    +0.005 A 
ATOM     21  C   UNL     1      -0.176  -1.531  -1.269  0.00  0.00    +0.000 A 
ATOM     22  C   UNL     1       0.031  -2.231  -0.094  0.00  0.00    +0.002 A 
ATOM     23  C   UNL     1      -0.078  -1.587   1.122  0.00  0.00    +0.023 A 
ATOM     24  C   UNL     1      -0.390  -0.234   1.165  0.00  0.00    +0.033 A 
ENDBRANCH  16  24
ENDBRANCH  15  16
ENDBRANCH   1  15
TORSDOF 6
