REMARK  Name = ZINC39637522
REMARK  5 active torsions:
REMARK  status: ('A' for Active; 'I' for Inactive)
REMARK    1  A    between atoms: C_1  and  C_2
REMARK    2  A    between atoms: C_7  and  N_12
REMARK    3  A    between atoms: C_9  and  C_11
REMARK    4  A    between atoms: C_13  and  C_15
REMARK    5  A    between atoms: C_26  and  C_28
REMARK                            x       y       z     vdW  Elec       q    Type
REMARK                         _______ _______ _______ _____ _____    ______ ____
ROOT
ATOM      1  C   UNL     1      -2.657  -4.671   1.272  0.00  0.00    +0.100 C 
ATOM      2  C   UNL     1      -3.314  -3.717   2.294  0.00  0.00    +0.121 C 
ATOM      3  N   UNL     1      -4.128  -4.600   3.162  0.00  0.00    -0.295 N 
ATOM      4  C   UNL     1      -3.291  -5.810   3.345  0.00  0.00    +0.115 C 
ATOM      5  C   UNL     1      -2.643  -6.044   1.966  0.00  0.00    -0.004 C 
ATOM      6  C   UNL     1      -1.209  -6.536   2.134  0.00  0.00    -0.010 C 
ATOM      7  C   UNL     1      -1.223  -7.928   2.773  0.00  0.00    -0.082 C 
ATOM      8  N   UNL     1      -1.982  -8.851   1.921  0.00  0.00    +0.379 N 
ATOM      9  C   UNL     1      -3.383  -8.421   1.840  0.00  0.00    -0.082 C 
ATOM     10  C   UNL     1      -3.460  -7.051   1.162  0.00  0.00    -0.010 C 
ATOM     11  C   UNL     1      -5.353  -4.359   3.670  0.00  0.00    +0.265 C 
ATOM     12  O   UNL     1      -5.868  -5.162   4.422  0.00  0.00    -0.268 OA
ATOM     13  H   UNL     1      -1.581  -8.860   0.995  0.00  0.00    -0.086 HD
ATOM     14  H   UNL     1      -1.939  -9.780   2.312  0.00  0.00    -0.086 HD
ENDROOT
BRANCH  11  15
ATOM     15  C   UNL     1      -6.071  -3.112   3.311  0.00  0.00    +0.126 A 
ATOM     16  C   UNL     1      -7.393  -2.934   3.746  0.00  0.00    +0.033 A 
ATOM     17  C   UNL     1      -8.066  -1.791   3.423  0.00  0.00    +0.012 A 
ATOM     18  C   UNL     1      -7.397  -0.820   2.653  0.00  0.00    +0.000 A 
ATOM     19  C   UNL     1      -8.028   0.380   2.285  0.00  0.00    +0.010 A 
ATOM     20  C   UNL     1      -7.351   1.296   1.541  0.00  0.00    +0.001 A 
ATOM     21  C   UNL     1      -6.036   1.061   1.138  0.00  0.00    +0.002 A 
ATOM     22  C   UNL     1      -5.393  -0.088   1.476  0.00  0.00    +0.028 A 
ATOM     23  C   UNL     1      -6.060  -1.062   2.245  0.00  0.00    +0.072 A 
ATOM     24  N   UNL     1      -5.451  -2.195   2.595  0.00  0.00    -0.242 NA
ENDBRANCH  11  15
BRANCH   1  26
ATOM     25  N   UNL     1      -0.738  -4.411  -0.267  0.00  0.00    -0.312 N 
ATOM     26  C   UNL     1      -1.251  -4.224   0.965  0.00  0.00    +0.218 C 
ATOM     27  O   UNL     1      -0.581  -3.696   1.827  0.00  0.00    -0.275 OA
ATOM     28  H   UNL     1      -1.274  -4.833  -0.957  0.00  0.00    +0.149 HD
BRANCH  25  34
ATOM     29  C   UNL     1       0.591  -4.732  -4.341  0.00  0.00    +0.008 C 
ATOM     30  C   UNL     1       0.456  -4.996  -2.840  0.00  0.00    -0.009 C 
ATOM     31  C   UNL     1       1.441  -6.090  -2.425  0.00  0.00    +0.003 C 
ATOM     32  C   UNL     1       1.307  -6.354  -0.924  0.00  0.00    +0.002 C 
ATOM     33  C   UNL     1       1.614  -5.070  -0.150  0.00  0.00    +0.022 C 
ATOM     34  C   UNL     1       0.628  -3.976  -0.566  0.00  0.00    +0.076 C 
ATOM     35  C   UNL     1       0.763  -3.712  -2.067  0.00  0.00    +0.009 C 
ATOM     36  C   UNL     1      -0.222  -2.618  -2.483  0.00  0.00    +0.009 C 
ENDBRANCH  25  34
ENDBRANCH   1  26
TORSDOF 3
