REMARK  Name = ZINC01387700
REMARK  5 active torsions:
REMARK  status: ('A' for Active; 'I' for Inactive)
REMARK    1  A    between atoms: C_1  and  C_2
REMARK    2  A    between atoms: C_4  and  C_13
REMARK    3  A    between atoms: N_5  and  C_7
REMARK    4  A    between atoms: C_14  and  C_30
REMARK    5  A    between atoms: C_21  and  C_24
REMARK                            x       y       z     vdW  Elec       q    Type
REMARK                         _______ _______ _______ _____ _____    ______ ____
ROOT
ATOM      1  C   UNL     1       0.313  -3.542  -1.182  0.00  0.00    +0.087 A 
ATOM      2  C   UNL     1       0.366  -3.795  -2.521  0.00  0.00    +0.045 A 
ATOM      3  N   UNL     1       0.510  -5.136  -2.704  0.00  0.00    -0.292 N 
ATOM      4  N   UNL     1       0.553  -5.775  -1.460  0.00  0.00    -0.194 N 
ATOM      5  C   UNL     1       0.441  -4.836  -0.498  0.00  0.00    +0.283 A 
ATOM      6  O   UNL     1       0.443  -5.024   0.705  0.00  0.00    -0.265 OA
ATOM      7  C   UNL     1       0.692  -7.140  -1.251  0.00  0.00    +0.196 A 
ATOM      8  N   UNL     1       0.817  -8.111  -2.137  0.00  0.00    -0.221 NA
ATOM      9  C   UNL     1       0.942  -9.380  -1.755  0.00  0.00    +0.088 A 
ATOM     10  C   UNL     1       0.940  -9.679  -0.419  0.00  0.00    +0.077 A 
ATOM     11  S   UNL     1       0.757  -8.047   0.288  0.00  0.00    -0.056 S 
ATOM     12  C   UNL     1       0.278  -2.762  -3.615  0.00  0.00    +0.066 C 
ATOM     13  H   UNL     1       0.574  -5.580  -3.564  0.00  0.00    +0.187 HD
ENDROOT
BRANCH   1  17
ATOM     14  C   UNL     1       1.121   1.264   0.253  0.00  0.00    +0.067 C 
ATOM     15  C   UNL     1       0.503  -0.101   0.101  0.00  0.00    +0.061 A 
ATOM     16  C   UNL     1       1.019  -1.147  -0.666  0.00  0.00    +0.053 A 
ATOM     17  C   UNL     1       0.163  -2.219  -0.541  0.00  0.00    +0.082 A 
ATOM     18  N   UNL     1      -0.852  -1.829   0.286  0.00  0.00    -0.232 N 
ATOM     19  N   UNL     1      -0.604  -0.505   0.671  0.00  0.00    -0.171 NA
BRANCH  18  20
ATOM     20  C   UNL     1      -1.942  -2.614   0.683  0.00  0.00    +0.066 A 
ATOM     21  C   UNL     1      -2.587  -3.427  -0.240  0.00  0.00    +0.028 A 
ATOM     22  C   UNL     1      -3.661  -4.199   0.153  0.00  0.00    +0.002 A 
ATOM     23  C   UNL     1      -4.096  -4.164   1.466  0.00  0.00    +0.000 A 
ATOM     24  C   UNL     1      -3.457  -3.355   2.387  0.00  0.00    +0.002 A 
ATOM     25  C   UNL     1      -2.378  -2.584   2.001  0.00  0.00    +0.028 A 
ENDBRANCH  18  20
ENDBRANCH   1  17
BRANCH   9  26
ATOM     26  C   UNL     1       1.081 -10.454  -2.761  0.00  0.00    +0.056 A 
ATOM     27  C   UNL     1       1.111 -10.358  -4.127  0.00  0.00    +0.057 A 
ATOM     28  C   UNL     1       1.250 -11.512  -4.869  0.00  0.00    +0.028 A 
ATOM     29  C   UNL     1       1.352 -12.703  -4.227  0.00  0.00    +0.047 A 
ATOM     30  S   UNL     1       1.260 -12.213  -2.513  0.00  0.00    -0.094 S 
ATOM     31 CL   UNL     1       0.976  -8.814  -4.909  0.00  0.00    -0.082 Cl
ENDBRANCH   9  26
TORSDOF 3
