REMARK  Name = ZINC08140614
REMARK  8 active torsions:
REMARK  status: ('A' for Active; 'I' for Inactive)
REMARK    1  A    between atoms: C_1  and  C_2
REMARK    2  A    between atoms: C_8  and  N_10
REMARK    3  A    between atoms: C_11  and  C_13
REMARK    4  A    between atoms: C_13  and  C_15
REMARK    5  A    between atoms: C_13  and  S_16
REMARK    6  A    between atoms: S_16  and  C_17
REMARK    7  A    between atoms: C_20  and  C_23
REMARK    8  A    between atoms: N_21  and  N_22
REMARK                            x       y       z     vdW  Elec       q    Type
REMARK                         _______ _______ _______ _____ _____    ______ ____
ROOT
ATOM      1  C   UNL     1       0.033   0.579   4.842  0.00  0.00    +0.137 C 
ATOM      2  C   UNL     1      -0.639  -0.603   5.543  0.00  0.00    +0.029 C 
ENDROOT
BRANCH   1   4
ATOM      3  N   UNL     1       0.056  -0.038   2.447  0.00  0.00    -0.311 N 
ATOM      4  C   UNL     1       0.738   0.093   3.602  0.00  0.00    +0.226 C 
ATOM      5  O   UNL     1       1.919  -0.179   3.644  0.00  0.00    -0.275 OA
ATOM      6  H   UNL     1      -0.888   0.180   2.413  0.00  0.00    +0.149 HD
BRANCH   3  13
ATOM      7  C   UNL     1      -0.019   1.526   0.010  0.00  0.00    +0.009 C 
ATOM      8  C   UNL     1       0.002  -0.004   0.002  0.00  0.00    +0.006 C 
ATOM      9  C   UNL     1       0.718  -0.497  -1.257  0.00  0.00    +0.005 C 
ATOM     10  C   UNL     1       0.739  -2.027  -1.265  0.00  0.00    +0.000 C 
ATOM     11  C   UNL     1       1.479  -2.534  -0.026  0.00  0.00    +0.002 C 
ATOM     12  C   UNL     1       0.763  -2.041   1.233  0.00  0.00    +0.022 C 
ATOM     13  C   UNL     1       0.742  -0.511   1.242  0.00  0.00    +0.076 C 
ENDBRANCH   3  13
ENDBRANCH   1   4
BRANCH   1  14
ATOM     14  S   UNL     1       1.235   1.341   5.961  0.00  0.00    -0.072 S 
BRANCH  14  15
ATOM     15  C   UNL     1       0.150   1.938   7.215  0.00  0.00    +0.209 A 
ATOM     16  N   UNL     1      -1.157   1.819   7.237  0.00  0.00    -0.121 NA
ATOM     17  N   UNL     1      -1.627   2.368   8.300  0.00  0.00    -0.123 NA
ATOM     18  C   UNL     1      -0.657   2.872   9.010  0.00  0.00    +0.255 A 
ATOM     19  N   UNL     1       0.510   2.616   8.343  0.00  0.00    -0.220 N 
BRANCH  18  20
ATOM     20  C   UNL     1      -0.795   3.602  10.321  0.00  0.00    +0.454 C 
ATOM     21  F   UNL     1      -2.070   3.374  10.849  0.00  0.00    -0.163 F 
ATOM     22  F   UNL     1       0.172   3.135  11.218  0.00  0.00    -0.163 F 
ATOM     23  F   UNL     1      -0.615   4.973  10.112  0.00  0.00    -0.163 F 
ENDBRANCH  18  20
BRANCH  19  24
ATOM     24  N   UNL     1       1.773   2.967   8.728  0.00  0.00    -0.295 N 
ATOM     25  H   UNL     1       2.022   3.875   8.366  0.00  0.00    +0.163 HD
ATOM     26  H   UNL     1       1.866   2.940   9.732  0.00  0.00    +0.163 HD
ENDBRANCH  19  24
ENDBRANCH  14  15
ENDBRANCH   1  14
TORSDOF 6
