REMARK  Name = ZINC62960701
REMARK  8 active torsions:
REMARK  status: ('A' for Active; 'I' for Inactive)
REMARK    1  A    between atoms: C_1  and  C_2
REMARK    2  A    between atoms: C_2  and  C_3
REMARK    3  A    between atoms: C_3  and  C_20
REMARK    4  A    between atoms: N_6  and  C_9
REMARK    5  A    between atoms: C_12  and  N_19
REMARK    6  A    between atoms: C_13  and  C_15
REMARK    7  A    between atoms: C_15  and  O_17
REMARK    8  A    between atoms: O_17  and  C_18
REMARK                            x       y       z     vdW  Elec       q    Type
REMARK                         _______ _______ _______ _____ _____    ______ ____
ROOT
ATOM      1  C   UNL     1       3.822  -2.799  -2.851  0.00  0.00    +0.031 A 
ATOM      2  C   UNL     1       3.929  -4.129  -2.453  0.00  0.00    +0.025 A 
ATOM      3  C   UNL     1       5.130  -4.797  -2.571  0.00  0.00    +0.025 A 
ATOM      4  C   UNL     1       6.242  -4.146  -3.089  0.00  0.00    +0.039 A 
ATOM      5  C   UNL     1       6.141  -2.806  -3.492  0.00  0.00    +0.081 A 
ATOM      6  C   UNL     1       4.918  -2.139  -3.374  0.00  0.00    +0.040 A 
ENDROOT
BRANCH   1  10
ATOM      7  C   UNL     1       0.535  -0.657  -1.471  0.00  0.00    -0.029 C 
ATOM      8  C   UNL     1       1.870   0.011  -1.808  0.00  0.00    +0.025 C 
ATOM      9  C   UNL     1       2.498  -0.693  -3.015  0.00  0.00    +0.105 C 
ATOM     10  N   UNL     1       2.598  -2.130  -2.726  0.00  0.00    -0.330 N 
ATOM     11  C   UNL     1       1.390  -2.852  -2.304  0.00  0.00    +0.105 C 
ATOM     12  C   UNL     1       0.774  -2.124  -1.105  0.00  0.00    +0.025 C 
ATOM     13  C   UNL     1      -0.394  -0.580  -2.684  0.00  0.00    +0.011 C 
BRANCH   7  15
ATOM     14  C   UNL     1      -0.351   1.531  -0.652  0.00  0.00    +0.004 C 
ATOM     15  C   UNL     1      -0.111   0.065  -0.287  0.00  0.00    +0.003 C 
ENDBRANCH   7  15
ENDBRANCH   1  10
BRANCH   4  16
ATOM     16  N   UNL     1       7.453  -4.821  -3.207  0.00  0.00    -0.357 N 
ATOM     17  H   UNL     1       7.466  -5.790  -3.252  0.00  0.00    +0.142 HD
ATOM     18  H   UNL     1       8.284  -4.323  -3.244  0.00  0.00    +0.142 HD
ENDBRANCH   4  16
BRANCH   5  19
ATOM     19  C   UNL     1       7.316  -2.108  -4.042  0.00  0.00    +0.341 C 
ATOM     20  O   UNL     1       8.343  -2.722  -4.256  0.00  0.00    -0.245 OA
BRANCH  19  21
ATOM     21  O   UNL     1       7.252  -0.788  -4.307  0.00  0.00    -0.464 OA
ATOM     22  C   UNL     1       8.429  -0.175  -4.838  0.00  0.00    +0.280 C 
ENDBRANCH  19  21
ENDBRANCH   5  19
TORSDOF 5
