REMARK  Name = ZINC51036449
REMARK  6 active torsions:
REMARK  status: ('A' for Active; 'I' for Inactive)
REMARK    1  A    between atoms: C_1  and  C_2
REMARK    2  A    between atoms: C_2  and  C_3
REMARK    3  A    between atoms: C_3  and  C_4
REMARK    4  A    between atoms: C_8  and  C_24
REMARK    5  A    between atoms: C_10  and  S_13
REMARK    6  A    between atoms: S_13  and  C_14
REMARK                            x       y       z     vdW  Elec       q    Type
REMARK                         _______ _______ _______ _____ _____    ______ ____
ROOT
ATOM      1  C   UNL     1       0.739  -2.027  -1.265  0.00  0.00    -0.010 C 
ATOM      2  C   UNL     1       1.584  -2.532  -0.094  0.00  0.00    +0.005 C 
ATOM      3  C   UNL     1       1.605  -4.062  -0.103  0.00  0.00    +0.020 C 
ATOM      4  C   UNL     1       2.209  -4.557  -1.419  0.00  0.00    +0.105 C 
ATOM      5  C   UNL     1       1.364  -4.052  -2.590  0.00  0.00    +0.070 C 
ATOM      6  C   UNL     1       1.343  -2.522  -2.581  0.00  0.00    +0.019 C 
ENDROOT
BRANCH   4   7
ATOM      7  C   UNL     1       3.584  -4.047  -1.550  0.00  0.00    +0.067 C 
ATOM      8  N   UNL     1       4.644  -3.653  -1.651  0.00  0.00    -0.196 NA
ENDBRANCH   4   7
BRANCH   1   9
ATOM      9  C   UNL     1       0.718  -0.497  -1.257  0.00  0.00    +0.003 C 
BRANCH   9  11
ATOM     10  C   UNL     1      -0.019   1.526   0.010  0.00  0.00    +0.004 C 
ATOM     11  C   UNL     1       0.002  -0.004   0.002  0.00  0.00    -0.003 C 
ENDBRANCH   9  11
ENDBRANCH   1   9
BRANCH   5  12
ATOM     12  S   UNL     1       2.080  -4.638  -4.150  0.00  0.00    -0.099 S 
BRANCH  12  13
ATOM     13  C   UNL     1       1.899  -6.389  -4.070  0.00  0.00    +0.126 A 
ATOM     14  C   UNL     1       2.350  -7.202  -5.113  0.00  0.00    +0.117 A 
ATOM     15  C   UNL     1       2.184  -8.592  -5.003  0.00  0.00    +0.182 A 
ATOM     16  N   UNL     1       2.695  -9.136  -6.123  0.00  0.00    -0.216 NA
ATOM     17  H   UNL     1       3.222  -6.126  -6.698  0.00  0.00    +0.167 HD
ATOM     18  C   UNL     1       3.156  -8.195  -6.900  0.00  0.00    +0.199 A 
ATOM     19  N   UNL     1       2.969  -6.986  -6.326  0.00  0.00    -0.341 N 
ATOM     20  N   UNL     1       1.601  -9.083  -3.904  0.00  0.00    -0.214 NA
ATOM     21  C   UNL     1       1.192  -8.279  -2.948  0.00  0.00    +0.224 A 
ATOM     22  N   UNL     1       1.335  -6.968  -3.012  0.00  0.00    -0.227 NA
ENDBRANCH  12  13
ENDBRANCH   5  12
TORSDOF 5
