REMARK  Name = ZINC00946537
REMARK  6 active torsions:
REMARK  status: ('A' for Active; 'I' for Inactive)
REMARK    1  A    between atoms: C_4  and  C_7
REMARK    2  A    between atoms: C_7  and  C_9
REMARK    3  A    between atoms: C_11  and  C_23
REMARK    4  A    between atoms: C_17  and  C_18
REMARK    5  A    between atoms: C_17  and  O_22
REMARK    6  A    between atoms: C_26  and  N_29
REMARK                            x       y       z     vdW  Elec       q    Type
REMARK                         _______ _______ _______ _____ _____    ______ ____
ROOT
ATOM      1  C   UNL     1       5.098   0.364  -0.081  0.00  0.00    +0.144 C 
ATOM      2  C   UNL     1       6.303  -0.463   0.378  0.00  0.00    +0.117 C 
ATOM      3  N   UNL     1       7.533   0.192  -0.069  0.00  0.00    -0.319 N 
ATOM      4  C   UNL     1       7.560   0.942  -1.181  0.00  0.00    +0.133 C 
ATOM      5  S   UNL     1       9.039   1.664  -1.651  0.00  0.00    -0.019 S 
ATOM      6  N   UNL     1       6.473   1.147  -1.940  0.00  0.00    -0.291 N 
ATOM      7  C   UNL     1       5.182   0.548  -1.600  0.00  0.00    +0.241 C 
ATOM      8  H   UNL     1       8.346   0.081   0.449  0.00  0.00    +0.148 HD
ATOM      9  H   UNL     1       6.544   1.705  -2.731  0.00  0.00    +0.151 HD
ENDROOT
BRANCH   2  10
ATOM     10  C   UNL     1       6.304  -0.562   1.882  0.00  0.00    -0.026 A 
ATOM     11  C   UNL     1       6.785   0.487   2.643  0.00  0.00    +0.008 A 
ATOM     12  C   UNL     1       6.782   0.399   4.022  0.00  0.00    +0.033 A 
ATOM     13  C   UNL     1       6.305  -0.742   4.641  0.00  0.00    +0.126 A 
ATOM     14  C   UNL     1       5.828  -1.793   3.879  0.00  0.00    +0.033 A 
ATOM     15  C   UNL     1       5.828  -1.703   2.500  0.00  0.00    +0.008 A 
BRANCH  13  16
ATOM     16  N   UNL     1       6.304  -0.838   6.118  0.00  0.00    +0.056 N 
ATOM     17  O   UNL     1       5.884  -1.843   6.662  0.00  0.00    -0.126 OA
ATOM     18  O   UNL     1       6.724   0.088   6.788  0.00  0.00    -0.126 OA
ENDBRANCH  13  16
ENDBRANCH   2  10
BRANCH   7  19
ATOM     19  C   UNL     1       4.051   1.466  -2.067  0.00  0.00    +0.436 C 
ATOM     20  F   UNL     1       4.094   2.663  -1.345  0.00  0.00    -0.166 F 
ATOM     21  F   UNL     1       4.205   1.739  -3.431  0.00  0.00    -0.166 F 
ATOM     22  F   UNL     1       2.820   0.836  -1.853  0.00  0.00    -0.166 F 
ENDBRANCH   7  19
BRANCH   1  23
ATOM     23  C   UNL     1       3.824  -0.359   0.272  0.00  0.00    +0.173 C 
ATOM     24  O   UNL     1       3.625  -1.478  -0.151  0.00  0.00    -0.292 OA
BRANCH  23  28
ATOM     25  C   UNL     1       0.932   1.519   2.742  0.00  0.00    +0.000 A 
ATOM     26  C   UNL     1       2.158   2.126   2.534  0.00  0.00    +0.001 A 
ATOM     27  C   UNL     1       3.104   1.522   1.733  0.00  0.00    +0.011 A 
ATOM     28  C   UNL     1       2.820   0.292   1.129  0.00  0.00    +0.018 A 
ATOM     29  C   UNL     1       1.579  -0.314   1.343  0.00  0.00    +0.011 A 
ATOM     30  C   UNL     1       0.644   0.302   2.148  0.00  0.00    +0.001 A 
ENDBRANCH  23  28
ENDBRANCH   1  23
BRANCH   7  31
ATOM     31  O   UNL     1       5.061  -0.723  -2.242  0.00  0.00    -0.364 OA
ATOM     32  H   UNL     1       5.106  -0.682  -3.207  0.00  0.00    +0.212 HD
ENDBRANCH   7  31
TORSDOF 6
