REMARK  Name = ZINC67614395
REMARK  7 active torsions:
REMARK  status: ('A' for Active; 'I' for Inactive)
REMARK    1  A    between atoms: N_3  and  C_26
REMARK    2  A    between atoms: C_5  and  N_7
REMARK    3  A    between atoms: C_8  and  C_10
REMARK    4  A    between atoms: C_10  and  C_11
REMARK    5  A    between atoms: C_11  and  C_12
REMARK    6  A    between atoms: C_12  and  C_13
REMARK    7  A    between atoms: C_13  and  C_14
REMARK                            x       y       z     vdW  Elec       q    Type
REMARK                         _______ _______ _______ _____ _____    ______ ____
ROOT
ATOM      1  C   UNL     1      -2.689  -1.226  -2.431  0.00  0.00    +0.096 C 
ENDROOT
BRANCH   1   3
ATOM      2  N   UNL     1      -0.666  -0.515  -1.197  0.00  0.00    -0.314 N 
ATOM      3  C   UNL     1      -2.001  -0.700  -1.198  0.00  0.00    +0.213 C 
ATOM      4  O   UNL     1      -2.649  -0.443  -0.205  0.00  0.00    -0.276 OA
ATOM      5  H   UNL     1      -0.148  -0.721  -1.991  0.00  0.00    +0.149 HD
BRANCH   2  10
ATOM      6  C   UNL     1      -0.019   1.538   0.011  0.00  0.00    +0.002 C 
ATOM      7  C   UNL     1       1.466   1.960  -0.001  0.00  0.00    -0.077 C 
ATOM      8  N   UNL     1       2.191   0.794   0.567  0.00  0.00    +0.383 N 
ATOM      9  C   UNL     1       1.498  -0.385  -0.014  0.00  0.00    -0.056 C 
ATOM     10  C   UNL     1       0.002  -0.004   0.002  0.00  0.00    +0.055 C 
ATOM     11  H   UNL     1       2.115   0.787   1.573  0.00  0.00    -0.081 HD
BRANCH   8  12
ATOM     12  C   UNL     1       3.601   0.815   0.156  0.00  0.00    -0.069 C 
ATOM     13  C   UNL     1       4.658   0.648   1.249  0.00  0.00    -0.017 C 
ATOM     14  C   UNL     1       4.446   2.014   0.593  0.00  0.00    -0.017 C 
ENDBRANCH   8  12
ENDBRANCH   2  10
ENDBRANCH   1   3
BRANCH   1  15
ATOM     15  C   UNL     1      -4.191  -1.341  -2.168  0.00  0.00    +0.009 C 
BRANCH  15  16
ATOM     16  C   UNL     1      -4.889  -1.875  -3.420  0.00  0.00    +0.002 C 
BRANCH  16  17
ATOM     17  C   UNL     1      -6.392  -1.991  -3.156  0.00  0.00    +0.016 C 
BRANCH  17  18
ATOM     18  C   UNL     1      -7.090  -2.525  -4.409  0.00  0.00    +0.069 C 
ATOM     19  C   UNL     1      -8.580  -2.623  -4.202  0.00  0.00    +0.108 C 
ATOM     20  C   UNL     1      -9.140  -3.732  -5.144  0.00  0.00    +0.105 C 
ATOM     21  C   UNL     1      -8.402  -5.010  -4.751  0.00  0.00    +0.093 C 
ATOM     22  S   UNL     1      -6.667  -4.305  -4.704  0.00  0.00    -0.154 S 
ATOM     23  N   UNL     1     -10.553  -3.567  -4.885  0.00  0.00    -0.294 N 
ATOM     24  C   UNL     1     -10.725  -2.234  -4.640  0.00  0.00    +0.300 C 
ATOM     25  O   UNL     1     -11.810  -1.686  -4.626  0.00  0.00    -0.253 OA
ATOM     26  N   UNL     1      -9.546  -1.588  -4.428  0.00  0.00    -0.294 N 
ATOM     27  H   UNL     1     -11.235  -4.257  -4.886  0.00  0.00    +0.151 HD
ATOM     28  H   UNL     1      -9.396  -0.630  -4.426  0.00  0.00    +0.151 HD
ENDBRANCH  17  18
ENDBRANCH  16  17
ENDBRANCH  15  16
ENDBRANCH   1  15
TORSDOF 7
