REMARK  Name = ZINC59435536
REMARK  8 active torsions:
REMARK  status: ('A' for Active; 'I' for Inactive)
REMARK    1  A    between atoms: C_1  and  C_2
REMARK    2  A    between atoms: C_6  and  C_7
REMARK    3  A    between atoms: N_8  and  N_9
REMARK    4  A    between atoms: C_10  and  C_12
REMARK    5  A    between atoms: N_14  and  C_15
REMARK    6  A    between atoms: C_15  and  C_16
REMARK    7  A    between atoms: C_15  and  C_17
REMARK    8  A    between atoms: C_15  and  C_18
REMARK                            x       y       z     vdW  Elec       q    Type
REMARK                         _______ _______ _______ _____ _____    ______ ____
ROOT
ATOM      1  N   UNL     1       0.056  -0.592   4.879  0.00  0.00    -0.199 N 
ATOM      2  C   UNL     1       0.078  -1.462   5.908  0.00  0.00    +0.318 C 
ATOM      3  O   UNL     1       0.092  -2.657   5.692  0.00  0.00    -0.263 OA
ATOM      4  H   UNL     1       0.045   0.363   5.051  0.00  0.00    +0.178 HD
ENDROOT
BRANCH   2   5
ATOM      5  C   UNL     1       0.085  -0.957   7.311  0.00  0.00    +0.301 C 
ATOM      6  O   UNL     1       0.070   0.237   7.527  0.00  0.00    -0.265 OA
ATOM      7  N   UNL     1       0.106  -1.827   8.340  0.00  0.00    -0.303 N 
ATOM      8  H   UNL     1       0.117  -2.782   8.168  0.00  0.00    +0.150 HD
BRANCH   7   9
ATOM      9  C   UNL     1       0.113  -1.332   9.719  0.00  0.00    +0.027 C 
ATOM     10  C   UNL     1      -1.146  -0.497   9.966  0.00  0.00    +0.031 C 
ATOM     11  C   UNL     1       0.138  -2.516  10.686  0.00  0.00    +0.031 C 
ATOM     12  C   UNL     1       1.352  -0.463   9.943  0.00  0.00    +0.031 C 
ENDBRANCH   7   9
ENDBRANCH   2   5
BRANCH   1  14
ATOM     13  C   UNL     1       0.029  -0.225   2.566  0.00  0.00    +0.145 C 
ATOM     14  N   UNL     1       0.050  -1.066   3.561  0.00  0.00    -0.187 NA
BRANCH  13  20
ATOM     15  C   UNL     1      -0.018   1.503   0.010  0.00  0.00    +0.045 C 
ATOM     16  C   UNL     1       0.002  -0.004   0.002  0.00  0.00    -0.035 A 
ATOM     17  C   UNL     1       0.006  -0.702  -1.182  0.00  0.00    +0.011 A 
ATOM     18  C   UNL     1       0.025  -2.061  -1.154  0.00  0.00    +0.046 A 
ATOM     19  S   UNL     1       0.037  -2.405   0.598  0.00  0.00    -0.095 S 
ATOM     20  C   UNL     1       0.023  -0.720   1.188  0.00  0.00    +0.035 A 
ENDBRANCH  13  20
ENDBRANCH   1  14
TORSDOF 4
