REMARK  Name = ZINC57932329
REMARK  8 active torsions:
REMARK  status: ('A' for Active; 'I' for Inactive)
REMARK    1  A    between atoms: C_1  and  C_2
REMARK    2  A    between atoms: C_2  and  C_3
REMARK    3  A    between atoms: N_7  and  C_19
REMARK    4  A    between atoms: C_10  and  O_17
REMARK    5  A    between atoms: C_11  and  O_15
REMARK    6  A    between atoms: O_15  and  C_16
REMARK    7  A    between atoms: O_17  and  C_18
REMARK    8  A    between atoms: C_19  and  C_20
REMARK                            x       y       z     vdW  Elec       q    Type
REMARK                         _______ _______ _______ _____ _____    ______ ____
ROOT
ATOM      1  C   UNL     1      -1.433  -0.534   0.013  0.00  0.00    +0.157 C 
ATOM      2  C   UNL     1      -1.415  -2.037   0.124  0.00  0.00    +0.241 C 
ATOM      3  O   UNL     1      -1.448  -2.558   1.219  0.00  0.00    -0.273 OA
ATOM      4  N   UNL     1      -1.363  -2.807  -0.978  0.00  0.00    -0.254 N 
ATOM      5  C   UNL     1      -1.467  -2.242  -2.256  0.00  0.00    +0.062 A 
ATOM      6  C   UNL     1      -1.211  -3.005  -3.386  0.00  0.00    +0.074 A 
ATOM      7  C   UNL     1      -1.308  -2.432  -4.643  0.00  0.00    +0.163 A 
ATOM      8  C   UNL     1      -1.662  -1.093  -4.777  0.00  0.00    +0.163 A 
ATOM      9  C   UNL     1      -1.921  -0.328  -3.649  0.00  0.00    +0.074 A 
ATOM     10  C   UNL     1      -1.828  -0.902  -2.393  0.00  0.00    +0.053 A 
ATOM     11  N   UNL     1      -2.108  -0.152  -1.236  0.00  0.00    -0.331 N 
ATOM     12  H   UNL     1      -2.727   0.594  -1.261  0.00  0.00    +0.147 HD
ENDROOT
BRANCH   1  14
ATOM     13  C   UNL     1      -0.019   1.526   0.010  0.00  0.00    +0.006 C 
ATOM     14  C   UNL     1       0.002  -0.004   0.002  0.00  0.00    +0.028 C 
ENDBRANCH   1  14
BRANCH   8  15
ATOM     15  O   UNL     1      -1.752  -0.533  -6.013  0.00  0.00    -0.491 OA
ATOM     16  C   UNL     1      -2.120   0.847  -6.076  0.00  0.00    +0.277 C 
ENDBRANCH   8  15
BRANCH   7  17
ATOM     17  O   UNL     1      -1.057  -3.180  -5.752  0.00  0.00    -0.491 OA
ATOM     18  C   UNL     1      -0.699  -4.548  -5.543  0.00  0.00    +0.277 C 
ENDBRANCH   7  17
BRANCH   4  19
ATOM     19  C   UNL     1      -1.196  -4.256  -0.840  0.00  0.00    +0.232 C 
BRANCH  19  20
ATOM     20  C   UNL     1      -2.518  -4.897  -0.750  0.00  0.00    +0.082 C 
ATOM     21  N   UNL     1      -3.538  -5.391  -0.680  0.00  0.00    -0.195 NA
ENDBRANCH  19  20
ENDBRANCH   4  19
TORSDOF 5
