REMARK  Name = ZINC08918464
REMARK  5 active torsions:
REMARK  status: ('A' for Active; 'I' for Inactive)
REMARK    1  A    between atoms: C_1  and  C_2
REMARK    2  A    between atoms: N_18  and  C_21
REMARK    3  A    between atoms: C_25  and  C_27
REMARK    4  A    between atoms: N_29  and  C_30
REMARK    5  A    between atoms: C_30  and  C_31
REMARK                            x       y       z     vdW  Elec       q    Type
REMARK                         _______ _______ _______ _____ _____    ______ ____
ROOT
ATOM      1  C   UNL     1      -1.227   8.053   1.406  0.00  0.00    +0.048 C 
ATOM      2  C   UNL     1      -0.770   7.427   0.087  0.00  0.00    +0.153 C 
ATOM      3  C   UNL     1      -1.188   8.255  -1.105  0.00  0.00    +0.053 A 
ATOM      4  C   UNL     1      -0.312   8.969  -1.848  0.00  0.00    -0.015 A 
ATOM      5  C   UNL     1      -1.091   9.635  -2.877  0.00  0.00    +0.003 A 
ATOM      6  C   UNL     1      -0.736  10.502  -3.915  0.00  0.00    +0.010 A 
ATOM      7  C   UNL     1      -1.752  10.952  -4.721  0.00  0.00    +0.001 A 
ATOM      8  C   UNL     1      -3.070  10.572  -4.526  0.00  0.00    +0.002 A 
ATOM      9  C   UNL     1      -3.448   9.715  -3.507  0.00  0.00    +0.026 A 
ATOM     10  C   UNL     1      -2.437   9.244  -2.671  0.00  0.00    +0.047 A 
ATOM     11  N   UNL     1      -2.457   8.406  -1.594  0.00  0.00    -0.356 N 
ATOM     12  H   UNL     1      -3.250   7.983  -1.230  0.00  0.00    +0.166 HD
ATOM     13  C   UNL     1       1.181   9.034  -1.651  0.00  0.00    +0.056 C 
ATOM     14  C   UNL     1       1.562   8.482  -0.270  0.00  0.00    +0.115 C 
ATOM     15  N   UNL     1       0.706   7.324  -0.002  0.00  0.00    -0.265 N 
ATOM     16  C   UNL     1       1.009   6.032   0.120  0.00  0.00    +0.317 C 
ATOM     17  O   UNL     1       2.135   5.608   0.292  0.00  0.00    -0.252 OA
ATOM     18  N   UNL     1      -0.082   5.254   0.030  0.00  0.00    -0.192 N 
ATOM     19  C   UNL     1      -1.212   5.990  -0.059  0.00  0.00    +0.257 C 
ATOM     20  O   UNL     1      -2.343   5.582  -0.219  0.00  0.00    -0.272 OA
ENDROOT
BRANCH  18  21
ATOM     21  C   UNL     1      -0.052   3.852   0.022  0.00  0.00    +0.046 A 
ATOM     22  C   UNL     1       1.165   3.183  -0.019  0.00  0.00    +0.024 A 
ATOM     23  C   UNL     1       1.200   1.801  -0.020  0.00  0.00    +0.003 A 
ATOM     24  C   UNL     1       0.026   1.077   0.007  0.00  0.00    +0.013 A 
ATOM     25  C   UNL     1      -1.202   1.739   0.048  0.00  0.00    +0.038 A 
ATOM     26  C   UNL     1      -1.237   3.134   0.055  0.00  0.00    +0.037 A 
BRANCH  25  27
ATOM     27  C   UNL     1      -2.462   0.965   0.083  0.00  0.00    +0.244 C 
ATOM     28  O   UNL     1      -3.530   1.544   0.118  0.00  0.00    -0.270 OA
ATOM     29  N   UNL     1      -2.425  -0.382   0.075  0.00  0.00    -0.309 N 
ATOM     30  H   UNL     1      -1.573  -0.844   0.046  0.00  0.00    +0.149 HD
BRANCH  29  31
ATOM     31  C   UNL     1      -3.673  -1.149   0.109  0.00  0.00    +0.136 C 
BRANCH  31  32
ATOM     32  C   UNL     1      -3.353  -2.645   0.092  0.00  0.00    +0.135 C 
ATOM     33  C   UNL     1      -4.660  -3.460   0.120  0.00  0.00    +0.035 C 
ATOM     34  C   UNL     1      -4.600  -4.318  -1.167  0.00  0.00    +0.031 C 
ATOM     35  C   UNL     1      -3.084  -4.316  -1.488  0.00  0.00    +0.160 C 
ATOM     36  O   UNL     1      -2.661  -2.983  -1.122  0.00  0.00    -0.375 OA
ENDBRANCH  31  32
ENDBRANCH  29  31
ENDBRANCH  25  27
ENDBRANCH  18  21
TORSDOF 4
