REMARK  Name = ZINC44929047
REMARK  5 active torsions:
REMARK  status: ('A' for Active; 'I' for Inactive)
REMARK    1  A    between atoms: C_1  and  O_2
REMARK    2  A    between atoms: O_2  and  C_3
REMARK    3  A    between atoms: C_9  and  N_11
REMARK    4  A    between atoms: N_11  and  C_12
REMARK    5  A    between atoms: C_12  and  C_13
REMARK                            x       y       z     vdW  Elec       q    Type
REMARK                         _______ _______ _______ _____ _____    ______ ____
ROOT
ATOM      1  N   UNL     1      -0.810  -1.734  -2.106  0.00  0.00    +0.387 N 
ATOM      2  H   UNL     1      -1.507  -1.193  -2.595  0.00  0.00    -0.085 HD
ATOM      3  H   UNL     1       0.068  -1.238  -2.113  0.00  0.00    -0.085 HD
ENDROOT
BRANCH   1   9
ATOM      4  C   UNL     1      -1.295  -0.603   0.011  0.00  0.00    +0.104 C 
ATOM      5  C   UNL     1      -1.745  -0.825   1.457  0.00  0.00    +0.030 C 
ATOM      6  C   UNL     1      -3.134  -1.466   1.467  0.00  0.00    +0.002 C 
ATOM      7  C   UNL     1      -3.080  -2.810   0.738  0.00  0.00    -0.001 C 
ATOM      8  C   UNL     1      -2.631  -2.588  -0.708  0.00  0.00    -0.013 C 
ATOM      9  C   UNL     1      -1.242  -1.947  -0.718  0.00  0.00    -0.042 C 
BRANCH   4  11
ATOM     10  C   UNL     1      -0.017   1.425   0.010  0.00  0.00    +0.194 C 
ATOM     11  O   UNL     1       0.002  -0.004   0.002  0.00  0.00    -0.381 OA
ENDBRANCH   4  11
ENDBRANCH   1   9
BRANCH   1  12
ATOM     12  C   UNL     1      -0.643  -3.033  -2.771  0.00  0.00    -0.001 C 
BRANCH  12  13
ATOM     13  C   UNL     1      -0.201  -2.815  -4.195  0.00  0.00    +0.160 A 
ATOM     14  N   UNL     1      -0.986  -2.666  -5.252  0.00  0.00    -0.113 NA
ATOM     15  N   UNL     1      -0.226  -2.503  -6.282  0.00  0.00    -0.021 NA
ATOM     16  N   UNL     1       1.004  -2.545  -5.905  0.00  0.00    -0.021 NA
ATOM     17  N   UNL     1       1.048  -2.730  -4.630  0.00  0.00    -0.113 NA
ENDBRANCH  12  13
ENDBRANCH   1  12
TORSDOF 4
