REMARK  Name = ZINC36027217
REMARK  8 active torsions:
REMARK  status: ('A' for Active; 'I' for Inactive)
REMARK    1  A    between atoms: C_1  and  C_2
REMARK    2  A    between atoms: C_2  and  C_3
REMARK    3  A    between atoms: C_3  and  C_5
REMARK    4  A    between atoms: C_3  and  C_6
REMARK    5  A    between atoms: C_6  and  N_7
REMARK    6  A    between atoms: C_10  and  C_30
REMARK    7  A    between atoms: N_16  and  S_19
REMARK    8  A    between atoms: S_19  and  C_22
REMARK                            x       y       z     vdW  Elec       q    Type
REMARK                         _______ _______ _______ _____ _____    ______ ____
ROOT
ATOM      1  N   UNL     1       1.364  -2.523   2.486  0.00  0.00    -0.313 N 
ATOM      2  C   UNL     1       2.690  -2.759   2.558  0.00  0.00    +0.200 C 
ATOM      3  O   UNL     1       3.487  -2.610   1.656  0.00  0.00    -0.277 OA
ATOM      4  C   UNL     1       3.016  -3.241   3.955  0.00  0.00    +0.016 C 
ATOM      5  N   UNL     1       1.836  -2.865   4.770  0.00  0.00    +0.401 N 
ATOM      6  C   UNL     1       0.743  -2.820   3.779  0.00  0.00    +0.006 C 
ATOM      7  C   UNL     1       0.041  -4.176   3.729  0.00  0.00    +0.023 C 
ATOM      8  C   UNL     1      -1.068  -4.137   2.672  0.00  0.00    +0.109 C 
ATOM      9  N   UNL     1      -1.953  -3.000   2.960  0.00  0.00    -0.177 NA
ATOM     10  C   UNL     1      -1.363  -1.662   3.101  0.00  0.00    +0.109 C 
ATOM     11  C   UNL     1      -0.251  -1.722   4.153  0.00  0.00    +0.023 C 
ATOM     12  C   UNL     1       4.273  -2.544   4.480  0.00  0.00    -0.004 C 
ATOM     13  H   UNL     1       1.652  -3.563   5.475  0.00  0.00    -0.082 HD
ATOM     14  H   UNL     1       1.968  -1.957   5.191  0.00  0.00    -0.082 HD
ENDROOT
BRANCH   9  15
ATOM     15  S   UNL     1      -3.586  -3.222   3.122  0.00  0.00    +0.061 S 
ATOM     16  O   UNL     1      -4.197  -1.972   2.832  0.00  0.00    -0.153 OA
ATOM     17  O   UNL     1      -3.907  -4.410   2.410  0.00  0.00    -0.153 OA
BRANCH  15  18
ATOM     18  C   UNL     1      -3.901  -3.554   4.823  0.00  0.00    +0.107 A 
ATOM     19  C   UNL     1      -3.879  -4.856   5.288  0.00  0.00    +0.030 A 
ATOM     20  C   UNL     1      -4.126  -5.118   6.623  0.00  0.00    +0.023 A 
ATOM     21  C   UNL     1      -4.395  -4.078   7.494  0.00  0.00    +0.059 A 
ATOM     22  C   UNL     1      -4.417  -2.774   7.028  0.00  0.00    +0.061 A 
ATOM     23  C   UNL     1      -4.164  -2.513   5.693  0.00  0.00    +0.050 A 
ATOM     24 CL   UNL     1      -4.754  -1.467   8.119  0.00  0.00    -0.082 Cl
ATOM     25 CL   UNL     1      -4.706  -4.406   9.170  0.00  0.00    -0.082 Cl
ENDBRANCH  15  18
ENDBRANCH   9  15
BRANCH   1  26
ATOM     26  C   UNL     1       0.655  -2.037   1.299  0.00  0.00    +0.109 C 
BRANCH  26  27
ATOM     27  C   UNL     1       0.662  -0.507   1.291  0.00  0.00    +0.003 C 
ATOM     28  C   UNL     1       2.096  -0.004   1.115  0.00  0.00    +0.009 C 
BRANCH  27  30
ATOM     29  C   UNL     1      -0.297   1.526   0.201  0.00  0.00    +0.004 C 
ATOM     30  C   UNL     1      -0.202   0.000   0.135  0.00  0.00    +0.001 C 
ENDBRANCH  27  30
ENDBRANCH  26  27
ENDBRANCH   1  26
TORSDOF 5
