REMARK  Name = ZINC59106204
REMARK  3 active torsions:
REMARK  status: ('A' for Active; 'I' for Inactive)
REMARK    1  A    between atoms: C_4  and  O_24
REMARK    2  A    between atoms: C_5  and  C_7
REMARK    3  A    between atoms: N_14  and  C_17
REMARK                            x       y       z     vdW  Elec       q    Type
REMARK                         _______ _______ _______ _____ _____    ______ ____
ROOT
ATOM      1  C   UNL     1       1.059  -2.161  -0.850  0.00  0.00    +0.030 C 
ATOM      2  C   UNL     1      -0.020  -2.850  -0.319  0.00  0.00    +0.102 C 
ATOM      3  C   UNL     1      -1.214  -2.147   0.176  0.00  0.00    +0.276 C 
ATOM      4  O   UNL     1      -1.292  -0.800   0.126  0.00  0.00    -0.268 OA
ATOM      5  N   UNL     1      -2.208  -2.864   0.671  0.00  0.00    -0.123 NA
ATOM      6  C   UNL     1      -2.159  -4.193   0.732  0.00  0.00    +0.340 C 
ATOM      7  O   UNL     1      -3.115  -4.783   1.202  0.00  0.00    -0.250 OA
ATOM      8  N   UNL     1      -1.114  -4.917   0.306  0.00  0.00    -0.188 N 
ATOM      9  C   UNL     1      -0.026  -4.324  -0.230  0.00  0.00    +0.264 C 
ATOM     10  O   UNL     1       0.920  -4.981  -0.622  0.00  0.00    -0.269 OA
ENDROOT
BRANCH   8  11
ATOM     11  C   UNL     1      -1.155  -6.315   0.412  0.00  0.00    +0.046 A 
ATOM     12  C   UNL     1      -0.619  -6.942   1.528  0.00  0.00    +0.027 A 
ATOM     13  C   UNL     1      -0.661  -8.319   1.632  0.00  0.00    +0.040 A 
ATOM     14  C   UNL     1      -1.236  -9.073   0.623  0.00  0.00    +0.124 A 
ATOM     15  C   UNL     1      -1.771  -8.449  -0.491  0.00  0.00    +0.040 A 
ATOM     16  C   UNL     1      -1.737  -7.072  -0.595  0.00  0.00    +0.027 A 
ATOM     17  F   UNL     1      -1.276 -10.420   0.726  0.00  0.00    -0.205 F 
ENDBRANCH   8  11
BRANCH   1  22
ATOM     18  C   UNL     1       0.962   1.224   0.644  0.00  0.00    +0.001 A 
ATOM     19  C   UNL     1       1.281   2.008  -0.455  0.00  0.00    +0.004 A 
ATOM     20  C   UNL     1       1.528   1.427  -1.683  0.00  0.00    +0.046 A 
ATOM     21  C   UNL     1       1.458   0.050  -1.828  0.00  0.00    +0.124 A 
ATOM     22  C   UNL     1       1.135  -0.751  -0.716  0.00  0.00    +0.017 A 
ATOM     23  C   UNL     1       0.887  -0.144   0.525  0.00  0.00    +0.011 A 
BRANCH  21  24
ATOM     24  O   UNL     1       1.699  -0.521  -3.034  0.00  0.00    -0.506 OA
ATOM     25  H   UNL     1       2.626  -0.752  -3.181  0.00  0.00    +0.292 HD
ENDBRANCH  21  24
ENDBRANCH   1  22
TORSDOF 3
