REMARK  Name = ZINC15465143
REMARK  10 active torsions:
REMARK  status: ('A' for Active; 'I' for Inactive)
REMARK    1  A    between atoms: C_1  and  C_2
REMARK    2  A    between atoms: C_5  and  C_31
REMARK    3  A    between atoms: C_6  and  N_8
REMARK    4  A    between atoms: C_10  and  C_15
REMARK    5  A    between atoms: N_17  and  C_18
REMARK    6  A    between atoms: C_23  and  C_24
REMARK    7  A    between atoms: N_26  and  C_27
REMARK    8  A    between atoms: C_27  and  C_28
REMARK    9  A    between atoms: C_27  and  C_29
REMARK   10  A    between atoms: C_27  and  C_30
REMARK                            x       y       z     vdW  Elec       q    Type
REMARK                         _______ _______ _______ _____ _____    ______ ____
ROOT
ATOM      1  C   UNL     1      -2.830   5.117   0.056  0.00  0.00    +0.222 C 
ATOM      2  O   UNL     1      -1.852   5.835   0.045  0.00  0.00    -0.275 OA
ATOM      3  N   UNL     1      -2.685   3.779  -0.013  0.00  0.00    -0.285 N 
ATOM      4  H   UNL     1      -3.467   3.210  -0.085  0.00  0.00    +0.155 HD
ENDROOT
BRANCH   1   7
ATOM      5  N   UNL     1      -4.113   7.593   1.646  0.00  0.00    -0.270 N 
ATOM      6  C   UNL     1      -4.131   7.264   0.215  0.00  0.00    +0.127 C 
ATOM      7  C   UNL     1      -4.207   5.723   0.147  0.00  0.00    +0.102 C 
ATOM      8  C   UNL     1      -4.874   5.380   1.500  0.00  0.00    +0.110 C 
ATOM      9  C   UNL     1      -4.531   6.554   2.390  0.00  0.00    +0.221 C 
ATOM     10  O   UNL     1      -4.620   6.558   3.600  0.00  0.00    -0.275 OA
BRANCH   5  16
ATOM     11  C   UNL     1      -5.258  12.159   3.062  0.00  0.00    +0.044 C 
ATOM     12  C   UNL     1      -4.247  11.059   2.864  0.00  0.00    -0.049 A 
ATOM     13  C   UNL     1      -2.922  11.270   3.199  0.00  0.00    +0.004 A 
ATOM     14  C   UNL     1      -1.992  10.264   3.019  0.00  0.00    +0.005 A 
ATOM     15  C   UNL     1      -2.383   9.043   2.504  0.00  0.00    -0.029 A 
ATOM     16  C   UNL     1      -3.713   8.828   2.167  0.00  0.00    +0.039 A 
ATOM     17  C   UNL     1      -4.644   9.843   2.344  0.00  0.00    +0.027 A 
ATOM     18  C   UNL     1      -1.369   7.946   2.308  0.00  0.00    +0.045 C 
ENDBRANCH   5  16
ENDBRANCH   1   7
BRANCH   3  19
ATOM     19  C   UNL     1      -1.413   3.214   0.021  0.00  0.00    +0.046 A 
ATOM     20  C   UNL     1      -0.363   3.893   0.626  0.00  0.00    +0.024 A 
ATOM     21  C   UNL     1       0.897   3.331   0.657  0.00  0.00    +0.002 A 
ATOM     22  C   UNL     1       1.125   2.088   0.087  0.00  0.00    +0.001 A 
ATOM     23  C   UNL     1       0.096   1.401  -0.518  0.00  0.00    +0.015 A 
ATOM     24  C   UNL     1      -1.184   1.959  -0.563  0.00  0.00    +0.058 A 
BRANCH  24  25
ATOM     25  C   UNL     1      -2.289   1.231  -1.214  0.00  0.00    +0.246 C 
ATOM     26  O   UNL     1      -3.377   1.759  -1.336  0.00  0.00    -0.270 OA
ATOM     27  N   UNL     1      -2.092  -0.021  -1.674  0.00  0.00    -0.307 N 
ATOM     28  H   UNL     1      -1.224  -0.443  -1.576  0.00  0.00    +0.150 HD
BRANCH  27  29
ATOM     29  C   UNL     1      -3.190  -0.744  -2.321  0.00  0.00    +0.026 C 
ATOM     30  C   UNL     1      -3.657   0.033  -3.553  0.00  0.00    +0.031 C 
ATOM     31  C   UNL     1      -2.705  -2.132  -2.746  0.00  0.00    +0.031 C 
ATOM     32  C   UNL     1      -4.354  -0.890  -1.338  0.00  0.00    +0.031 C 
ENDBRANCH  27  29
ENDBRANCH  24  25
ENDBRANCH   3  19
TORSDOF 5
