REMARK  Name = ZINC54649855
REMARK  10 active torsions:
REMARK  status: ('A' for Active; 'I' for Inactive)
REMARK    1  A    between atoms: C_1  and  N_2
REMARK    2  A    between atoms: N_2  and  C_3
REMARK    3  A    between atoms: N_2  and  C_21
REMARK    4  A    between atoms: C_3  and  C_4
REMARK    5  A    between atoms: C_4  and  C_5
REMARK    6  A    between atoms: C_5  and  N_6
REMARK    7  A    between atoms: N_9  and  C_10
REMARK    8  A    between atoms: C_10  and  C_11
REMARK    9  A    between atoms: N_13  and  C_14
REMARK   10  A    between atoms: C_21  and  C_22
REMARK                            x       y       z     vdW  Elec       q    Type
REMARK                         _______ _______ _______ _____ _____    ______ ____
ROOT
ATOM      1  N   UNL     1       5.459  -1.948   3.058  0.00  0.00    -0.299 N 
ATOM      2  C   UNL     1       5.957  -2.179   4.289  0.00  0.00    +0.300 C 
ATOM      3  O   UNL     1       5.204  -2.388   5.221  0.00  0.00    -0.253 OA
ATOM      4  N   UNL     1       7.290  -2.178   4.487  0.00  0.00    -0.291 N 
ATOM      5  H   UNL     1       6.059  -1.781   2.316  0.00  0.00    +0.150 HD
ATOM      6  H   UNL     1       7.891  -2.011   3.744  0.00  0.00    +0.151 HD
ENDROOT
BRANCH   1   7
ATOM      7  C   UNL     1       4.010  -1.949   2.843  0.00  0.00    +0.104 C 
BRANCH   7   8
ATOM      8  C   UNL     1       3.713  -1.663   1.370  0.00  0.00    +0.000 C 
BRANCH   8   9
ATOM      9  C   UNL     1       2.200  -1.664   1.145  0.00  0.00    -0.077 C 
BRANCH   9  11
ATOM     10  C   UNL     1       2.356  -0.029  -0.603  0.00  0.00    -0.096 C 
ATOM     11  N   UNL     1       1.915  -1.390  -0.270  0.00  0.00    +0.384 N 
ATOM     12  H   UNL     1       2.408  -2.054  -0.848  0.00  0.00    -0.082 HD
BRANCH  11  13
ATOM     13  C   UNL     1       0.470  -1.509  -0.511  0.00  0.00    +0.036 C 
BRANCH  13  14
ATOM     14  C   UNL     1       0.186  -1.332  -2.004  0.00  0.00    +0.376 C 
ATOM     15  F   UNL     1       0.974  -2.225  -2.738  0.00  0.00    -0.173 F 
ATOM     16  F   UNL     1      -1.166  -1.588  -2.255  0.00  0.00    -0.173 F 
ATOM     17  F   UNL     1       0.490  -0.021  -2.385  0.00  0.00    -0.173 F 
ENDBRANCH  13  14
ENDBRANCH  11  13
ENDBRANCH   9  11
ENDBRANCH   8   9
ENDBRANCH   7   8
ENDBRANCH   1   7
BRANCH   4  18
ATOM     18  C   UNL     1       7.832  -2.429   5.825  0.00  0.00    +0.202 C 
BRANCH  18  19
ATOM     19  C   UNL     1       9.337  -2.373   5.776  0.00  0.00    +0.234 C 
ATOM     20  O   UNL     1       9.902  -2.146   4.727  0.00  0.00    -0.274 OA
ATOM     21  N   UNL     1      10.056  -2.576   6.898  0.00  0.00    -0.284 N 
ATOM     22  H   UNL     1       9.610  -2.834   7.720  0.00  0.00    +0.155 HD
BRANCH  21  23
ATOM     23  C   UNL     1      11.446  -2.414   6.877  0.00  0.00    +0.034 A 
ATOM     24  C   UNL     1      12.254  -3.240   7.648  0.00  0.00    +0.025 A 
ATOM     25  C   UNL     1      13.625  -3.079   7.626  0.00  0.00    +0.022 A 
ATOM     26  C   UNL     1      14.195  -2.095   6.837  0.00  0.00    +0.041 A 
ATOM     27  C   UNL     1      13.392  -1.271   6.067  0.00  0.00    +0.022 A 
ATOM     28  C   UNL     1      12.020  -1.432   6.082  0.00  0.00    +0.025 A 
ATOM     29 CL   UNL     1      15.919  -1.894   6.811  0.00  0.00    -0.084 Cl
ENDBRANCH  21  23
ENDBRANCH  18  19
ENDBRANCH   4  18
TORSDOF 9
