REMARK  Name = ZINC40999799
REMARK  7 active torsions:
REMARK  status: ('A' for Active; 'I' for Inactive)
REMARK    1  A    between atoms: C_1  and  C_2
REMARK    2  A    between atoms: C_2  and  O_3
REMARK    3  A    between atoms: O_3  and  C_4
REMARK    4  A    between atoms: C_9  and  C_10
REMARK    5  A    between atoms: C_12  and  C_15
REMARK    6  A    between atoms: C_15  and  N_16
REMARK    7  A    between atoms: C_18  and  C_21
REMARK                            x       y       z     vdW  Elec       q    Type
REMARK                         _______ _______ _______ _____ _____    ______ ____
ROOT
ATOM      1  C   UNL     1       0.777  -1.810  -1.336  0.00  0.00    +0.131 A 
ATOM      2  C   UNL     1       0.245  -2.671  -0.390  0.00  0.00    +0.053 A 
ATOM      3  C   UNL     1       0.353  -4.035  -0.557  0.00  0.00    +0.001 A 
ATOM      4  C   UNL     1       0.986  -4.573  -1.673  0.00  0.00    +0.125 A 
ATOM      5  C   UNL     1       1.526  -3.716  -2.623  0.00  0.00    +0.060 A 
ATOM      6  C   UNL     1       1.419  -2.336  -2.463  0.00  0.00    +0.052 A 
ATOM      7  O   UNL     1       0.958  -5.935  -1.645  0.00  0.00    -0.488 OA
ATOM      8  C   UNL     1       0.700  -6.376  -0.301  0.00  0.00    +0.175 C 
ATOM      9  C   UNL     1      -0.110  -5.201   0.296  0.00  0.00    +0.083 C 
ATOM     10  C   UNL     1       2.010  -6.581   0.463  0.00  0.00    +0.052 C 
ENDROOT
BRANCH   6  11
ATOM     11  C   UNL     1       1.989  -1.427  -3.480  0.00  0.00    +0.112 A 
ATOM     12  N   UNL     1       2.623  -1.718  -4.607  0.00  0.00    -0.246 NA
ATOM     13  C   UNL     1       3.067  -0.773  -5.403  0.00  0.00    +0.032 A 
ATOM     14  C   UNL     1       2.879   0.532  -5.074  0.00  0.00    +0.068 A 
ATOM     15  S   UNL     1       2.002   0.360  -3.526  0.00  0.00    -0.075 S 
BRANCH  13  16
ATOM     16  C   UNL     1       3.785  -1.135  -6.677  0.00  0.00    -0.029 C 
BRANCH  16  17
ATOM     17  N   UNL     1       5.207  -1.366  -6.390  0.00  0.00    +0.382 N 
ATOM     18  H   UNL     1       5.613  -0.528  -6.002  0.00  0.00    -0.090 HD
ATOM     19  H   UNL     1       5.298  -2.122  -5.727  0.00  0.00    -0.090 HD
ATOM     20  H   UNL     1       5.688  -1.608  -7.243  0.00  0.00    -0.090 HD
ENDBRANCH  16  17
ENDBRANCH  13  16
ENDBRANCH   6  11
BRANCH   1  21
ATOM     21  O   UNL     1       0.671  -0.465  -1.174  0.00  0.00    -0.492 OA
BRANCH  21  23
ATOM     22  C   UNL     1      -0.019   1.526   0.010  0.00  0.00    +0.048 C 
ATOM     23  C   UNL     1       0.002  -0.004   0.002  0.00  0.00    +0.226 C 
ENDBRANCH  21  23
ENDBRANCH   1  21
TORSDOF 5
