REMARK  Name = ZINC39324249
REMARK  7 active torsions:
REMARK  status: ('A' for Active; 'I' for Inactive)
REMARK    1  A    between atoms: C_1  and  C_2
REMARK    2  A    between atoms: C_2  and  C_3
REMARK    3  A    between atoms: C_2  and  C_4
REMARK    4  A    between atoms: C_2  and  C_5
REMARK    5  A    between atoms: C_12  and  N_26
REMARK    6  A    between atoms: C_13  and  C_24
REMARK    7  A    between atoms: C_14  and  C_16
REMARK                            x       y       z     vdW  Elec       q    Type
REMARK                         _______ _______ _______ _____ _____    ______ ____
ROOT
ATOM      1  C   UNL     1       0.757  -0.448  -1.993  0.00  0.00    +0.049 A 
ATOM      2  C   UNL     1       0.847  -1.728  -2.383  0.00  0.00    +0.050 A 
ATOM      3  C   UNL     1       1.547  -1.764  -3.609  0.00  0.00    +0.245 A 
ATOM      4  N   UNL     1       1.857  -0.543  -3.932  0.00  0.00    -0.135 NA
ATOM      5  N   UNL     1       1.367   0.312  -2.932  0.00  0.00    -0.277 N 
ATOM      6  H   UNL     1       1.452   1.278  -2.916  0.00  0.00    +0.189 HD
ATOM      7  O   UNL     1       1.802  -2.932  -4.259  0.00  0.00    -0.421 OA
ATOM      8  C   UNL     1       1.610  -4.077  -3.576  0.00  0.00    +0.201 C 
ATOM      9  C   UNL     1       0.948  -4.167  -2.404  0.00  0.00    +0.098 C 
ATOM     10  C   UNL     1       0.333  -2.977  -1.713  0.00  0.00    +0.104 C 
ENDROOT
BRANCH  10  11
ATOM     11  C   UNL     1      -1.168  -3.038  -1.835  0.00  0.00    +0.001 A 
ATOM     12  C   UNL     1      -1.767  -2.897  -3.073  0.00  0.00    +0.008 A 
ATOM     13  C   UNL     1      -3.143  -2.953  -3.186  0.00  0.00    +0.016 A 
ATOM     14  C   UNL     1      -3.923  -3.151  -2.060  0.00  0.00    +0.021 A 
ATOM     15  C   UNL     1      -3.326  -3.292  -0.821  0.00  0.00    +0.054 A 
ATOM     16  C   UNL     1      -1.946  -3.241  -0.709  0.00  0.00    +0.129 A 
ATOM     17  F   UNL     1      -1.361  -3.385   0.500  0.00  0.00    -0.205 F 
ATOM     18 BR   UNL     1      -5.806  -3.228  -2.216  0.00  0.00    -0.050 Br
ENDBRANCH  10  11
BRANCH   1  20
ATOM     19  C   UNL     1       0.348   1.556  -0.590  0.00  0.00    +0.017 C 
ATOM     20  C   UNL     1       0.090   0.055  -0.738  0.00  0.00    +0.004 C 
ATOM     21  C   UNL     1       0.663  -0.683   0.474  0.00  0.00    +0.017 C 
ATOM     22  C   UNL     1      -1.416  -0.198  -0.824  0.00  0.00    +0.017 C 
ENDBRANCH   1  20
BRANCH   8  23
ATOM     23  N   UNL     1       2.123  -5.233  -4.110  0.00  0.00    -0.328 N 
ATOM     24  H   UNL     1       2.604  -5.207  -4.952  0.00  0.00    +0.145 HD
ATOM     25  H   UNL     1       2.003  -6.077  -3.646  0.00  0.00    +0.145 HD
ENDBRANCH   8  23
BRANCH   9  26
ATOM     26  C   UNL     1       0.824  -5.454  -1.787  0.00  0.00    +0.101 C 
ATOM     27  N   UNL     1       0.726  -6.474  -1.297  0.00  0.00    -0.191 NA
ENDBRANCH   9  26
TORSDOF 4
