REMARK  Name = ZINC52815817
REMARK  3 active torsions:
REMARK  status: ('A' for Active; 'I' for Inactive)
REMARK    1  A    between atoms: C_1  and  C_2
REMARK    2  A    between atoms: C_2  and  C_4
REMARK    3  A    between atoms: C_2  and  N_12
REMARK                            x       y       z     vdW  Elec       q    Type
REMARK                         _______ _______ _______ _____ _____    ______ ____
ROOT
ATOM      1  C   UNL     1       0.018   1.525   0.058  0.00  0.00    +0.033 C 
ATOM      2  C   UNL     1       0.002  -0.004   0.002  0.00  0.00    +0.100 C 
ENDROOT
BRANCH   2   3
ATOM      3  C   UNL     1      -1.416  -0.486  -0.162  0.00  0.00    -0.009 A 
ATOM      4  C   UNL     1      -1.925  -0.720  -1.425  0.00  0.00    +0.008 A 
ATOM      5  C   UNL     1      -3.226  -1.163  -1.576  0.00  0.00    +0.020 A 
ATOM      6  C   UNL     1      -4.019  -1.372  -0.462  0.00  0.00    +0.042 A 
ATOM      7  C   UNL     1      -3.510  -1.139   0.803  0.00  0.00    +0.040 A 
ATOM      8  C   UNL     1      -2.207  -0.701   0.954  0.00  0.00    +0.047 A 
ATOM      9 CL   UNL     1      -1.565  -0.413   2.541  0.00  0.00    -0.083 Cl
ATOM     10 CL   UNL     1      -5.653  -1.927  -0.651  0.00  0.00    -0.083 Cl
ENDBRANCH   2   3
BRANCH   2  11
ATOM     11  N   UNL     1       0.807  -0.460  -1.134  0.00  0.00    -0.321 N 
ATOM     12  C   UNL     1       2.180  -0.626  -0.991  0.00  0.00    +0.142 A 
ATOM     13  C   UNL     1       2.794  -0.366   0.234  0.00  0.00    +0.047 A 
ATOM     14  C   UNL     1       4.164  -0.547   0.324  0.00  0.00    +0.025 A 
ATOM     15  C   UNL     1       4.842  -0.977  -0.809  0.00  0.00    +0.135 A 
ATOM     16  N   UNL     1       4.181  -1.199  -1.927  0.00  0.00    -0.156 NA
ATOM     17  N   UNL     1       2.911  -1.038  -2.017  0.00  0.00    -0.134 NA
ATOM     18  H   UNL     1       0.382  -0.645  -1.986  0.00  0.00    +0.148 HD
ENDBRANCH   2  11
TORSDOF 2
