REMARK  Name = ZINC16646957
REMARK  6 active torsions:
REMARK  status: ('A' for Active; 'I' for Inactive)
REMARK    1  A    between atoms: C_1  and  C_2
REMARK    2  A    between atoms: C_5  and  N_9
REMARK    3  A    between atoms: C_6  and  C_8
REMARK    4  A    between atoms: N_20  and  C_29
REMARK    5  A    between atoms: N_22  and  C_23
REMARK    6  A    between atoms: C_29  and  C_30
REMARK                            x       y       z     vdW  Elec       q    Type
REMARK                         _______ _______ _______ _____ _____    ______ ____
ROOT
ATOM      1  N   UNL     1       5.917   0.177  -0.270  0.00  0.00    -0.269 N 
ATOM      2  C   UNL     1       5.014   0.600   0.637  0.00  0.00    +0.306 C 
ATOM      3  O   UNL     1       5.207   0.408   1.822  0.00  0.00    -0.252 OA
ATOM      4  N   UNL     1       3.897   1.236   0.231  0.00  0.00    -0.285 N 
ATOM      5  C   UNL     1       2.951   1.786   1.210  0.00  0.00    +0.112 C 
ATOM      6  C   UNL     1       1.554   1.228   0.914  0.00  0.00    +0.054 C 
ATOM      7  C   UNL     1       1.198   1.502  -0.544  0.00  0.00    +0.115 C 
ATOM      8  C   UNL     1       2.202   0.835  -1.479  0.00  0.00    +0.054 C 
ATOM      9  C   UNL     1       3.603   1.391  -1.201  0.00  0.00    +0.112 C 
ATOM     10  C   UNL     1       1.145   2.988  -0.802  0.00  0.00    +0.241 C 
ATOM     11  O   UNL     1       1.959   3.804  -0.424  0.00  0.00    -0.273 OA
ATOM     12  N   UNL     1       0.036   3.255  -1.525  0.00  0.00    -0.275 N 
ATOM     13  C   UNL     1      -0.685   2.006  -1.798  0.00  0.00    +0.217 C 
ATOM     14  N   UNL     1      -0.166   1.010  -0.832  0.00  0.00    -0.300 N 
ATOM     15  H   UNL     1       5.775   0.353  -1.214  0.00  0.00    +0.156 HD
ENDROOT
BRANCH   1  20
ATOM     16  C   UNL     1      10.544  -2.630   1.430  0.00  0.00    +0.044 C 
ATOM     17  C   UNL     1       9.315  -1.884   0.979  0.00  0.00    -0.050 A 
ATOM     18  C   UNL     1       8.666  -1.031   1.852  0.00  0.00    +0.005 A 
ATOM     19  C   UNL     1       7.539  -0.346   1.441  0.00  0.00    +0.024 A 
ATOM     20  C   UNL     1       7.058  -0.515   0.149  0.00  0.00    +0.038 A 
ATOM     21  C   UNL     1       7.710  -1.376  -0.724  0.00  0.00    -0.029 A 
ATOM     22  C   UNL     1       8.839  -2.054  -0.308  0.00  0.00    +0.008 A 
ATOM     23  C   UNL     1       7.188  -1.566  -2.125  0.00  0.00    +0.045 C 
ENDBRANCH   1  20
BRANCH  14  24
ATOM     24  C   UNL     1      -0.128  -0.266  -1.400  0.00  0.00    +0.032 A 
ATOM     25  C   UNL     1      -0.653  -0.479  -2.668  0.00  0.00    +0.023 A 
ATOM     26  C   UNL     1      -0.609  -1.740  -3.229  0.00  0.00    +0.002 A 
ATOM     27  C   UNL     1      -0.053  -2.793  -2.525  0.00  0.00    +0.000 A 
ATOM     28  C   UNL     1       0.465  -2.585  -1.260  0.00  0.00    +0.002 A 
ATOM     29  C   UNL     1       0.429  -1.325  -0.696  0.00  0.00    +0.023 A 
ENDBRANCH  14  24
BRANCH  12  30
ATOM     30  C   UNL     1      -0.383   4.587  -1.969  0.00  0.00    +0.205 C 
BRANCH  30  31
ATOM     31  C   UNL     1       0.217   4.878  -3.321  0.00  0.00    +0.233 C 
ATOM     32  O   UNL     1       0.924   4.053  -3.860  0.00  0.00    -0.274 OA
ATOM     33  N   UNL     1      -0.033   6.053  -3.930  0.00  0.00    -0.300 N 
ATOM     34  C   UNL     1      -0.893   7.059  -3.292  0.00  0.00    +0.108 C 
ATOM     35  C   UNL     1      -0.127   8.390  -3.232  0.00  0.00    +0.019 C 
ATOM     36  C   UNL     1       0.341   8.766  -4.640  0.00  0.00    +0.003 C 
ATOM     37  C   UNL     1       1.289   7.688  -5.169  0.00  0.00    +0.019 C 
ATOM     38  C   UNL     1       0.544   6.351  -5.248  0.00  0.00    +0.108 C 
ENDBRANCH  30  31
ENDBRANCH  12  30
TORSDOF 4
