REMARK  Name = ZINC58319383
REMARK  10 active torsions:
REMARK  status: ('A' for Active; 'I' for Inactive)
REMARK    1  A    between atoms: C_1  and  C_2
REMARK    2  A    between atoms: C_2  and  C_3
REMARK    3  A    between atoms: C_3  and  N_4
REMARK    4  A    between atoms: N_7  and  C_8
REMARK    5  A    between atoms: C_8  and  C_9
REMARK    6  A    between atoms: C_8  and  C_10
REMARK    7  A    between atoms: C_8  and  C_11
REMARK    8  A    between atoms: N_13  and  C_14
REMARK    9  A    between atoms: C_18  and  C_20
REMARK   10  A    between atoms: C_26  and  C_28
REMARK                            x       y       z     vdW  Elec       q    Type
REMARK                         _______ _______ _______ _____ _____    ______ ____
ROOT
ATOM      1  C   UNL     1      -3.515  -6.263   0.004  0.00  0.00    +0.240 C 
ATOM      2  O   UNL     1      -4.229  -7.028   0.616  0.00  0.00    -0.273 OA
ATOM      3  N   UNL     1      -2.453  -6.733  -0.680  0.00  0.00    -0.284 N 
ATOM      4  H   UNL     1      -1.921  -6.131  -1.224  0.00  0.00    +0.155 HD
ENDROOT
BRANCH   3   5
ATOM      5  C   UNL     1      -2.117  -8.089  -0.606  0.00  0.00    +0.034 A 
ATOM      6  C   UNL     1      -0.783  -8.477  -0.626  0.00  0.00    +0.023 A 
ATOM      7  C   UNL     1      -0.446  -9.816  -0.553  0.00  0.00    +0.002 A 
ATOM      8  C   UNL     1      -1.432 -10.777  -0.458  0.00  0.00    +0.011 A 
ATOM      9  C   UNL     1      -2.776 -10.398  -0.436  0.00  0.00    +0.019 A 
ATOM     10  C   UNL     1      -3.115  -9.046  -0.505  0.00  0.00    +0.034 A 
BRANCH   9  11
ATOM     11  C   UNL     1      -3.834 -11.424  -0.335  0.00  0.00    +0.141 A 
ATOM     12  N   UNL     1      -3.486 -12.739  -0.258  0.00  0.00    -0.307 N 
ATOM     13  H   UNL     1      -2.551 -12.997  -0.269  0.00  0.00    +0.170 HD
ATOM     14  C   UNL     1      -4.448 -13.682  -0.165  0.00  0.00    +0.252 A 
ATOM     15  O   UNL     1      -4.155 -14.864  -0.095  0.00  0.00    -0.268 OA
ATOM     16  C   UNL     1      -5.796 -13.273  -0.151  0.00  0.00    +0.093 A 
ATOM     17  C   UNL     1      -6.082 -11.942  -0.231  0.00  0.00    +0.046 A 
ATOM     18  N   UNL     1      -5.097 -11.051  -0.316  0.00  0.00    -0.234 NA
ATOM     19  C   UNL     1      -7.516 -11.479  -0.218  0.00  0.00    +0.066 C 
ENDBRANCH   9  11
ENDBRANCH   3   5
BRANCH   1  20
ATOM     20  C   UNL     1      -3.815  -4.786   0.008  0.00  0.00    +0.107 C 
ATOM     21  C   UNL     1      -4.606  -4.430   1.268  0.00  0.00    +0.041 C 
ATOM     22  C   UNL     1      -4.640  -4.430  -1.231  0.00  0.00    +0.041 C 
BRANCH  20  26
ATOM     23  N   UNL     1      -1.425  -1.992  -0.025  0.00  0.00    -0.299 N 
ATOM     24  C   UNL     1      -2.581  -2.685  -0.009  0.00  0.00    +0.300 C 
ATOM     25  O   UNL     1      -3.644  -2.095   0.005  0.00  0.00    -0.253 OA
ATOM     26  N   UNL     1      -2.559  -4.032  -0.009  0.00  0.00    -0.286 N 
ATOM     27  H   UNL     1      -0.577  -2.463  -0.036  0.00  0.00    +0.150 HD
ATOM     28  H   UNL     1      -1.711  -4.503  -0.021  0.00  0.00    +0.151 HD
BRANCH  23  29
ATOM     29  C   UNL     1      -1.450  -0.527  -0.024  0.00  0.00    +0.105 C 
BRANCH  29  31
ATOM     30  C   UNL     1      -0.041   1.537  -0.043  0.00  0.00    +0.005 C 
ATOM     31  C   UNL     1      -0.016   0.007  -0.043  0.00  0.00    +0.015 C 
ENDBRANCH  29  31
ENDBRANCH  23  29
ENDBRANCH  20  26
ENDBRANCH   1  20
TORSDOF 6
