REMARK  Name = ZINC33512705
REMARK  7 active torsions:
REMARK  status: ('A' for Active; 'I' for Inactive)
REMARK    1  A    between atoms: C_1  and  C_2
REMARK    2  A    between atoms: C_2  and  C_3
REMARK    3  A    between atoms: C_3  and  C_5
REMARK    4  A    between atoms: C_3  and  N_11
REMARK    5  A    between atoms: N_7  and  C_8
REMARK    6  A    between atoms: C_8  and  C_9
REMARK    7  A    between atoms: C_9  and  N_10
REMARK                            x       y       z     vdW  Elec       q    Type
REMARK                         _______ _______ _______ _____ _____    ______ ____
ROOT
ATOM      1  C   UNL     1       1.095   3.523   0.010  0.00  0.00    +0.175 C 
ENDROOT
BRANCH   1   2
ATOM      2  N   UNL     1       1.142   2.059   0.002  0.00  0.00    -0.302 N 
ATOM      3  C   UNL     1      -0.016   1.350   0.009  0.00  0.00    +0.105 A 
ATOM      4  C   UNL     1       0.002  -0.004   0.002  0.00  0.00    +0.034 A 
ATOM      5  C   UNL     1       1.227  -0.687  -0.013  0.00  0.00    +0.022 A 
ATOM      6  C   UNL     1       2.389   0.027  -0.021  0.00  0.00    +0.071 A 
ATOM      7  C   UNL     1       2.333   1.431  -0.013  0.00  0.00    +0.252 A 
ATOM      8  O   UNL     1       3.366   2.082  -0.019  0.00  0.00    -0.268 OA
ATOM      9 BR   UNL     1      -1.622  -0.973   0.013  0.00  0.00    -0.049 Br
ENDBRANCH   1   2
BRANCH   1  10
ATOM     10  C   UNL     1       1.777   4.054  -1.224  0.00  0.00    +0.236 C 
ATOM     11  O   UNL     1       2.256   3.285  -2.031  0.00  0.00    -0.274 OA
ATOM     12  N   UNL     1       1.856   5.384  -1.431  0.00  0.00    -0.315 N 
ATOM     13  H   UNL     1       1.422   6.081  -0.700  0.00  0.00    +0.149 HD
BRANCH  12  14
ATOM     14  C   UNL     1       2.519   5.900  -2.631  0.00  0.00    +0.085 C 
BRANCH  14  15
ATOM     15  C   UNL     1       2.470   7.429  -2.623  0.00  0.00    -0.067 C 
BRANCH  15  16
ATOM     16  N   UNL     1       3.135   7.947  -3.826  0.00  0.00    +0.379 N 
ATOM     17  H   UNL     1       3.100   9.046  -3.820  0.00  0.00    -0.090 HD
ATOM     18  H   UNL     1       2.620   7.568  -4.721  0.00  0.00    -0.090 HD
ATOM     19  H   UNL     1       4.184   7.614  -3.838  0.00  0.00    -0.090 HD
ENDBRANCH  15  16
ENDBRANCH  14  15
ENDBRANCH  12  14
ENDBRANCH   1  10
BRANCH   1  21
ATOM     20  C   UNL     1       1.046   3.613   2.506  0.00  0.00    +0.006 C 
ATOM     21  C   UNL     1       1.811   4.050   1.255  0.00  0.00    +0.031 C 
ENDBRANCH   1  21
TORSDOF 6
