REMARK  Name = ZINC06225313
REMARK  5 active torsions:
REMARK  status: ('A' for Active; 'I' for Inactive)
REMARK    1  A    between atoms: C_3  and  O_9
REMARK    2  A    between atoms: C_6  and  C_7
REMARK    3  A    between atoms: O_9  and  C_10
REMARK    4  A    between atoms: C_10  and  C_12
REMARK    5  A    between atoms: C_15  and  O_19
REMARK                            x       y       z     vdW  Elec       q    Type
REMARK                         _______ _______ _______ _____ _____    ______ ____
ROOT
ATOM      1  C   UNL     1       5.090   3.272  -0.023  0.00  0.00    +0.346 C 
ATOM      2  O   UNL     1       5.646   3.497  -1.080  0.00  0.00    -0.244 OA
ENDROOT
BRANCH   1   3
ATOM      3  C   UNL     1       3.753   2.653  -0.011  0.00  0.00    +0.078 A 
ATOM      4  C   UNL     1       3.111   2.394   1.205  0.00  0.00    +0.020 A 
ATOM      5  C   UNL     1       1.859   1.821   1.212  0.00  0.00    +0.046 A 
ATOM      6  C   UNL     1       1.237   1.490   0.013  0.00  0.00    +0.118 A 
ATOM      7  C   UNL     1       1.870   1.744  -1.197  0.00  0.00    +0.066 A 
ATOM      8  C   UNL     1       3.121   2.323  -1.215  0.00  0.00    +0.058 A 
ATOM      9 CL   UNL     1       3.911   2.642  -2.727  0.00  0.00    -0.083 Cl
BRANCH   6  10
ATOM     10  O   UNL     1       0.005   0.920   0.025  0.00  0.00    -0.507 OA
ATOM     11  H   UNL     1       0.019  -0.046   0.054  0.00  0.00    +0.292 HD
ENDBRANCH   6  10
ENDBRANCH   1   3
BRANCH   1  12
ATOM     12  O   UNL     1       5.697   3.589   1.139  0.00  0.00    -0.422 OA
BRANCH  12  15
ATOM     13  C   UNL     1       8.483   5.858   0.590  0.00  0.00    +0.022 A 
ATOM     14  C   UNL     1       7.196   5.375   0.670  0.00  0.00    +0.047 A 
ATOM     15  C   UNL     1       6.968   4.061   1.061  0.00  0.00    +0.132 A 
ATOM     16  C   UNL     1       8.036   3.231   1.379  0.00  0.00    +0.047 A 
ATOM     17  C   UNL     1       9.327   3.704   1.297  0.00  0.00    +0.022 A 
ATOM     18  C   UNL     1       9.561   5.024   0.903  0.00  0.00    +0.052 A 
BRANCH  18  19
ATOM     19  C   UNL     1      10.901   5.522   0.821  0.00  0.00    +0.099 C 
ATOM     20  N   UNL     1      11.964   5.917   0.756  0.00  0.00    -0.191 NA
ENDBRANCH  18  19
ENDBRANCH  12  15
ENDBRANCH   1  12
TORSDOF 5
