REMARK  Name = ZINC13518271
REMARK  10 active torsions:
REMARK  status: ('A' for Active; 'I' for Inactive)
REMARK    1  A    between atoms: C_3  and  C_26
REMARK    2  A    between atoms: C_4  and  O_9
REMARK    3  A    between atoms: C_6  and  C_7
REMARK    4  A    between atoms: O_9  and  C_10
REMARK    5  A    between atoms: C_10  and  C_11
REMARK    6  A    between atoms: C_11  and  N_12
REMARK    7  A    between atoms: C_13  and  C_15
REMARK    8  A    between atoms: N_18  and  C_21
REMARK    9  A    between atoms: C_26  and  C_27
REMARK   10  A    between atoms: C_27  and  C_29
REMARK                            x       y       z     vdW  Elec       q    Type
REMARK                         _______ _______ _______ _____ _____    ______ ____
ROOT
ATOM      1  O   UNL     1      -2.677   0.262   3.807  0.00  0.00    -0.490 OA
ENDROOT
BRANCH   1   5
ATOM      2  C   UNL     1      -3.584  -0.013  -0.217  0.00  0.00    +0.012 A 
ATOM      3  C   UNL     1      -2.572   0.823   0.210  0.00  0.00    +0.008 A 
ATOM      4  C   UNL     1      -2.271   0.918   1.556  0.00  0.00    +0.002 A 
ATOM      5  C   UNL     1      -2.981   0.169   2.485  0.00  0.00    +0.125 A 
ATOM      6  C   UNL     1      -4.002  -0.667   2.067  0.00  0.00    +0.057 A 
ATOM      7  C   UNL     1      -4.306  -0.764   0.710  0.00  0.00    +0.016 A 
BRANCH   7   8
ATOM      8  C   UNL     1      -5.393  -1.661   0.254  0.00  0.00    +0.094 C 
ATOM      9  N   UNL     1      -5.692  -1.755  -1.088  0.00  0.00    -0.345 N 
ATOM     10  H   UNL     1      -6.795  -2.978   0.921  0.00  0.00    +0.157 HD
ATOM     11  H   UNL     1      -5.191  -1.233  -1.734  0.00  0.00    +0.144 HD
ATOM     12  H   UNL     1      -6.403  -2.343  -1.386  0.00  0.00    +0.144 HD
ATOM     13  N   UNL     1      -6.038  -2.346   1.185  0.00  0.00    -0.387 N 
ATOM     14  H   UNL     1      -5.778  -2.242   2.173  0.00  0.00    +0.157 HD
ENDBRANCH   7   8
BRANCH   4  15
ATOM     15  C   UNL     1      -1.165   1.832   2.015  0.00  0.00    +0.125 C 
BRANCH  15  16
ATOM     16  C   UNL     1       0.113   1.045   2.152  0.00  0.00    +0.248 C 
ATOM     17  O   UNL     1       0.124  -0.137   1.903  0.00  0.00    -0.285 OA
BRANCH  16  18
ATOM     18  C   UNL     1       1.365   1.726   2.590  0.00  0.00    +0.422 C 
ATOM     19  O   UNL     1       1.353   2.912   2.841  0.00  0.00    -0.237 OA
ATOM     20  O   UNL     1       2.507   1.024   2.707  0.00  0.00    -0.237 OA
ENDBRANCH  16  18
ENDBRANCH  15  16
ENDBRANCH   4  15
ENDBRANCH   1   5
BRANCH   1  21
ATOM     21  C   UNL     1      -3.448  -0.537   4.707  0.00  0.00    +0.247 C 
BRANCH  21  22
ATOM     22  C   UNL     1      -2.965  -0.301   6.140  0.00  0.00    +0.145 C 
BRANCH  22  23
ATOM     23  N   UNL     1      -3.235   1.087   6.524  0.00  0.00    -0.312 N 
ATOM     24  C   UNL     1      -2.893   1.525   7.751  0.00  0.00    +0.216 C 
ATOM     25  O   UNL     1      -2.361   0.771   8.538  0.00  0.00    -0.276 OA
ATOM     26  H   UNL     1      -3.661   1.690   5.894  0.00  0.00    +0.149 HD
BRANCH  24  27
ATOM     27  C   UNL     1      -3.171   2.953   8.146  0.00  0.00    +0.078 C 
ATOM     28  C   UNL     1      -2.430   3.900   7.199  0.00  0.00    +0.031 C 
ATOM     29  C   UNL     1      -2.665   5.345   7.643  0.00  0.00    +0.106 C 
ATOM     30  N   UNL     1      -2.183   5.522   9.018  0.00  0.00    -0.330 N 
ATOM     31  C   UNL     1      -2.915   4.657   9.953  0.00  0.00    +0.106 C 
ATOM     32  C   UNL     1      -2.685   3.191   9.579  0.00  0.00    +0.031 C 
BRANCH  30  33
ATOM     33  C   UNL     1      -2.263   6.856   9.407  0.00  0.00    +0.032 A 
ATOM     34  C   UNL     1      -2.974   7.228  10.548  0.00  0.00    +0.040 A 
ATOM     35  C   UNL     1      -3.024   8.560  10.902  0.00  0.00    +0.084 A 
ATOM     36  C   UNL     1      -1.742   9.167   9.082  0.00  0.00    +0.084 A 
ATOM     37  C   UNL     1      -1.639   7.857   8.662  0.00  0.00    +0.040 A 
ATOM     38  N   UNL     1      -2.424   9.555  10.193  0.00  0.00    -0.367 N 
ATOM     39  H   UNL     1      -2.483  10.539  10.480  0.00  0.00    +0.165 HD
ENDBRANCH  30  33
ENDBRANCH  24  27
ENDBRANCH  22  23
ENDBRANCH  21  22
ENDBRANCH   1  21
TORSDOF 10
