REMARK  Name = ZINC17109323
REMARK  8 active torsions:
REMARK  status: ('A' for Active; 'I' for Inactive)
REMARK    1  A    between atoms: C_1  and  C_2
REMARK    2  A    between atoms: C_3  and  C_4
REMARK    3  A    between atoms: C_4  and  N_5
REMARK    4  A    between atoms: N_12  and  C1*_15
REMARK    5  A    between atoms: C2*_17  and  O2*_27
REMARK    6  A    between atoms: C3*_19  and  O3*_26
REMARK    7  A    between atoms: C4*_21  and  C5*_24
REMARK    8  A    between atoms: C5*_24  and  O5*_25
REMARK                            x       y       z     vdW  Elec       q    Type
REMARK                         _______ _______ _______ _____ _____    ______ ____
ROOT
ATOM      1  N   UNL     1      -0.698   1.558   1.213  0.00  0.00    -0.324 N 
ATOM      2  C   UNL     1      -0.209   1.224   2.464  0.00  0.00    +0.150 A 
ATOM      3  C   UNL     1      -0.854   1.668   3.631  0.00  0.00    +0.147 A 
ATOM      4  C   UNL     1      -0.310   1.296   4.872  0.00  0.00    +0.167 A 
ATOM      5  N   UNL     1       0.785   0.544   4.898  0.00  0.00    -0.216 NA
ATOM      6  C   UNL     1       1.356   0.151   3.779  0.00  0.00    +0.225 A 
ATOM      7  N   UNL     1       0.878   0.470   2.589  0.00  0.00    -0.219 NA
ATOM      8  N   UNL     1      -1.124   1.856   5.824  0.00  0.00    -0.286 N 
ATOM      9  C   UNL     1      -2.111   2.533   5.172  0.00  0.00    +0.203 A 
ATOM     10  N   UNL     1      -1.951   2.422   3.885  0.00  0.00    -0.231 NA
ATOM     11  H   UNL     1      -0.712   2.558   1.219  0.00  0.00    +0.148 HD
ENDROOT
BRANCH   8  12
ATOM     12  C1* UNL     1      -0.962   1.746   7.276  0.00  0.00    +0.253 C 
ATOM     13  C2* UNL     1      -1.617   0.445   7.793  0.00  0.00    +0.195 C 
ATOM     14  C3* UNL     1      -2.229   0.848   9.153  0.00  0.00    +0.178 C 
ATOM     15  C4* UNL     1      -1.871   2.344   9.297  0.00  0.00    +0.177 C 
ATOM     16  O4* UNL     1      -1.675   2.809   7.944  0.00  0.00    -0.346 OA
BRANCH  14  17
ATOM     17  O3* UNL     1      -3.646   0.669   9.137  0.00  0.00    -0.386 OA
ATOM     18  H3* UNL     1      -4.082   0.907   9.967  0.00  0.00    +0.210 HD
ENDBRANCH  14  17
BRANCH  13  19
ATOM     19  O2* UNL     1      -0.632  -0.575   7.970  0.00  0.00    -0.385 OA
ATOM     20  H2* UNL     1      -0.988  -1.414   8.293  0.00  0.00    +0.210 HD
ENDBRANCH  13  19
BRANCH  15  21
ATOM     21  C5* UNL     1      -3.021   3.105   9.960  0.00  0.00    +0.190 C 
BRANCH  21  22
ATOM     22  O5* UNL     1      -2.627   4.459  10.190  0.00  0.00    -0.392 OA
ATOM     23  H5* UNL     1      -3.308   5.002  10.609  0.00  0.00    +0.210 HD
ENDBRANCH  21  22
ENDBRANCH  15  21
ENDBRANCH   8  12
BRANCH   1  24
ATOM     24  C   UNL     1      -0.013   1.086   0.008  0.00  0.00    +0.131 C 
BRANCH  24  27
ATOM     25  C   UNL     1      -0.826   2.769  -3.348  0.00  0.00    +0.057 C 
ATOM     26  C   UNL     1      -0.097   2.270  -2.127  0.00  0.00    +0.013 C 
ATOM     27  C   UNL     1      -0.742   1.585  -1.213  0.00  0.00    +0.007 C 
ATOM     28 CL   UNL     1       1.596   2.602  -1.931  0.00  0.00    -0.089 Cl
ENDBRANCH  24  27
ENDBRANCH   1  24
TORSDOF 7
