REMARK  Name = ZINC22066501
REMARK  14 active torsions:
REMARK  status: ('A' for Active; 'I' for Inactive)
REMARK    1  A    between atoms: C_1  and  C_2
REMARK    2  A    between atoms: C_4  and  O_39
REMARK    3  A    between atoms: C_6  and  O_35
REMARK    4  A    between atoms: C_8  and  O_34
REMARK    5  A    between atoms: C_10  and  O_13
REMARK    6  A    between atoms: O_13  and  C_14
REMARK    7  A    between atoms: C_18  and  O_33
REMARK    8  A    between atoms: C_20  and  O_32
REMARK    9  A    between atoms: C_24  and  C_25
REMARK   10  A    between atoms: C_28  and  O_31
REMARK   11  A    between atoms: O_35  and  C_36
REMARK   12  A    between atoms: C_36  and  C_38
REMARK   13  A    between atoms: O_39  and  C_40
REMARK   14  A    between atoms: C_40  and  C_42
REMARK                            x       y       z     vdW  Elec       q    Type
REMARK                         _______ _______ _______ _____ _____    ______ ____
ROOT
ATOM      1  C   UNL     1      -2.338  -0.134  -4.283  0.00  0.00    +0.214 A 
ATOM      2  C   UNL     1      -3.551  -0.857  -4.419  0.00  0.00    +0.238 A 
ATOM      3  O   UNL     1      -3.725  -1.918  -3.840  0.00  0.00    -0.283 OA
ATOM      4  C   UNL     1      -4.593  -0.276  -5.280  0.00  0.00    +0.109 A 
ATOM      5  C   UNL     1      -5.823  -0.920  -5.468  0.00  0.00    +0.135 A 
ATOM      6  C   UNL     1      -6.774  -0.346  -6.290  0.00  0.00    +0.091 A 
ATOM      7  C   UNL     1      -6.509   0.863  -6.926  0.00  0.00    +0.124 A 
ATOM      8  C   UNL     1      -5.295   1.506  -6.745  0.00  0.00    +0.092 A 
ATOM      9  C   UNL     1      -4.328   0.945  -5.924  0.00  0.00    +0.147 A 
ATOM     10  O   UNL     1      -3.140   1.558  -5.738  0.00  0.00    -0.451 OA
ATOM     11  C   UNL     1      -2.181   1.044  -4.950  0.00  0.00    +0.181 A 
ENDROOT
BRANCH  11  12
ATOM     12  C   UNL     1      -0.912   1.780  -4.803  0.00  0.00    +0.021 A 
ATOM     13  C   UNL     1      -0.925   3.149  -4.521  0.00  0.00    +0.015 A 
ATOM     14  C   UNL     1       0.263   3.831  -4.378  0.00  0.00    +0.046 A 
ATOM     15  C   UNL     1       1.473   3.164  -4.527  0.00  0.00    +0.117 A 
ATOM     16  C   UNL     1       1.490   1.804  -4.813  0.00  0.00    +0.046 A 
ATOM     17  C   UNL     1       0.307   1.112  -4.952  0.00  0.00    +0.015 A 
BRANCH  15  18
ATOM     18  O   UNL     1       2.642   3.842  -4.391  0.00  0.00    -0.507 OA
ATOM     19  H   UNL     1       3.600   3.315  -4.509  0.00  0.00    +0.292 HD
ENDBRANCH  15  18
ENDBRANCH  11  12
BRANCH   7  20
ATOM     20  O   UNL     1      -7.450   1.418  -7.732  0.00  0.00    -0.507 OA
ATOM     21  H   UNL     1      -7.247   2.374  -8.238  0.00  0.00    +0.292 HD
ENDBRANCH   7  20
BRANCH   5  22
ATOM     22  O   UNL     1      -6.079  -2.099  -4.846  0.00  0.00    -0.506 OA
ATOM     23  H   UNL     1      -7.046  -2.601  -4.996  0.00  0.00    +0.292 HD
ENDBRANCH   5  22
BRANCH   1  24
ATOM     24  O   UNL     1      -1.336  -0.615  -3.497  0.00  0.00    -0.453 OA
BRANCH  24  30
ATOM     25  C   UNL     1      -3.736  -1.085   0.569  0.00  0.00    +0.042 C 
ATOM     26  C   UNL     1      -2.516  -0.411  -0.062  0.00  0.00    +0.164 C 
ATOM     27  C   UNL     1      -1.250  -0.852   0.677  0.00  0.00    +0.248 C 
ATOM     28  C   UNL     1      -0.028  -0.221   0.002  0.00  0.00    +0.254 C 
ATOM     29  C   UNL     1      -0.007  -0.624  -1.476  0.00  0.00    +0.227 C 
ATOM     30  C   UNL     1      -1.323  -0.192  -2.132  0.00  0.00    +0.341 C 
ATOM     31  O   UNL     1      -2.420  -0.789  -1.437  0.00  0.00    -0.333 OA
BRANCH  29  32
ATOM     32  O   UNL     1       0.136  -2.042  -1.581  0.00  0.00    -0.382 OA
ATOM     33  H   UNL     1       0.171  -2.519  -2.572  0.00  0.00    +0.210 HD
ENDBRANCH  29  32
BRANCH  28  34
ATOM     34  O   UNL     1      -0.106   1.225   0.109  0.00  0.00    -0.455 OA
BRANCH  34  35
ATOM     35  C   UNL     1       1.055   1.897   0.157  0.00  0.00    +0.304 C 
ATOM     36  O   UNL     1       2.102   1.296   0.111  0.00  0.00    -0.251 OA
ATOM     37  C   UNL     1       1.052   3.400   0.269  0.00  0.00    +0.136 C 
ENDBRANCH  34  35
ENDBRANCH  28  34
BRANCH  27  38
ATOM     38  O   UNL     1      -1.138  -2.299   0.627  0.00  0.00    -0.455 OA
BRANCH  38  39
ATOM     39  C   UNL     1      -1.708  -2.988   1.627  0.00  0.00    +0.304 C 
ATOM     40  O   UNL     1      -2.282  -2.403   2.515  0.00  0.00    -0.251 OA
ATOM     41  C   UNL     1      -1.633  -4.493   1.643  0.00  0.00    +0.136 C 
ENDBRANCH  38  39
ENDBRANCH  27  38
ENDBRANCH  24  30
ENDBRANCH   1  24
TORSDOF 11
