REMARK  Name = ZINC09765991
REMARK  5 active torsions:
REMARK  status: ('A' for Active; 'I' for Inactive)
REMARK    1  A    between atoms: C_1  and  C_2
REMARK    2  A    between atoms: C_5  and  C_8
REMARK    3  A    between atoms: C_13  and  S_17
REMARK    4  A    between atoms: S_17  and  C_18
REMARK    5  A    between atoms: C_18  and  C_19
REMARK                            x       y       z     vdW  Elec       q    Type
REMARK                         _______ _______ _______ _____ _____    ______ ____
ROOT
ATOM      1  C   UNL     1       1.323  -0.302  -0.012  0.00  0.00    +0.001 A 
ATOM      2  C   UNL     1       0.016  -0.001   0.174  0.00  0.00    +0.056 A 
ATOM      3  S   UNL     1      -0.015   1.780   0.106  0.00  0.00    -0.076 S 
ATOM      4  C   UNL     1       1.711   2.080  -0.168  0.00  0.00    +0.113 A 
ATOM      5  C   UNL     1       2.274   0.788  -0.201  0.00  0.00    +0.047 A 
ATOM      6  C   UNL     1       3.678   0.739  -0.412  0.00  0.00    +0.109 A 
ATOM      7  N   UNL     1       4.349   1.871  -0.560  0.00  0.00    -0.229 NA
ATOM      8  C   UNL     1       3.756   3.050  -0.518  0.00  0.00    +0.223 A 
ATOM      9  N   UNL     1       2.455   3.158  -0.325  0.00  0.00    -0.228 NA
ENDROOT
BRANCH   1  14
ATOM     10  C   UNL     1       3.092  -5.781  -0.059  0.00  0.00    +0.044 C 
ATOM     11  C   UNL     1       2.629  -4.347  -0.047  0.00  0.00    -0.050 A 
ATOM     12  C   UNL     1       3.160  -3.460   0.872  0.00  0.00    +0.004 A 
ATOM     13  C   UNL     1       2.740  -2.145   0.888  0.00  0.00    +0.009 A 
ATOM     14  C   UNL     1       1.778  -1.712  -0.025  0.00  0.00    -0.017 A 
ATOM     15  C   UNL     1       1.243  -2.613  -0.945  0.00  0.00    +0.009 A 
ATOM     16  C   UNL     1       1.674  -3.924  -0.954  0.00  0.00    +0.004 A 
ENDBRANCH   1  14
BRANCH   6  17
ATOM     17  S   UNL     1       4.517  -0.809  -0.476  0.00  0.00    -0.096 S 
BRANCH  17  18
ATOM     18  C   UNL     1       6.211  -0.237  -0.757  0.00  0.00    +0.172 C 
BRANCH  18  19
ATOM     19  C   UNL     1       7.134  -1.425  -0.848  0.00  0.00    +0.230 C 
ATOM     20  O   UNL     1       6.690  -2.548  -0.735  0.00  0.00    -0.274 OA
ATOM     21  N   UNL     1       8.453  -1.240  -1.056  0.00  0.00    -0.260 N 
ATOM     22  C   UNL     1       9.016   0.111  -1.197  0.00  0.00    +0.209 C 
ATOM     23  C   UNL     1      10.028   0.107  -2.314  0.00  0.00    +0.235 C 
ATOM     24  O   UNL     1      10.222   1.121  -2.949  0.00  0.00    -0.274 OA
ATOM     25  N   UNL     1      10.718  -1.009  -2.616  0.00  0.00    -0.283 N 
ATOM     26  C   UNL     1      10.478  -2.206  -1.932  0.00  0.00    +0.055 A 
ATOM     27  C   UNL     1       9.333  -2.330  -1.139  0.00  0.00    +0.058 A 
ATOM     28  C   UNL     1       9.079  -3.507  -0.457  0.00  0.00    +0.025 A 
ATOM     29  C   UNL     1       9.969  -4.562  -0.555  0.00  0.00    +0.002 A 
ATOM     30  C   UNL     1      11.107  -4.442  -1.331  0.00  0.00    +0.002 A 
ATOM     31  C   UNL     1      11.363  -3.267  -2.028  0.00  0.00    +0.025 A 
ATOM     32  H   UNL     1      11.390  -0.983  -3.315  0.00  0.00    +0.155 HD
ENDBRANCH  18  19
ENDBRANCH  17  18
ENDBRANCH   6  17
TORSDOF 4
