REMARK  Name = ZINC43726732
REMARK  11 active torsions:
REMARK  status: ('A' for Active; 'I' for Inactive)
REMARK    1  A    between atoms: C_1  and  C_2
REMARK    2  A    between atoms: C_2  and  C_4
REMARK    3  A    between atoms: C_2  and  C_10
REMARK    4  A    between atoms: C_4  and  C_5
REMARK    5  A    between atoms: C_5  and  C_6
REMARK    6  A    between atoms: C_6  and  O_8
REMARK    7  A    between atoms: O_8  and  C_9
REMARK    8  A    between atoms: C_16  and  C_37
REMARK    9  A    between atoms: C_23  and  O_36
REMARK   10  A    between atoms: C_25  and  O_35
REMARK   11  A    between atoms: C_29  and  C_34
REMARK                            x       y       z     vdW  Elec       q    Type
REMARK                         _______ _______ _______ _____ _____    ______ ____
ROOT
ATOM      1  C   UNL     1       0.742  -0.511   1.241  0.00  0.00    -0.002 C 
ATOM      2  C   UNL     1       0.693  -2.060   1.298  0.00  0.00    +0.004 C 
ATOM      3  C   UNL     1       0.047  -2.426   2.666  0.00  0.00    +0.005 C 
ATOM      4  C   UNL     1       0.379  -1.180   3.506  0.00  0.00    +0.001 C 
ATOM      5  C   UNL     1       0.014  -0.053   2.510  0.00  0.00    -0.026 C 
ATOM      6  C   UNL     1       0.457   1.264   3.104  0.00  0.00    +0.007 C 
ATOM      7  C   UNL     1      -0.266   1.491   4.435  0.00  0.00    +0.005 C 
ATOM      8  C   UNL     1      -0.113   0.341   5.425  0.00  0.00    +0.001 C 
ATOM      9  C   UNL     1      -0.399  -1.010   4.784  0.00  0.00    +0.027 C 
ATOM     10  C   UNL     1      -0.128  -2.173   5.738  0.00  0.00    +0.147 C 
ATOM     11  C   UNL     1       1.291  -2.062   6.296  0.00  0.00    +0.147 C 
ATOM     12  C   UNL     1       1.381  -0.773   7.115  0.00  0.00    +0.026 C 
ATOM     13  C   UNL     1       1.188   0.441   6.211  0.00  0.00    -0.024 C 
ATOM     14  C   UNL     1       2.379   0.649   5.286  0.00  0.00    +0.007 C 
ATOM     15  C   UNL     1       3.700   0.679   6.054  0.00  0.00    +0.001 C 
ATOM     16  C   UNL     1       3.863  -0.613   6.855  0.00  0.00    +0.000 C 
ATOM     17  C   UNL     1       2.713  -0.723   7.857  0.00  0.00    +0.007 C 
ATOM     18  C   UNL     1       1.073   1.677   7.134  0.00  0.00    +0.012 C 
ATOM     19  C   UNL     1      -1.486  -0.020   2.216  0.00  0.00    +0.012 C 
ENDROOT
BRANCH   1  21
ATOM     20  C   UNL     1      -0.019   1.526   0.010  0.00  0.00    +0.008 C 
ATOM     21  C   UNL     1       0.002  -0.004   0.002  0.00  0.00    -0.010 C 
BRANCH  21  22
ATOM     22  C   UNL     1       0.718  -0.497  -1.257  0.00  0.00    +0.014 C 
BRANCH  22  23
ATOM     23  C   UNL     1      -0.089  -0.097  -2.493  0.00  0.00    +0.121 C 
BRANCH  23  24
ATOM     24  C   UNL     1       0.616  -0.583  -3.733  0.00  0.00    +0.307 C 
ATOM     25  O   UNL     1       1.658  -1.188  -3.638  0.00  0.00    -0.251 OA
BRANCH  24  26
ATOM     26  O   UNL     1       0.087  -0.344  -4.943  0.00  0.00    -0.468 OA
ATOM     27  C   UNL     1       0.809  -0.833  -6.075  0.00  0.00    +0.280 C 
ENDBRANCH  24  26
ENDBRANCH  23  24
ENDBRANCH  22  23
ENDBRANCH  21  22
ENDBRANCH   1  21
BRANCH  11  28
ATOM     28  O   UNL     1       1.561  -3.188   7.133  0.00  0.00    -0.389 OA
ATOM     29  H   UNL     1       1.498  -4.040   6.680  0.00  0.00    +0.210 HD
ENDBRANCH  11  28
BRANCH  10  30
ATOM     30  O   UNL     1      -1.073  -2.144   6.807  0.00  0.00    -0.389 OA
ATOM     31  H   UNL     1      -0.960  -2.856   7.452  0.00  0.00    +0.210 HD
ENDBRANCH  10  30
TORSDOF 7
