REMARK  Name = ZINC38789390
REMARK  6 active torsions:
REMARK  status: ('A' for Active; 'I' for Inactive)
REMARK    1  A    between atoms: C_4  and  C_7
REMARK    2  A    between atoms: C_7  and  O_8
REMARK    3  A    between atoms: O_8  and  C_9
REMARK    4  A    between atoms: C_12  and  N_15
REMARK    5  A    between atoms: N_15  and  C_16
REMARK    6  A    between atoms: C_16  and  C_17
REMARK                            x       y       z     vdW  Elec       q    Type
REMARK                         _______ _______ _______ _____ _____    ______ ____
ROOT
ATOM      1  N   UNL     1       8.931  -3.626   1.965  0.00  0.00    -0.343 N 
ATOM      2  H   UNL     1       9.441  -3.907   1.189  0.00  0.00    +0.146 HD
ENDROOT
BRANCH   1   6
ATOM      3  C   UNL     1       5.319  -1.605   1.467  0.00  0.00    +0.121 A 
ATOM      4  C   UNL     1       6.048  -2.007   0.357  0.00  0.00    +0.047 A 
ATOM      5  C   UNL     1       7.245  -2.676   0.521  0.00  0.00    +0.026 A 
ATOM      6  C   UNL     1       7.719  -2.947   1.798  0.00  0.00    +0.027 A 
ATOM      7  C   UNL     1       6.989  -2.545   2.908  0.00  0.00    +0.026 A 
ATOM      8  C   UNL     1       5.795  -1.870   2.742  0.00  0.00    +0.047 A 
BRANCH   3   9
ATOM      9  O   UNL     1       4.141  -0.946   1.304  0.00  0.00    -0.487 OA
BRANCH   9  10
ATOM     10  C   UNL     1       3.711  -0.707  -0.038  0.00  0.00    +0.264 C 
BRANCH  10  14
ATOM     11  C   UNL     1      -0.017   1.378   0.010  0.00  0.00    +0.000 A 
ATOM     12  C   UNL     1       1.171   2.086   0.002  0.00  0.00    +0.000 A 
ATOM     13  C   UNL     1       2.377   1.411  -0.013  0.00  0.00    +0.007 A 
ATOM     14  C   UNL     1       2.396   0.029  -0.020  0.00  0.00    -0.010 A 
ATOM     15  C   UNL     1       1.208  -0.679  -0.012  0.00  0.00    +0.007 A 
ATOM     16  C   UNL     1       0.002  -0.004   0.002  0.00  0.00    +0.000 A 
ENDBRANCH  10  14
ENDBRANCH   9  10
ENDBRANCH   3   9
ENDBRANCH   1   6
BRANCH   1  17
ATOM     17  C   UNL     1       9.431  -3.911   3.312  0.00  0.00    +0.118 C 
BRANCH  17  18
ATOM     18  C   UNL     1      10.764  -4.656   3.214  0.00  0.00    +0.115 C 
ATOM     19  C   UNL     1      11.354  -4.738   4.608  0.00  0.00    -0.003 C 
ATOM     20  C   UNL     1      11.618  -5.977   5.103  0.00  0.00    -0.003 A 
ATOM     21  C   UNL     1      12.189  -6.142   6.441  0.00  0.00    +0.059 A 
ATOM     22  C   UNL     1      12.443  -7.393   6.906  0.00  0.00    +0.167 A 
ATOM     23  C   UNL     1      12.164  -8.534   6.123  0.00  0.00    +0.168 A 
ATOM     24  C   UNL     1      11.626  -8.432   4.857  0.00  0.00    +0.073 A 
ATOM     25  C   UNL     1      11.334  -7.180   4.300  0.00  0.00    +0.044 A 
ATOM     26  N   UNL     1      10.813  -7.104   3.073  0.00  0.00    -0.284 N 
ATOM     27  C   UNL     1      10.515  -5.958   2.487  0.00  0.00    +0.226 C 
ATOM     28  O   UNL     1      10.043  -5.951   1.366  0.00  0.00    -0.275 OA
ATOM     29  O   UNL     1      12.517  -9.639   6.840  0.00  0.00    -0.453 OA
ATOM     30  C   UNL     1      13.391  -9.164   7.880  0.00  0.00    +0.466 C 
ATOM     31  O   UNL     1      12.966  -7.807   8.099  0.00  0.00    -0.453 OA
ATOM     32  H   UNL     1      10.646  -7.928   2.589  0.00  0.00    +0.155 HD
ENDBRANCH  17  18
ENDBRANCH   1  17
TORSDOF 6
