REMARK  Name = ZINC19266275
REMARK  3 active torsions:
REMARK  status: ('A' for Active; 'I' for Inactive)
REMARK    1  A    between atoms: C_6  and  C_10
REMARK    2  A    between atoms: C_10  and  N_11
REMARK    3  A    between atoms: C_13  and  N_18
REMARK                            x       y       z     vdW  Elec       q    Type
REMARK                         _______ _______ _______ _____ _____    ______ ____
ROOT
ATOM      1  C   UNL     1       3.666  -0.693  -0.035  0.00  0.00    +0.181 C 
ENDROOT
BRANCH   1   7
ATOM      2  C   UNL     1       4.919  -2.267  -5.683  0.00  0.00    +0.005 A 
ATOM      3  C   UNL     1       5.703  -1.102  -5.647  0.00  0.00    +0.018 A 
ATOM      4  C   UNL     1       5.756  -0.351  -4.527  0.00  0.00    +0.092 A 
ATOM      5  N   UNL     1       5.051  -0.710  -3.416  0.00  0.00    -0.306 N 
ATOM      6  C   UNL     1       4.926  -0.145  -2.176  0.00  0.00    +0.117 A 
ATOM      7  C   UNL     1       4.091  -0.931  -1.461  0.00  0.00    +0.080 A 
ATOM      8  N   UNL     1       3.711  -1.957  -2.227  0.00  0.00    -0.231 NA
ATOM      9  C   UNL     1       4.277  -1.841  -3.420  0.00  0.00    +0.138 A 
ATOM     10  C   UNL     1       4.211  -2.636  -4.582  0.00  0.00    +0.047 A 
ENDBRANCH   1   7
BRANCH   1  11
ATOM     11  N   UNL     1       2.386   0.021  -0.020  0.00  0.00    -0.308 N 
ATOM     12  C   UNL     1       2.376   1.381  -0.013  0.00  0.00    +0.112 A 
ATOM     13  C   UNL     1       1.201   2.063   0.002  0.00  0.00    +0.041 A 
ATOM     14  C   UNL     1      -0.016   1.359   0.009  0.00  0.00    +0.029 A 
ATOM     15  C   UNL     1       0.002  -0.004   0.002  0.00  0.00    +0.072 A 
ATOM     16  C   UNL     1       1.235  -0.677  -0.013  0.00  0.00    +0.252 A 
ATOM     17  O   UNL     1       1.262  -1.898  -0.020  0.00  0.00    -0.268 OA
BRANCH  13  18
ATOM     18  N   UNL     1       1.202   3.466   0.009  0.00  0.00    -0.357 N 
ATOM     19  H   UNL     1       0.250   4.017   0.020  0.00  0.00    +0.142 HD
ATOM     20  H   UNL     1       2.155   4.016   0.002  0.00  0.00    +0.142 HD
ENDBRANCH  13  18
ENDBRANCH   1  11
TORSDOF 3
