REMARK  Name = ZINC46791259
REMARK  8 active torsions:
REMARK  status: ('A' for Active; 'I' for Inactive)
REMARK    1  A    between atoms: C_1  and  C_2
REMARK    2  A    between atoms: C_7  and  C_10
REMARK    3  A    between atoms: C_14  and  C_17
REMARK    4  A    between atoms: C_17  and  N_18
REMARK    5  A    between atoms: C_19  and  C_21
REMARK    6  A    between atoms: C_23  and  S_28
REMARK    7  A    between atoms: S_28  and  N_31
REMARK    8  A    between atoms: N_31  and  C_32
REMARK                            x       y       z     vdW  Elec       q    Type
REMARK                         _______ _______ _______ _____ _____    ______ ____
ROOT
ATOM      1  N   UNL     1       4.638   3.978  -5.162  0.00  0.00    -0.307 N 
ATOM      2  C   UNL     1       5.221   4.826  -6.033  0.00  0.00    +0.246 C 
ATOM      3  O   UNL     1       5.916   4.391  -6.931  0.00  0.00    -0.270 OA
ATOM      4  H   UNL     1       4.083   4.325  -4.446  0.00  0.00    +0.149 HD
ENDROOT
BRANCH   2   5
ATOM      5  C   UNL     1       5.016   6.283  -5.896  0.00  0.00    +0.057 A 
ATOM      6  C   UNL     1       4.223   6.785  -4.863  0.00  0.00    +0.043 A 
ATOM      7  C   UNL     1       4.037   8.146  -4.740  0.00  0.00    +0.106 A 
ATOM      8  C   UNL     1       4.632   9.014  -5.639  0.00  0.00    +0.030 A 
ATOM      9  C   UNL     1       5.418   8.524  -6.666  0.00  0.00    +0.022 A 
ATOM     10  C   UNL     1       5.619   7.164  -6.797  0.00  0.00    +0.053 A 
ATOM     11 CL   UNL     1       6.613   6.550  -8.082  0.00  0.00    -0.083 Cl
BRANCH   7  12
ATOM     12  S   UNL     1       3.036   8.782  -3.437  0.00  0.00    +0.058 S 
ATOM     13  O   UNL     1       2.574  10.056  -3.864  0.00  0.00    -0.153 OA
ATOM     14  O   UNL     1       2.150   7.738  -3.058  0.00  0.00    -0.153 OA
BRANCH  12  15
ATOM     15  N   UNL     1       4.033   9.050  -2.141  0.00  0.00    -0.193 NA
ATOM     16  C   UNL     1       5.087  10.063  -2.226  0.00  0.00    +0.127 C 
ATOM     17  H   UNL     1       3.918   8.536  -1.327  0.00  0.00    +0.148 HD
ENDBRANCH  12  15
ENDBRANCH   7  12
ENDBRANCH   2   5
BRANCH   1  18
ATOM     18  C   UNL     1       4.841   2.534  -5.298  0.00  0.00    +0.141 C 
BRANCH  18  30
ATOM     19  C   UNL     1       0.016   1.546   0.045  0.00  0.00    +0.039 C 
ATOM     20  C   UNL     1       0.015   0.016   0.022  0.00  0.00    +0.133 C 
ATOM     21  C   UNL     1       0.716  -0.478  -1.248  0.00  0.00    +0.137 C 
ATOM     22  N   UNL     1       2.143  -0.135  -1.154  0.00  0.00    -0.312 N 
ATOM     23  C   UNL     1       2.865  -0.509   0.072  0.00  0.00    +0.137 C 
ATOM     24  C   UNL     1       2.060  -0.013   1.279  0.00  0.00    +0.133 C 
ATOM     25  O   UNL     1       0.711  -0.479   1.169  0.00  0.00    -0.371 OA
ATOM     26  C   UNL     1       2.684  -0.553   2.567  0.00  0.00    +0.039 C 
ATOM     27  C   UNL     1       2.791   0.524  -2.193  0.00  0.00    +0.099 A 
ATOM     28  C   UNL     1       2.117   0.757  -3.387  0.00  0.00    +0.042 A 
ATOM     29  C   UNL     1       2.773   1.413  -4.413  0.00  0.00    +0.010 A 
ATOM     30  C   UNL     1       4.087   1.816  -4.208  0.00  0.00    -0.014 A 
ATOM     31  C   UNL     1       4.694   1.552  -2.997  0.00  0.00    +0.089 A 
ATOM     32  N   UNL     1       4.042   0.928  -2.034  0.00  0.00    -0.349 N 
ATOM     33  H   UNL     1       4.491   0.759  -1.192  0.00  0.00    +0.167 HD
ENDBRANCH  18  30
ENDBRANCH   1  18
TORSDOF 5
