REMARK  Name = ZINC02362805
REMARK  11 active torsions:
REMARK  status: ('A' for Active; 'I' for Inactive)
REMARK    1  A    between atoms: C_1  and  C_2
REMARK    2  A    between atoms: C_2  and  O_3
REMARK    3  A    between atoms: O_3  and  C_4
REMARK    4  A    between atoms: C_9  and  C_10
REMARK    5  A    between atoms: C_15  and  C_27
REMARK    6  A    between atoms: N_16  and  C_19
REMARK    7  A    between atoms: C_19  and  C_20
REMARK    8  A    between atoms: C_20  and  C_21
REMARK    9  A    between atoms: C_21  and  N_63
REMARK   10  A    between atoms: C_29  and  N_33
REMARK   11  A    between atoms: C_30  and  C_31
REMARK                            x       y       z     vdW  Elec       q    Type
REMARK                         _______ _______ _______ _____ _____    ______ ____
ROOT
ATOM      1  C   UNL     1      -0.234   5.264  -0.016  0.00  0.00    +0.107 C 
ATOM      2  C   UNL     1      -0.861   5.790   1.246  0.00  0.00    +0.072 A 
ATOM      3  C   UNL     1      -2.185   6.174   1.269  0.00  0.00    +0.141 A 
ATOM      4  C   UNL     1      -2.735   6.660   2.473  0.00  0.00    +0.068 A 
ATOM      5  C   UNL     1      -1.963   6.743   3.577  0.00  0.00    +0.022 A 
ATOM      6  N   UNL     1      -0.658   6.363   3.547  0.00  0.00    -0.312 N 
ATOM      7  C   UNL     1      -0.098   5.893   2.417  0.00  0.00    +0.259 A 
ATOM      8  O   UNL     1       1.075   5.557   2.412  0.00  0.00    -0.267 OA
ATOM      9  C   UNL     1      -2.555   7.264   4.861  0.00  0.00    +0.064 C 
ATOM     10  O   UNL     1      -2.954   6.091   0.162  0.00  0.00    -0.441 OA
ATOM     11  C   UNL     1      -2.378   5.999  -1.049  0.00  0.00    +0.199 C 
ATOM     12  C   UNL     1      -1.090   5.612  -1.202  0.00  0.00    +0.098 C 
ENDROOT
BRANCH   1  18
ATOM     13  C   UNL     1       1.156   3.177  -0.002  0.00  0.00    +0.125 A 
ATOM     14  C   UNL     1       1.278   1.798   0.086  0.00  0.00    +0.046 A 
ATOM     15  C   UNL     1       0.152   1.015   0.255  0.00  0.00    +0.004 A 
ATOM     16  C   UNL     1      -1.096   1.605   0.331  0.00  0.00    +0.001 A 
ATOM     17  C   UNL     1      -1.220   2.979   0.249  0.00  0.00    +0.008 A 
ATOM     18  C   UNL     1      -0.097   3.767   0.080  0.00  0.00    +0.007 A 
BRANCH  13  19
ATOM     19  O   UNL     1       2.261   3.949  -0.168  0.00  0.00    -0.492 OA
BRANCH  19  21
ATOM     20  C   UNL     1       4.638   4.301  -0.429  0.00  0.00    +0.048 C 
ATOM     21  C   UNL     1       3.519   3.274  -0.243  0.00  0.00    +0.225 C 
ENDBRANCH  19  21
ENDBRANCH  13  19
ENDBRANCH   1  18
BRANCH  11  22
ATOM     22  N   UNL     1      -3.119   6.305  -2.164  0.00  0.00    -0.328 N 
ATOM     23  H   UNL     1      -4.043   6.584  -2.070  0.00  0.00    +0.145 HD
ATOM     24  H   UNL     1      -2.717   6.244  -3.045  0.00  0.00    +0.145 HD
ENDBRANCH  11  22
BRANCH  12  25
ATOM     25  C   UNL     1      -0.532   5.533  -2.519  0.00  0.00    +0.101 C 
ATOM     26  N   UNL     1      -0.089   5.471  -3.563  0.00  0.00    -0.191 NA
ENDBRANCH  12  25
BRANCH   6  27
ATOM     27  C   UNL     1       0.151   6.467   4.764  0.00  0.00    +0.123 C 
BRANCH  27  28
ATOM     28  C   UNL     1       0.857   7.824   4.793  0.00  0.00    +0.003 C 
BRANCH  28  29
ATOM     29  C   UNL     1       1.703   7.932   6.063  0.00  0.00    -0.077 C 
BRANCH  29  35
ATOM     30  C   UNL     1       3.372   9.336   5.010  0.00  0.00    -0.050 C 
ATOM     31  C   UNL     1       4.010  10.727   5.039  0.00  0.00    +0.141 C 
ATOM     32  O   UNL     1       4.589  10.954   6.327  0.00  0.00    -0.383 OA
ATOM     33  C   UNL     1       3.652  10.863   7.403  0.00  0.00    +0.141 C 
ATOM     34  C   UNL     1       3.010   9.473   7.398  0.00  0.00    -0.050 C 
ATOM     35  N   UNL     1       2.363   9.255   6.088  0.00  0.00    +0.383 N 
ATOM     36  H   UNL     1       1.656   9.984   5.938  0.00  0.00    -0.082 HD
ENDBRANCH  29  35
ENDBRANCH  28  29
ENDBRANCH  27  28
ENDBRANCH   6  27
TORSDOF 9
