REMARK  Name = ZINC62361910
REMARK  8 active torsions:
REMARK  status: ('A' for Active; 'I' for Inactive)
REMARK    1  A    between atoms: C_1  and  C_2
REMARK    2  A    between atoms: C_5  and  C_8
REMARK    3  A    between atoms: C_8  and  C_10
REMARK    4  A    between atoms: C_8  and  N_21
REMARK    5  A    between atoms: C_10  and  N_11
REMARK    6  A    between atoms: N_11  and  S_12
REMARK    7  A    between atoms: S_12  and  N_15
REMARK    8  A    between atoms: N_15  and  C_16
REMARK                            x       y       z     vdW  Elec       q    Type
REMARK                         _______ _______ _______ _____ _____    ______ ____
ROOT
ATOM      1  C   UNL     1       0.165  -4.182   0.064  0.00  0.00    -0.022 C 
ENDROOT
BRANCH   1   6
ATOM      2  C   UNL     1      -0.122   1.585  -0.168  0.00  0.00    +0.044 C 
ATOM      3  C   UNL     1      -0.047   0.081  -0.108  0.00  0.00    -0.050 A 
ATOM      4  C   UNL     1      -0.210  -0.666  -1.259  0.00  0.00    +0.003 A 
ATOM      5  C   UNL     1      -0.141  -2.046  -1.204  0.00  0.00    +0.002 A 
ATOM      6  C   UNL     1       0.091  -2.678   0.003  0.00  0.00    -0.060 A 
ATOM      7  C   UNL     1       0.255  -1.931   1.155  0.00  0.00    +0.002 A 
ATOM      8  C   UNL     1       0.190  -0.551   1.099  0.00  0.00    +0.003 A 
ENDBRANCH   1   6
BRANCH   1   9
ATOM      9  N   UNL     1      -0.512  -4.657   1.278  0.00  0.00    +0.385 N 
ATOM     10  C   UNL     1      -1.964  -4.354   1.206  0.00  0.00    -0.078 C 
ATOM     11  C   UNL     1      -2.587  -5.363   2.203  0.00  0.00    -0.020 C 
ATOM     12  C   UNL     1      -1.730  -6.633   1.990  0.00  0.00    -0.020 C 
ATOM     13  C   UNL     1      -0.411  -6.130   1.375  0.00  0.00    -0.078 C 
ATOM     14  H   UNL     1      -0.106  -4.226   2.095  0.00  0.00    -0.081 HD
ENDBRANCH   1   9
BRANCH   1  15
ATOM     15  C   UNL     1       1.631  -4.620   0.093  0.00  0.00    +0.096 C 
BRANCH  15  16
ATOM     16  N   UNL     1       2.286  -4.215  -1.153  0.00  0.00    -0.181 NA
ATOM     17  H   UNL     1       1.752  -3.962  -1.922  0.00  0.00    +0.149 HD
BRANCH  16  18
ATOM     18  S   UNL     1       3.939  -4.190  -1.249  0.00  0.00    +0.095 S 
ATOM     19  O   UNL     1       4.263  -3.788  -2.573  0.00  0.00    -0.141 OA
ATOM     20  O   UNL     1       4.402  -3.487  -0.104  0.00  0.00    -0.141 OA
BRANCH  18  21
ATOM     21  N   UNL     1       4.463  -5.753  -1.088  0.00  0.00    -0.177 NA
ATOM     22  H   UNL     1       4.995  -6.009  -0.318  0.00  0.00    +0.149 HD
BRANCH  21  23
ATOM     23  C   UNL     1       4.123  -6.748  -2.107  0.00  0.00    +0.078 C 
ATOM     24  C   UNL     1       5.298  -6.918  -3.093  0.00  0.00    +0.020 C 
ATOM     25  C   UNL     1       6.078  -8.139  -2.548  0.00  0.00    +0.002 C 
ATOM     26  C   UNL     1       4.946  -9.077  -2.059  0.00  0.00    +0.002 C 
ATOM     27  C   UNL     1       3.900  -8.121  -1.450  0.00  0.00    +0.020 C 
ENDBRANCH  21  23
ENDBRANCH  18  21
ENDBRANCH  16  18
ENDBRANCH  15  16
ENDBRANCH   1  15
TORSDOF 7
