REMARK  Name = ZINC08993832
REMARK  10 active torsions:
REMARK  status: ('A' for Active; 'I' for Inactive)
REMARK    1  A    between atoms: C_1  and  C_2
REMARK    2  A    between atoms: C_2  and  C_27
REMARK    3  A    between atoms: N_5  and  N_9
REMARK    4  A    between atoms: C_10  and  C_12
REMARK    5  A    between atoms: C_12  and  N_60
REMARK    6  A    between atoms: C_13  and  N_60
REMARK    7  A    between atoms: C_14  and  C_15
REMARK    8  A    between atoms: C_14  and  N_60
REMARK    9  A    between atoms: C_27  and  C_28
REMARK   10  A    between atoms: C_28  and  C_29
REMARK                            x       y       z     vdW  Elec       q    Type
REMARK                         _______ _______ _______ _____ _____    ______ ____
ROOT
ATOM      1  N   UNL     1      -6.052   0.899  -0.682  0.00  0.00    -0.225 N 
ATOM      2  C   UNL     1      -4.771   0.553  -0.448  0.00  0.00    +0.213 C 
ATOM      3  O   UNL     1      -4.452  -0.618  -0.429  0.00  0.00    -0.276 OA
ATOM      4  H   UNL     1      -6.307   1.835  -0.697  0.00  0.00    +0.173 HD
ENDROOT
BRANCH   1   9
ATOM      5  C   UNL     1      -8.643  -2.866   0.108  0.00  0.00    +0.041 C 
ATOM      6  C   UNL     1      -8.758  -1.552  -0.668  0.00  0.00    +0.112 C 
ATOM      7  C   UNL     1      -7.943  -0.464   0.002  0.00  0.00    +0.263 C 
ATOM      8  O   UNL     1      -8.093  -0.020   1.120  0.00  0.00    -0.271 OA
ATOM      9  N   UNL     1      -7.016  -0.093  -0.904  0.00  0.00    -0.137 N 
ATOM     10  C   UNL     1      -7.135  -0.785  -2.043  0.00  0.00    +0.326 C 
ATOM     11  O   UNL     1      -6.414  -0.625  -3.008  0.00  0.00    -0.251 OA
ATOM     12  N   UNL     1      -8.138  -1.680  -1.998  0.00  0.00    -0.284 N 
ATOM     13  H   UNL     1      -8.404  -2.288  -2.705  0.00  0.00    +0.151 HD
BRANCH   6  14
ATOM     14  C   UNL     1     -10.223  -1.128  -0.792  0.00  0.00    +0.040 C 
BRANCH  14  15
ATOM     15  C   UNL     1     -11.021  -2.244  -1.470  0.00  0.00    +0.038 C 
BRANCH  15  16
ATOM     16  C   UNL     1     -12.464  -1.826  -1.592  0.00  0.00    -0.047 A 
ATOM     17  C   UNL     1     -13.358  -2.125  -0.581  0.00  0.00    +0.003 A 
ATOM     18  C   UNL     1     -14.680  -1.737  -0.691  0.00  0.00    +0.000 A 
ATOM     19  C   UNL     1     -15.111  -1.060  -1.816  0.00  0.00    +0.000 A 
ATOM     20  C   UNL     1     -14.218  -0.767  -2.830  0.00  0.00    +0.000 A 
ATOM     21  C   UNL     1     -12.895  -1.149  -2.718  0.00  0.00    +0.003 A 
ENDBRANCH  15  16
ENDBRANCH  14  15
ENDBRANCH   6  14
ENDBRANCH   1   9
BRANCH   2  22
ATOM     22  C   UNL     1      -3.733   1.619  -0.210  0.00  0.00    +0.020 C 
BRANCH  22  24
ATOM     23  C   UNL     1      -2.426   0.216   1.268  0.00  0.00    -0.095 C 
ATOM     24  N   UNL     1      -2.421   0.971  -0.003  0.00  0.00    +0.388 N 
ATOM     25  H   UNL     1      -2.245   0.320  -0.777  0.00  0.00    -0.081 HD
BRANCH  24  26
ATOM     26  C   UNL     1      -1.352   1.991   0.019  0.00  0.00    -0.003 C 
BRANCH  26  27
ATOM     27  C   UNL     1      -0.015   1.294   0.009  0.00  0.00    +0.094 A 
ATOM     28  N   UNL     1       1.109   2.057   0.003  0.00  0.00    -0.312 N 
ATOM     29  H   UNL     1       1.034   3.024   0.008  0.00  0.00    +0.170 HD
ATOM     30  C   UNL     1       2.333   1.479  -0.012  0.00  0.00    +0.259 A 
ATOM     31  O   UNL     1       3.349   2.150  -0.019  0.00  0.00    -0.267 OA
ATOM     32  C   UNL     1       2.388   0.010  -0.021  0.00  0.00    +0.065 A 
ATOM     33  C   UNL     1       3.597  -0.682  -0.036  0.00  0.00    +0.015 A 
ATOM     34  C   UNL     1       3.591  -2.060  -0.044  0.00  0.00    +0.001 A 
ATOM     35  C   UNL     1       2.392  -2.761  -0.037  0.00  0.00    +0.002 A 
ATOM     36  C   UNL     1       1.186  -2.096  -0.021  0.00  0.00    +0.028 A 
ATOM     37  C   UNL     1       1.167  -0.699  -0.013  0.00  0.00    +0.078 A 
ATOM     38  N   UNL     1       0.002  -0.004   0.002  0.00  0.00    -0.236 NA
ENDBRANCH  26  27
ENDBRANCH  24  26
ENDBRANCH  22  24
ENDBRANCH   2  22
TORSDOF 8
