REMARK  Name = ZINC43231627
REMARK  6 active torsions:
REMARK  status: ('A' for Active; 'I' for Inactive)
REMARK    1  A    between atoms: C_1  and  C_2
REMARK    2  A    between atoms: N_4  and  N_5
REMARK    3  A    between atoms: N_8  and  C_9
REMARK    4  A    between atoms: C_9  and  C_10
REMARK    5  A    between atoms: C_10  and  C_12
REMARK    6  A    between atoms: C_10  and  N_17
REMARK                            x       y       z     vdW  Elec       q    Type
REMARK                         _______ _______ _______ _____ _____    ______ ____
ROOT
ATOM      1  C   UNL     1      -0.003  -2.784  -4.782  0.00  0.00    +0.095 C 
ENDROOT
BRANCH   1   5
ATOM      2  N   UNL     1       2.332  -5.583  -4.308  0.00  0.00    -0.218 N 
ATOM      3  C   UNL     1       1.272  -4.765  -4.160  0.00  0.00    +0.316 C 
ATOM      4  O   UNL     1       0.426  -5.011  -3.323  0.00  0.00    -0.251 OA
ATOM      5  N   UNL     1       1.149  -3.674  -4.942  0.00  0.00    -0.299 N 
ATOM      6  H   UNL     1       2.421  -6.369  -3.745  0.00  0.00    +0.174 HD
ATOM      7  H   UNL     1       1.825  -3.477  -5.610  0.00  0.00    +0.150 HD
BRANCH   2  11
ATOM      8  C   UNL     1       5.417  -5.814  -6.458  0.00  0.00    +0.110 C 
ATOM      9  C   UNL     1       4.368  -6.119  -5.420  0.00  0.00    +0.226 C 
ATOM     10  O   UNL     1       4.478  -7.101  -4.717  0.00  0.00    -0.275 OA
ATOM     11  N   UNL     1       3.307  -5.300  -5.273  0.00  0.00    -0.233 N 
ATOM     12  H   UNL     1       3.219  -4.514  -5.835  0.00  0.00    +0.173 HD
ENDBRANCH   2  11
ENDBRANCH   1   5
BRANCH   1  13
ATOM     13  C   UNL     1       0.031  -1.705  -5.866  0.00  0.00    -0.013 C 
BRANCH  13  14
ATOM     14  N   UNL     1      -1.047  -0.736  -5.627  0.00  0.00    +0.386 N 
ATOM     15  C   UNL     1      -1.079   0.254  -6.724  0.00  0.00    -0.078 C 
ATOM     16  C   UNL     1      -1.461   1.591  -6.040  0.00  0.00    -0.020 C 
ATOM     17  C   UNL     1      -0.703   1.480  -4.691  0.00  0.00    -0.020 C 
ATOM     18  C   UNL     1      -0.803  -0.024  -4.359  0.00  0.00    -0.078 C 
ATOM     19  H   UNL     1      -1.933  -1.217  -5.580  0.00  0.00    -0.081 HD
ENDBRANCH  13  14
BRANCH  13  20
ATOM     20  C   UNL     1      -0.159  -2.344  -7.217  0.00  0.00    -0.022 A 
ATOM     21  C   UNL     1       0.773  -2.667  -8.147  0.00  0.00    +0.009 A 
ATOM     22  C   UNL     1       0.364  -3.255  -9.329  0.00  0.00    +0.008 A 
ATOM     23  C   UNL     1      -0.956  -3.490  -9.525  0.00  0.00    +0.045 A 
ATOM     24  S   UNL     1      -1.668  -2.880  -8.005  0.00  0.00    -0.103 S 
ENDBRANCH  13  20
ENDBRANCH   1  13
TORSDOF 5
