REMARK  Name = ZINC53775750
REMARK  13 active torsions:
REMARK  status: ('A' for Active; 'I' for Inactive)
REMARK    1  A    between atoms: C_1  and  C_2
REMARK    2  A    between atoms: C_3  and  C_12
REMARK    3  A    between atoms: C_4  and  C_11
REMARK    4  A    between atoms: N_5  and  C_7
REMARK    5  A    between atoms: C_7  and  C_8
REMARK    6  A    between atoms: C_7  and  C_9
REMARK    7  A    between atoms: C_7  and  C_10
REMARK    8  A    between atoms: C_17  and  N_20
REMARK    9  A    between atoms: C_21  and  O_23
REMARK   10  A    between atoms: O_23  and  C_24
REMARK   11  A    between atoms: C_24  and  C_25
REMARK   12  A    between atoms: C_24  and  C_26
REMARK   13  A    between atoms: C_24  and  C_27
REMARK                            x       y       z     vdW  Elec       q    Type
REMARK                         _______ _______ _______ _____ _____    ______ ____
ROOT
ATOM      1  C   UNL     1       0.230  -0.231  -2.494  0.00  0.00    +0.250 C 
ATOM      2  O   UNL     1       1.317   0.143  -2.891  0.00  0.00    -0.270 OA
ATOM      3  N   UNL     1      -0.839  -0.181  -3.313  0.00  0.00    -0.297 N 
ATOM      4  C   UNL     1      -2.160  -0.624  -2.847  0.00  0.00    +0.110 C 
ATOM      5  C   UNL     1      -3.171   0.501  -3.091  0.00  0.00    +0.041 C 
ATOM      6  C   UNL     1      -3.129   0.909  -4.565  0.00  0.00    +0.079 C 
ATOM      7  C   UNL     1      -1.733   1.431  -4.912  0.00  0.00    +0.041 C 
ATOM      8  C   UNL     1      -0.707   0.322  -4.687  0.00  0.00    +0.110 C 
ENDROOT
BRANCH   1  11
ATOM      9  C   UNL     1      -0.476   1.511   0.062  0.00  0.00    +0.068 C 
ATOM     10  C   UNL     1      -0.232   0.024   0.028  0.00  0.00    +0.072 A 
ATOM     11  C   UNL     1       0.082  -0.739  -1.118  0.00  0.00    +0.080 A 
ATOM     12  C   UNL     1       0.224  -2.050  -0.709  0.00  0.00    +0.049 A 
ATOM     13  N   UNL     1       0.008  -2.083   0.616  0.00  0.00    -0.262 N 
ATOM     14  N   UNL     1      -0.269  -0.782   1.053  0.00  0.00    -0.175 NA
ATOM     15  C   UNL     1       0.560  -3.227  -1.587  0.00  0.00    +0.066 C 
BRANCH  13  16
ATOM     16  C   UNL     1       0.059  -3.277   1.462  0.00  0.00    +0.056 C 
ATOM     17  C   UNL     1       1.397  -3.990   1.260  0.00  0.00    +0.036 C 
ATOM     18  C   UNL     1      -0.085  -2.869   2.929  0.00  0.00    +0.036 C 
ATOM     19  C   UNL     1      -1.084  -4.221   1.081  0.00  0.00    +0.036 C 
ENDBRANCH  13  16
ENDBRANCH   1  11
BRANCH   6  20
ATOM     20  N   UNL     1      -4.118   1.962  -4.808  0.00  0.00    -0.278 N 
ATOM     21  C   UNL     1      -4.629   2.134  -6.044  0.00  0.00    +0.401 C 
ATOM     22  O   UNL     1      -4.269   1.416  -6.955  0.00  0.00    -0.226 OA
ATOM     23  H   UNL     1      -4.406   2.535  -4.080  0.00  0.00    +0.152 HD
BRANCH  21  24
ATOM     24  O   UNL     1      -5.538   3.102  -6.267  0.00  0.00    -0.445 OA
BRANCH  24  25
ATOM     25  C   UNL     1      -6.037   3.228  -7.600  0.00  0.00    +0.107 C 
ATOM     26  C   UNL     1      -6.717   1.921  -8.016  0.00  0.00    +0.055 C 
ATOM     27  C   UNL     1      -7.052   4.371  -7.660  0.00  0.00    +0.055 C 
ATOM     28  C   UNL     1      -4.878   3.525  -8.553  0.00  0.00    +0.055 C 
ENDBRANCH  24  25
ENDBRANCH  21  24
ENDBRANCH   6  20
TORSDOF 5
