REMARK  Name = ZINC67260525
REMARK  10 active torsions:
REMARK  status: ('A' for Active; 'I' for Inactive)
REMARK    1  A    between atoms: C_1  and  C_2
REMARK    2  A    between atoms: C_5  and  N_9
REMARK    3  A    between atoms: C_10  and  C_12
REMARK    4  A    between atoms: C_12  and  C_13
REMARK    5  A    between atoms: C_13  and  N_14
REMARK    6  A    between atoms: N_17  and  C_18
REMARK    7  A    between atoms: C_21  and  N_25
REMARK    8  A    between atoms: C_23  and  C_24
REMARK    9  A    between atoms: N_25  and  C_26
REMARK   10  A    between atoms: N_25  and  C_27
REMARK                            x       y       z     vdW  Elec       q    Type
REMARK                         _______ _______ _______ _____ _____    ______ ____
ROOT
ATOM      1  N   UNL     1      -0.337  -8.308  -2.633  0.00  0.00    -0.299 N 
ATOM      2  C   UNL     1      -0.431  -8.977  -3.799  0.00  0.00    +0.304 C 
ATOM      3  O   UNL     1      -0.443  -8.366  -4.851  0.00  0.00    -0.253 OA
ATOM      4  N   UNL     1      -0.513 -10.322  -3.800  0.00  0.00    -0.269 N 
ATOM      5  H   UNL     1      -0.328  -8.795  -1.794  0.00  0.00    +0.150 HD
ATOM      6  H   UNL     1      -0.573 -10.805  -2.961  0.00  0.00    +0.156 HD
ENDROOT
BRANCH   4   7
ATOM      7  C   UNL     1      -0.510 -11.024  -5.014  0.00  0.00    +0.038 A 
ATOM      8  C   UNL     1      -1.125 -10.477  -6.133  0.00  0.00    +0.025 A 
ATOM      9  C   UNL     1      -1.122 -11.168  -7.329  0.00  0.00    +0.025 A 
ATOM     10  C   UNL     1      -0.504 -12.409  -7.412  0.00  0.00    +0.030 A 
ATOM     11  C   UNL     1       0.110 -12.955  -6.293  0.00  0.00    +0.028 A 
ATOM     12  C   UNL     1       0.112 -12.262  -5.099  0.00  0.00    -0.027 A 
ATOM     13  C   UNL     1       0.784 -12.852  -3.886  0.00  0.00    +0.046 C 
BRANCH  10  14
ATOM     14  N   UNL     1      -0.501 -13.109  -8.623  0.00  0.00    -0.336 N 
ATOM     15  C   UNL     1      -1.150 -12.533  -9.804  0.00  0.00    +0.129 C 
ATOM     16  C   UNL     1       0.150 -14.418  -8.711  0.00  0.00    +0.129 C 
ENDBRANCH  10  14
ENDBRANCH   4   7
BRANCH   1  17
ATOM     17  C   UNL     1      -0.249  -6.846  -2.632  0.00  0.00    +0.115 C 
BRANCH  17  18
ATOM     18  C   UNL     1      -0.152  -6.342  -1.191  0.00  0.00    +0.115 C 
BRANCH  18  20
ATOM     19  N   UNL     1       0.033  -4.169  -0.023  0.00  0.00    -0.284 N 
ATOM     20  C   UNL     1      -0.061  -4.838  -1.190  0.00  0.00    +0.219 C 
ATOM     21  O   UNL     1      -0.073  -4.229  -2.238  0.00  0.00    -0.275 OA
ATOM     22  H   UNL     1       0.123  -4.657   0.810  0.00  0.00    +0.155 HD
BRANCH  19  27
ATOM     23  C   UNL     1      -0.103   1.504   0.014  0.00  0.00    +0.044 C 
ATOM     24  C   UNL     1      -0.067  -0.003   0.005  0.00  0.00    -0.049 A 
ATOM     25  C   UNL     1      -0.652  -0.701  -1.036  0.00  0.00    +0.005 A 
ATOM     26  C   UNL     1      -0.621  -2.081  -1.048  0.00  0.00    +0.025 A 
ATOM     27  C   UNL     1      -0.000  -2.769  -0.014  0.00  0.00    +0.052 A 
ATOM     28  C   UNL     1       0.588  -2.066   1.030  0.00  0.00    +0.062 A 
ATOM     29  C   UNL     1       0.558  -0.684   1.033  0.00  0.00    +0.025 A 
ATOM     30 CL   UNL     1       1.366  -2.921   2.325  0.00  0.00    -0.082 Cl
ENDBRANCH  19  27
ENDBRANCH  18  20
ENDBRANCH  17  18
ENDBRANCH   1  17
TORSDOF 6
