REMARK  Name = ZINC13213824
REMARK  5 active torsions:
REMARK  status: ('A' for Active; 'I' for Inactive)
REMARK    1  A    between atoms: C_1  and  C_2
REMARK    2  A    between atoms: C_2  and  C_3
REMARK    3  A    between atoms: C_2  and  C_4
REMARK    4  A    between atoms: C_7  and  C_10
REMARK    5  A    between atoms: C_27  and  C_29
REMARK                            x       y       z     vdW  Elec       q    Type
REMARK                         _______ _______ _______ _____ _____    ______ ____
ROOT
ATOM      1  C   UNL     1      -5.358  -2.060   0.001  0.00  0.00    +0.234 C 
ATOM      2  C   UNL     1      -5.391  -3.464   0.529  0.00  0.00    +0.028 C 
ATOM      3  C   UNL     1      -5.264  -4.516  -0.307  0.00  0.00    +0.083 C 
ATOM      4  C   UNL     1      -5.103  -4.226  -1.754  0.00  0.00    +0.042 A 
ATOM      5  C   UNL     1      -4.646  -5.190  -2.641  0.00  0.00    +0.013 A 
ATOM      6  C   UNL     1      -4.509  -4.875  -3.980  0.00  0.00    +0.001 A 
ATOM      7  C   UNL     1      -4.825  -3.607  -4.433  0.00  0.00    +0.004 A 
ATOM      8  C   UNL     1      -5.281  -2.640  -3.555  0.00  0.00    +0.046 A 
ATOM      9  C   UNL     1      -5.424  -2.942  -2.212  0.00  0.00    +0.131 A 
ATOM     10  O   UNL     1      -5.874  -2.019  -1.330  0.00  0.00    -0.479 OA
ATOM     11  N   UNL     1      -5.285  -5.789   0.157  0.00  0.00    -0.216 NA
ATOM     12  C   UNL     1      -5.436  -6.113   1.422  0.00  0.00    +0.209 C 
ATOM     13  N   UNL     1      -5.484  -7.326   2.058  0.00  0.00    -0.275 N 
ATOM     14  C   UNL     1      -5.663  -7.099   3.401  0.00  0.00    +0.208 C 
ATOM     15  N   UNL     1      -5.723  -5.824   3.615  0.00  0.00    -0.169 NA
ATOM     16  N   UNL     1      -5.583  -5.165   2.393  0.00  0.00    -0.182 N 
ATOM     17  C   UNL     1      -5.568  -3.747   2.004  0.00  0.00    +0.164 C 
ATOM     18  H   UNL     1      -5.406  -8.194   1.633  0.00  0.00    +0.156 HD
ENDROOT
BRANCH   1  22
ATOM     19  C   UNL     1      -1.326  -0.648  -0.006  0.00  0.00    -0.045 A 
ATOM     20  C   UNL     1      -1.729  -1.593  -0.931  0.00  0.00    +0.004 A 
ATOM     21  C   UNL     1      -3.034  -2.050  -0.928  0.00  0.00    +0.008 A 
ATOM     22  C   UNL     1      -3.935  -1.562  -0.001  0.00  0.00    -0.003 A 
ATOM     23  C   UNL     1      -3.532  -0.618   0.925  0.00  0.00    +0.008 A 
ATOM     24  C   UNL     1      -2.226  -0.164   0.925  0.00  0.00    +0.004 A 
BRANCH  19  26
ATOM     25  C   UNL     1       1.049  -1.325   0.217  0.00  0.00    +0.012 C 
ATOM     26  C   UNL     1       0.096  -0.149  -0.008  0.00  0.00    +0.013 C 
ATOM     27  C   UNL     1       0.405   0.505  -1.356  0.00  0.00    +0.012 C 
ENDBRANCH  19  26
ENDBRANCH   1  22
BRANCH  17  28
ATOM     28  C   UNL     1      -4.449  -3.067   2.751  0.00  0.00    -0.003 A 
ATOM     29  C   UNL     1      -4.699  -1.933   3.509  0.00  0.00    +0.009 A 
ATOM     30  C   UNL     1      -3.639  -1.341   4.178  0.00  0.00    +0.020 A 
ATOM     31  C   UNL     1      -2.378  -1.897   4.068  0.00  0.00    +0.111 A 
ATOM     32  N   UNL     1      -2.178  -2.976   3.338  0.00  0.00    -0.263 NA
ATOM     33  C   UNL     1      -3.163  -3.569   2.692  0.00  0.00    +0.116 A 
ENDBRANCH  17  28
TORSDOF 3
