REMARK  Name = ZINC21665515
REMARK  9 active torsions:
REMARK  status: ('A' for Active; 'I' for Inactive)
REMARK    1  A    between atoms: C_1  and  C_2
REMARK    2  A    between atoms: C_5  and  C_8
REMARK    3  A    between atoms: C_8  and  N_9
REMARK    4  A    between atoms: C_10  and  C_12
REMARK    5  A    between atoms: C_12  and  C_14
REMARK    6  A    between atoms: C_12  and  S_15
REMARK    7  A    between atoms: S_15  and  C_16
REMARK    8  A    between atoms: C_19  and  C_22
REMARK    9  A    between atoms: N_20  and  N_21
REMARK                            x       y       z     vdW  Elec       q    Type
REMARK                         _______ _______ _______ _____ _____    ______ ____
ROOT
ATOM      1  S   UNL     1       3.208  -8.210  -0.783  0.00  0.00    -0.072 S 
ENDROOT
BRANCH   1   2
ATOM      2  C   UNL     1       4.931  -8.569  -0.860  0.00  0.00    +0.209 A 
ATOM      3  N   UNL     1       5.910  -7.789  -0.461  0.00  0.00    -0.121 NA
ATOM      4  N   UNL     1       7.039  -8.367  -0.665  0.00  0.00    -0.132 NA
ATOM      5  C   UNL     1       6.852  -9.539  -1.202  0.00  0.00    +0.154 A 
ATOM      6  N   UNL     1       5.502  -9.712  -1.340  0.00  0.00    -0.228 N 
BRANCH   5   7
ATOM      7  C   UNL     1       7.923 -10.524  -1.592  0.00  0.00    +0.059 C 
ATOM      8  C   UNL     1       8.735 -10.912  -0.355  0.00  0.00    +0.011 C 
ATOM      9  C   UNL     1       9.823 -11.912  -0.751  0.00  0.00    +0.001 C 
ATOM     10  C   UNL     1      10.748 -11.275  -1.790  0.00  0.00    +0.000 C 
ATOM     11  C   UNL     1       9.936 -10.887  -3.027  0.00  0.00    +0.001 C 
ATOM     12  C   UNL     1       8.848  -9.887  -2.631  0.00  0.00    +0.011 C 
ENDBRANCH   5   7
BRANCH   6  13
ATOM     13  N   UNL     1       4.859 -10.802  -1.854  0.00  0.00    -0.295 N 
ATOM     14  H   UNL     1       4.730 -10.709  -2.850  0.00  0.00    +0.163 HD
ATOM     15  H   UNL     1       5.353 -11.653  -1.631  0.00  0.00    +0.163 HD
ENDBRANCH   6  13
ENDBRANCH   1   2
BRANCH   1  16
ATOM     16  C   UNL     1       3.137  -6.551  -0.051  0.00  0.00    +0.137 C 
ATOM     17  C   UNL     1       3.669  -6.604   1.383  0.00  0.00    +0.029 C 
BRANCH  16  19
ATOM     18  N   UNL     1       1.447  -4.746  -0.032  0.00  0.00    -0.310 N 
ATOM     19  C   UNL     1       1.710  -6.067  -0.040  0.00  0.00    +0.226 C 
ATOM     20  O   UNL     1       0.799  -6.867  -0.040  0.00  0.00    -0.275 OA
ATOM     21  H   UNL     1       2.176  -4.106  -0.032  0.00  0.00    +0.149 HD
BRANCH  18  22
ATOM     22  C   UNL     1       0.059  -4.275  -0.021  0.00  0.00    +0.139 C 
BRANCH  22  27
ATOM     23  C   UNL     1      -0.018   1.503   0.010  0.00  0.00    +0.044 C 
ATOM     24  C   UNL     1       0.002  -0.004   0.002  0.00  0.00    -0.050 A 
ATOM     25  C   UNL     1       0.006  -0.689  -1.199  0.00  0.00    +0.003 A 
ATOM     26  C   UNL     1       0.025  -2.071  -1.206  0.00  0.00    +0.005 A 
ATOM     27  C   UNL     1       0.040  -2.768  -0.013  0.00  0.00    -0.030 A 
ATOM     28  C   UNL     1       0.037  -2.084   1.188  0.00  0.00    +0.005 A 
ATOM     29  C   UNL     1       0.023  -0.702   1.195  0.00  0.00    +0.003 A 
ENDBRANCH  22  27
ENDBRANCH  18  22
ENDBRANCH  16  19
ENDBRANCH   1  16
TORSDOF 7
