REMARK  Name = ZINC06587727
REMARK  3 active torsions:
REMARK  status: ('A' for Active; 'I' for Inactive)
REMARK    1  A    between atoms: C_1  and  C_2
REMARK    2  A    between atoms: C_8  and  N_10
REMARK    3  A    between atoms: C_14  and  C_17
REMARK                            x       y       z     vdW  Elec       q    Type
REMARK                         _______ _______ _______ _____ _____    ______ ____
ROOT
ATOM      1  N   UNL     1       0.002  -0.004   0.002  0.00  0.00    -0.319 N 
ATOM      2  C   UNL     1       0.104  -0.683  -1.187  0.00  0.00    +0.176 C 
ATOM      3  N   UNL     1       0.183  -0.023  -2.319  0.00  0.00    -0.127 NA
ATOM      4  N   UNL     1       0.267  -0.554  -3.470  0.00  0.00    -0.150 NA
ATOM      5  C   UNL     1      -0.075  -1.754  -3.803  0.00  0.00    +0.084 C 
ATOM      6  C   UNL     1      -0.673  -2.719  -2.809  0.00  0.00    +0.135 C 
ATOM      7  S   UNL     1       0.135  -2.449  -1.202  0.00  0.00    -0.083 S 
ATOM      8  H   UNL     1      -0.057  -0.494   0.837  0.00  0.00    +0.148 HD
ENDROOT
BRANCH   5   9
ATOM      9  C   UNL     1       0.125  -2.193  -5.193  0.00  0.00    +0.037 A 
ATOM     10  C   UNL     1      -0.236  -3.487  -5.580  0.00  0.00    +0.051 A 
ATOM     11  C   UNL     1      -0.045  -3.892  -6.886  0.00  0.00    +0.124 A 
ATOM     12  C   UNL     1       0.504  -3.019  -7.813  0.00  0.00    +0.041 A 
ATOM     13  C   UNL     1       0.863  -1.737  -7.438  0.00  0.00    +0.042 A 
ATOM     14  C   UNL     1       0.673  -1.315  -6.136  0.00  0.00    +0.132 A 
ATOM     15  F   UNL     1       1.019  -0.061  -5.774  0.00  0.00    -0.205 F 
ATOM     16  F   UNL     1      -0.393  -5.142  -7.262  0.00  0.00    -0.205 F 
ENDBRANCH   5   9
BRANCH   1  23
ATOM     17  C   UNL     1      -2.169   1.425   1.280  0.00  0.00    +0.009 C 
ATOM     18  C   UNL     1      -0.734   1.954   1.269  0.00  0.00    +0.006 C 
ATOM     19  C   UNL     1       0.006   1.447   2.508  0.00  0.00    +0.005 C 
ATOM     20  C   UNL     1       1.441   1.977   2.498  0.00  0.00    +0.000 C 
ATOM     21  C   UNL     1       2.158   1.484   1.239  0.00  0.00    +0.002 C 
ATOM     22  C   UNL     1       1.418   1.990  -0.001  0.00  0.00    +0.022 C 
ATOM     23  C   UNL     1      -0.018   1.461   0.010  0.00  0.00    +0.075 C 
ENDBRANCH   1  23
TORSDOF 2
