REMARK  Name = ZINC39035093
REMARK  7 active torsions:
REMARK  status: ('A' for Active; 'I' for Inactive)
REMARK    1  A    between atoms: C_1  and  C_2
REMARK    2  A    between atoms: C_7  and  C_9
REMARK    3  A    between atoms: C_9  and  S_10
REMARK    4  A    between atoms: S_10  and  C_11
REMARK    5  A    between atoms: C_15  and  C_19
REMARK    6  A    between atoms: N_17  and  C_18
REMARK    7  A    between atoms: C_24  and  O_25
REMARK                            x       y       z     vdW  Elec       q    Type
REMARK                         _______ _______ _______ _____ _____    ______ ____
ROOT
ATOM      1  C   UNL     1       0.034  -7.833   4.015  0.00  0.00    +0.077 C 
ATOM      2  N   UNL     1       1.242  -7.585   4.835  0.00  0.00    -0.262 NA
ATOM      3  N   UNL     1       0.769  -7.683   6.225  0.00  0.00    -0.266 NA
ATOM      4  C   UNL     1      -0.577  -7.055   6.167  0.00  0.00    +0.053 C 
ATOM      5  N   UNL     1      -1.128  -7.495   4.863  0.00  0.00    +0.409 N 
ATOM      6  C   UNL     1      -1.979  -8.678   5.047  0.00  0.00    -0.090 C 
ATOM      7  H   UNL     1       1.955  -8.273   4.647  0.00  0.00    +0.140 HD
ATOM      8  H   UNL     1       0.706  -8.646   6.519  0.00  0.00    +0.139 HD
ATOM      9  H   UNL     1      -1.659  -6.747   4.441  0.00  0.00    -0.076 HD
ENDROOT
BRANCH   4  10
ATOM     10  C   UNL     1      -1.440  -7.549   7.300  0.00  0.00    -0.004 A 
ATOM     11  C   UNL     1      -1.185  -8.779   7.876  0.00  0.00    +0.022 A 
ATOM     12  C   UNL     1      -1.976  -9.233   8.916  0.00  0.00    +0.018 A 
ATOM     13  C   UNL     1      -3.024  -8.457   9.381  0.00  0.00    +0.019 A 
ATOM     14  C   UNL     1      -3.281  -7.227   8.808  0.00  0.00    +0.047 A 
ATOM     15  C   UNL     1      -2.485  -6.767   7.768  0.00  0.00    +0.120 A 
ATOM     16 BR   UNL     1      -1.627 -10.916   9.702  0.00  0.00    -0.050 Br
BRANCH  15  17
ATOM     17  O   UNL     1      -2.733  -5.555   7.206  0.00  0.00    -0.507 OA
ATOM     18  H   UNL     1      -3.351  -5.585   6.462  0.00  0.00    +0.292 HD
ENDBRANCH  15  17
ENDBRANCH   4  10
BRANCH   1  19
ATOM     19  S   UNL     1       0.056  -6.777   2.540  0.00  0.00    -0.150 S 
BRANCH  19  20
ATOM     20  C   UNL     1       0.150  -5.093   3.208  0.00  0.00    +0.164 C 
BRANCH  20  27
ATOM     21  C   UNL     1       0.420   1.681   0.306  0.00  0.00    +0.066 C 
ATOM     22  C   UNL     1       0.346   0.177   0.246  0.00  0.00    +0.047 A 
ATOM     23  C   UNL     1       0.292  -0.482  -0.937  0.00  0.00    +0.071 A 
ATOM     24  S   UNL     1       0.222  -2.174  -0.372  0.00  0.00    -0.060 S 
ATOM     25  C   UNL     1       0.268  -1.869   1.282  0.00  0.00    +0.165 A 
ATOM     26  N   UNL     1       0.245  -2.782   2.330  0.00  0.00    -0.264 N 
ATOM     27  C   UNL     1       0.176  -4.103   2.072  0.00  0.00    +0.228 C 
ATOM     28  O   UNL     1       0.135  -4.495   0.925  0.00  0.00    -0.275 OA
ATOM     29  N   UNL     1       0.337  -0.557   1.343  0.00  0.00    -0.230 NA
ATOM     30  H   UNL     1       0.278  -2.468   3.248  0.00  0.00    +0.157 HD
ENDBRANCH  20  27
ENDBRANCH  19  20
ENDBRANCH   1  19
TORSDOF 5
