REMARK  Name = ZINC28248885
REMARK  8 active torsions:
REMARK  status: ('A' for Active; 'I' for Inactive)
REMARK    1  A    between atoms: C_1  and  C_2
REMARK    2  A    between atoms: C_3  and  C_23
REMARK    3  A    between atoms: N_7  and  S_8
REMARK    4  A    between atoms: S_8  and  C_11
REMARK    5  A    between atoms: C_14  and  O_21
REMARK    6  A    between atoms: C_15  and  N_17
REMARK    7  A    between atoms: C_18  and  C_20
REMARK    8  A    between atoms: O_21  and  C_22
REMARK                            x       y       z     vdW  Elec       q    Type
REMARK                         _______ _______ _______ _____ _____    ______ ____
ROOT
ATOM      1  C   UNL     1       4.600  -0.603   1.485  0.00  0.00    +0.115 A 
ATOM      2  C   UNL     1       4.753   0.768   1.577  0.00  0.00    +0.033 A 
ATOM      3  C   UNL     1       5.152   1.344   2.768  0.00  0.00    +0.049 A 
ATOM      4  C   UNL     1       5.411   0.546   3.872  0.00  0.00    +0.141 A 
ATOM      5  C   UNL     1       5.262  -0.835   3.778  0.00  0.00    +0.077 A 
ATOM      6  C   UNL     1       4.856  -1.406   2.580  0.00  0.00    +0.056 A 
ENDROOT
BRANCH   5   7
ATOM      7  N   UNL     1       5.522  -1.647   4.890  0.00  0.00    -0.283 N 
ATOM      8  C   UNL     1       5.870  -2.937   4.716  0.00  0.00    +0.214 C 
ATOM      9  O   UNL     1       6.056  -3.370   3.599  0.00  0.00    -0.276 OA
ATOM     10  C   UNL     1       6.027  -3.843   5.911  0.00  0.00    +0.109 C 
ATOM     11  H   UNL     1       5.442  -1.231   5.905  0.00  0.00    +0.155 HD
ENDBRANCH   5   7
BRANCH   1  12
ATOM     12  S   UNL     1       4.085  -1.330  -0.036  0.00  0.00    +0.101 S 
ATOM     13  O   UNL     1       4.548  -2.673  -0.022  0.00  0.00    -0.146 OA
ATOM     14  O   UNL     1       4.436  -0.413  -1.063  0.00  0.00    -0.146 OA
BRANCH  12  21
ATOM     15  C   UNL     1       1.748   3.452   0.020  0.00  0.00    +0.064 C 
ATOM     16  C   UNL     1       1.257   2.028   0.024  0.00  0.00    +0.025 A 
ATOM     17  C   UNL     1      -0.069   1.752   0.044  0.00  0.00    +0.009 A 
ATOM     18  S   UNL     1      -0.038  -0.034   0.038  0.00  0.00    -0.053 S 
ATOM     19  C   UNL     1       1.687  -0.230   0.008  0.00  0.00    +0.192 A 
ATOM     20  N   UNL     1       2.109   1.020   0.006  0.00  0.00    -0.336 N 
ATOM     21  N   UNL     1       2.430  -1.400  -0.009  0.00  0.00    -0.103 NA
ATOM     22  C   UNL     1      -1.246   2.693   0.062  0.00  0.00    +0.053 C 
ATOM     23  H   UNL     1       3.191   1.215  -0.011  0.00  0.00    +0.168 HD
ENDBRANCH  12  21
ENDBRANCH   1  12
BRANCH   4  24
ATOM     24  O   UNL     1       5.809   1.111   5.043  0.00  0.00    -0.493 OA
ATOM     25  C   UNL     1       5.940   2.534   5.065  0.00  0.00    +0.277 C 
ENDBRANCH   4  24
TORSDOF 4
