REMARK  Name = ZINC54043336
REMARK  12 active torsions:
REMARK  status: ('A' for Active; 'I' for Inactive)
REMARK    1  A    between atoms: C_1  and  C_2
REMARK    2  A    between atoms: C_2  and  C_3
REMARK    3  A    between atoms: C_6  and  C_9
REMARK    4  A    between atoms: C_9  and  C_11
REMARK    5  A    between atoms: C_9  and  N_26
REMARK    6  A    between atoms: C_11  and  N_12
REMARK    7  A    between atoms: N_15  and  N_16
REMARK    8  A    between atoms: C_17  and  C_19
REMARK    9  A    between atoms: C_21  and  C_25
REMARK   10  A    between atoms: C_23  and  C_24
REMARK   11  A    between atoms: N_26  and  C_27
REMARK   12  A    between atoms: N_26  and  C_28
REMARK                            x       y       z     vdW  Elec       q    Type
REMARK                         _______ _______ _______ _____ _____    ______ ____
ROOT
ATOM      1  N   UNL     1       4.301  -0.199   4.483  0.00  0.00    -0.299 N 
ATOM      2  C   UNL     1       4.883   0.909   4.984  0.00  0.00    +0.316 C 
ATOM      3  O   UNL     1       4.527   1.350   6.059  0.00  0.00    -0.251 OA
ATOM      4  N   UNL     1       5.859   1.530   4.291  0.00  0.00    -0.218 N 
ATOM      5  H   UNL     1       4.585  -0.550   3.625  0.00  0.00    +0.150 HD
ATOM      6  H   UNL     1       6.277   2.327   4.651  0.00  0.00    +0.174 HD
ENDROOT
BRANCH   4   7
ATOM      7  N   UNL     1       6.269   1.022   3.051  0.00  0.00    -0.229 N 
ATOM      8  C   UNL     1       7.245   1.642   2.359  0.00  0.00    +0.263 C 
ATOM      9  O   UNL     1       7.770   2.642   2.811  0.00  0.00    -0.269 OA
ATOM     10  H   UNL     1       5.851   0.225   2.691  0.00  0.00    +0.173 HD
BRANCH   8  11
ATOM     11  C   UNL     1       7.677   1.109   1.055  0.00  0.00    +0.079 A 
ATOM     12  C   UNL     1       7.151  -0.077   0.362  0.00  0.00    +0.057 A 
ATOM     13  C   UNL     1       7.844  -0.171  -0.783  0.00  0.00    +0.103 A 
ATOM     14  O   UNL     1       8.729   0.836  -0.847  0.00  0.00    -0.464 OA
ATOM     15  C   UNL     1       8.643   1.615   0.236  0.00  0.00    +0.114 A 
ATOM     16  C   UNL     1       9.476   2.841   0.508  0.00  0.00    +0.087 C 
ATOM     17  C   UNL     1       7.657  -1.238  -1.832  0.00  0.00    +0.086 C 
ENDBRANCH   8  11
ENDBRANCH   4   7
BRANCH   1  18
ATOM     18  C   UNL     1       3.240  -0.873   5.236  0.00  0.00    +0.095 C 
BRANCH  18  19
ATOM     19  C   UNL     1       2.821  -2.146   4.497  0.00  0.00    -0.021 C 
BRANCH  19  23
ATOM     20  C   UNL     1       1.098  -1.107   0.729  0.00  0.00    -0.048 A 
ATOM     21  C   UNL     1       2.411  -1.534   0.794  0.00  0.00    +0.004 A 
ATOM     22  C   UNL     1       2.969  -1.870   2.014  0.00  0.00    +0.002 A 
ATOM     23  C   UNL     1       2.213  -1.778   3.168  0.00  0.00    -0.059 A 
ATOM     24  C   UNL     1       0.901  -1.350   3.103  0.00  0.00    +0.002 A 
ATOM     25  C   UNL     1       0.344  -1.010   1.884  0.00  0.00    +0.004 A 
BRANCH  20  27
ATOM     26  C   UNL     1       0.725   0.746  -0.876  0.00  0.00    +0.009 C 
ATOM     27  C   UNL     1       0.490  -0.741  -0.600  0.00  0.00    +0.032 C 
ENDBRANCH  20  27
ENDBRANCH  19  23
BRANCH  19  28
ATOM     28  N   UNL     1       1.833  -2.876   5.303  0.00  0.00    +0.382 N 
ATOM     29  C   UNL     1       1.397  -4.074   4.574  0.00  0.00    -0.096 C 
ATOM     30  C   UNL     1       2.440  -3.273   6.580  0.00  0.00    -0.096 C 
ATOM     31  H   UNL     1       1.037  -2.281   5.479  0.00  0.00    -0.082 HD
ENDBRANCH  19  28
ENDBRANCH  18  19
ENDBRANCH   1  18
TORSDOF 7
