REMARK  Name = ZINC20696881
REMARK  8 active torsions:
REMARK  status: ('A' for Active; 'I' for Inactive)
REMARK    1  A    between atoms: C_1  and  C_2
REMARK    2  A    between atoms: C_2  and  N_3
REMARK    3  A    between atoms: N_3  and  C_4
REMARK    4  A    between atoms: N_3  and  C_6
REMARK    5  A    between atoms: C_4  and  C_5
REMARK    6  A    between atoms: C_9  and  C_12
REMARK    7  A    between atoms: C_23  and  N_29
REMARK    8  A    between atoms: C_25  and  O_28
REMARK                            x       y       z     vdW  Elec       q    Type
REMARK                         _______ _______ _______ _____ _____    ______ ____
ROOT
ATOM      1  C   UNL     1      -0.013   1.086   0.008  0.00  0.00    +0.105 C 
ATOM      2  C   UNL     1       1.404   1.621  -0.003  0.00  0.00    +0.029 C 
ATOM      3  C   UNL     1       2.328   1.189  -1.147  0.00  0.00    +0.033 C 
ATOM      4  C   UNL     1       3.699   1.243  -0.468  0.00  0.00    -0.030 C 
ATOM      5  C   UNL     1       3.563   1.065   0.842  0.00  0.00    -0.023 C 
ATOM      6  C   UNL     1       2.127   0.844   1.141  0.00  0.00    +0.049 C 
ATOM      7  C   UNL     1       1.502   1.277   2.410  0.00  0.00    -0.014 A 
ATOM      8  C   UNL     1       2.226   1.366   3.582  0.00  0.00    +0.039 A 
ATOM      9  C   UNL     1       1.615   1.759   4.757  0.00  0.00    +0.130 A 
ATOM     10  C   UNL     1       0.266   2.064   4.759  0.00  0.00    +0.080 A 
ATOM     11  C   UNL     1      -0.466   1.983   3.591  0.00  0.00    +0.140 A 
ATOM     12  C   UNL     1       0.143   1.594   2.391  0.00  0.00    +0.074 A 
ATOM     13  N   UNL     1      -0.650   1.572   1.242  0.00  0.00    -0.334 N 
ATOM     14  H   UNL     1      -1.701   1.896   1.228  0.00  0.00    +0.147 HD
ENDROOT
BRANCH   1  18
ATOM     15  C   UNL     1      -2.143   2.532  -3.404  0.00  0.00    +0.030 A 
ATOM     16  C   UNL     1      -1.634   1.239  -3.397  0.00  0.00    +0.023 A 
ATOM     17  C   UNL     1      -0.946   0.775  -2.293  0.00  0.00    +0.007 A 
ATOM     18  C   UNL     1      -0.764   1.596  -1.195  0.00  0.00    -0.027 A 
ATOM     19  C   UNL     1      -1.274   2.881  -1.196  0.00  0.00    +0.007 A 
ATOM     20  C   UNL     1      -1.958   3.353  -2.299  0.00  0.00    +0.023 A 
BRANCH  15  21
ATOM     21  N   UNL     1      -2.839   3.004  -4.518  0.00  0.00    -0.330 N 
BRANCH  21  23
ATOM     22  C   UNL     1      -2.327   5.326  -5.092  0.00  0.00    +0.024 C 
ATOM     23  C   UNL     1      -3.375   4.368  -4.523  0.00  0.00    +0.102 C 
ENDBRANCH  21  23
BRANCH  21  24
ATOM     24  C   UNL     1      -3.034   2.136  -5.683  0.00  0.00    +0.102 C 
ATOM     25  C   UNL     1      -4.336   1.351  -5.521  0.00  0.00    +0.024 C 
ENDBRANCH  21  24
ENDBRANCH  15  21
ENDBRANCH   1  18
BRANCH   9  26
ATOM     26  N   UNL     1       2.401   1.854   6.008  0.00  0.00    +0.057 N 
ATOM     27  O   UNL     1       3.589   1.585   6.003  0.00  0.00    -0.126 OA
ATOM     28  O   UNL     1       1.860   2.201   7.043  0.00  0.00    -0.126 OA
ENDBRANCH   9  26
BRANCH  11  29
ATOM     29  O   UNL     1      -1.792   2.285   3.606  0.00  0.00    -0.505 OA
ATOM     30  H   UNL     1      -2.380   2.222   2.678  0.00  0.00    +0.292 HD
ENDBRANCH  11  29
TORSDOF 6
