REMARK  Name = ZINC44883009
REMARK  6 active torsions:
REMARK  status: ('A' for Active; 'I' for Inactive)
REMARK    1  A    between atoms: C_1  and  C_2
REMARK    2  A    between atoms: C_2  and  N_9
REMARK    3  A    between atoms: C_10  and  C_12
REMARK    4  A    between atoms: C_17  and  C_18
REMARK    5  A    between atoms: C_19  and  C_20
REMARK    6  A    between atoms: C_20  and  N_21
REMARK                            x       y       z     vdW  Elec       q    Type
REMARK                         _______ _______ _______ _____ _____    ______ ____
ROOT
ATOM      1  C   UNL     1      -3.645  -0.639  -0.850  0.00  0.00    +0.052 A 
ATOM      2  C   UNL     1      -4.059  -1.453   0.204  0.00  0.00    +0.014 A 
ATOM      3  C   UNL     1      -5.361  -1.909   0.253  0.00  0.00    +0.001 A 
ATOM      4  C   UNL     1      -6.263  -1.563  -0.740  0.00  0.00    +0.001 A 
ATOM      5  C   UNL     1      -5.873  -0.760  -1.791  0.00  0.00    +0.017 A 
ATOM      6  C   UNL     1      -4.564  -0.283  -1.856  0.00  0.00    +0.037 A 
ENDROOT
BRANCH   1   8
ATOM      7  N   UNL     1      -1.378  -0.491   0.059  0.00  0.00    -0.304 N 
ATOM      8  C   UNL     1      -2.254  -0.148  -0.907  0.00  0.00    +0.246 C 
ATOM      9  O   UNL     1      -1.898   0.565  -1.825  0.00  0.00    -0.270 OA
ATOM     10  H   UNL     1      -1.662  -1.060   0.791  0.00  0.00    +0.150 HD
BRANCH   7  12
ATOM     11  C   UNL     1      -0.019   1.526   0.010  0.00  0.00    +0.033 C 
ATOM     12  C   UNL     1       0.002  -0.004   0.002  0.00  0.00    +0.053 C 
ATOM     13  C   UNL     1       0.632  -0.478  -1.307  0.00  0.00    +0.049 C 
ATOM     14  C   UNL     1       2.169  -0.637  -1.140  0.00  0.00    +0.168 C 
ATOM     15  S   UNL     1       2.220  -1.358   0.560  0.00  0.00    -0.029 S 
ATOM     16  O   UNL     1       3.389  -0.902   1.226  0.00  0.00    -0.174 OA
ATOM     17  O   UNL     1       1.952  -2.752   0.484  0.00  0.00    -0.174 OA
ATOM     18  C   UNL     1       0.751  -0.495   1.257  0.00  0.00    +0.191 C 
ENDBRANCH   7  12
ENDBRANCH   1   8
BRANCH   6  19
ATOM     19  C   UNL     1      -4.155   0.556  -2.941  0.00  0.00    -0.067 C 
ATOM     20  C   UNL     1      -3.820   1.245  -3.831  0.00  0.00    -0.117 C 
BRANCH  20  21
ATOM     21  C   UNL     1      -3.400   2.108  -4.947  0.00  0.00    +0.005 C 
BRANCH  21  22
ATOM     22  N   UNL     1      -4.536   2.327  -5.852  0.00  0.00    +0.385 N 
ATOM     23  H   UNL     1      -5.288   2.772  -5.347  0.00  0.00    -0.089 HD
ATOM     24  H   UNL     1      -4.248   2.918  -6.617  0.00  0.00    -0.089 HD
ATOM     25  H   UNL     1      -4.853   1.440  -6.214  0.00  0.00    -0.089 HD
ENDBRANCH  21  22
ENDBRANCH  20  21
ENDBRANCH   6  19
TORSDOF 5
