REMARK  Name = ZINC12660522
REMARK  11 active torsions:
REMARK  status: ('A' for Active; 'I' for Inactive)
REMARK    1  A    between atoms: C_1  and  N_56
REMARK    2  A    between atoms: C_8  and  O_26
REMARK    3  A    between atoms: C_10  and  C_12
REMARK    4  A    between atoms: C_12  and  C_13
REMARK    5  A    between atoms: C_13  and  C_15
REMARK    6  A    between atoms: C_13  and  O_25
REMARK    7  A    between atoms: C_18  and  O_23
REMARK    8  A    between atoms: C_20  and  O_21
REMARK    9  A    between atoms: O_21  and  C_22
REMARK   10  A    between atoms: O_23  and  C_24
REMARK   11  A    between atoms: O_26  and  C_27
REMARK                            x       y       z     vdW  Elec       q    Type
REMARK                         _______ _______ _______ _____ _____    ______ ____
ROOT
ATOM      1  C   UNL     1       0.554   0.665  -0.108  0.00  0.00    -0.095 C 
ATOM      2  C   UNL     1      -0.357   2.783   0.639  0.00  0.00    -0.074 C 
ATOM      3  C   UNL     1      -1.577   3.375   1.345  0.00  0.00    +0.017 C 
ATOM      4  C   UNL     1      -1.660   2.852   2.756  0.00  0.00    -0.040 A 
ATOM      5  C   UNL     1      -2.471   3.522   3.661  0.00  0.00    +0.053 A 
ATOM      6  C   UNL     1      -2.587   3.075   4.966  0.00  0.00    +0.170 A 
ATOM      7  C   UNL     1      -1.883   1.945   5.372  0.00  0.00    +0.208 A 
ATOM      8  C   UNL     1      -1.072   1.279   4.466  0.00  0.00    +0.167 A 
ATOM      9  C   UNL     1      -0.959   1.734   3.155  0.00  0.00    -0.012 A 
ATOM     10  C   UNL     1      -0.063   0.979   2.210  0.00  0.00    -0.031 C 
ATOM     11  O   UNL     1      -2.162   1.707   6.688  0.00  0.00    -0.449 OA
ATOM     12  C   UNL     1      -3.356   2.460   6.971  0.00  0.00    +0.467 C 
ATOM     13  O   UNL     1      -3.306   3.546   6.026  0.00  0.00    -0.452 OA
ATOM     14  N   UNL     1      -0.400   1.317   0.817  0.00  0.00    +0.383 N 
ATOM     15  H   UNL     1      -1.348   0.982   0.611  0.00  0.00    -0.081 HD
ENDROOT
BRANCH   8  16
ATOM     16  O   UNL     1      -0.382   0.175   4.859  0.00  0.00    -0.491 OA
ATOM     17  C   UNL     1       0.930   0.384   5.387  0.00  0.00    +0.277 C 
ENDBRANCH   8  16
BRANCH  10  18
ATOM     18  C   UNL     1      -0.263  -0.524   2.416  0.00  0.00    +0.025 C 
BRANCH  18  19
ATOM     19  C   UNL     1      -1.746  -0.866   2.264  0.00  0.00    +0.147 C 
BRANCH  19  20
ATOM     20  C   UNL     1      -1.948  -2.341   2.501  0.00  0.00    +0.023 A 
ATOM     21  C   UNL     1      -1.981  -3.214   1.430  0.00  0.00    +0.013 A 
ATOM     22  C   UNL     1      -2.162  -4.567   1.645  0.00  0.00    +0.046 A 
ATOM     23  C   UNL     1      -2.321  -5.051   2.936  0.00  0.00    +0.124 A 
ATOM     24  C   UNL     1      -2.293  -4.176   4.011  0.00  0.00    +0.091 A 
ATOM     25  C   UNL     1      -2.107  -2.820   3.793  0.00  0.00    +0.129 A 
BRANCH  25  26
ATOM     26  O   UNL     1      -2.080  -1.960   4.846  0.00  0.00    -0.495 OA
ATOM     27  C   UNL     1      -2.250  -2.523   6.148  0.00  0.00    +0.277 C 
ENDBRANCH  25  26
BRANCH  23  28
ATOM     28  O   UNL     1      -2.503  -6.381   3.146  0.00  0.00    -0.495 OA
ATOM     29  C   UNL     1      -2.520  -7.224   1.992  0.00  0.00    +0.277 C 
ENDBRANCH  23  28
ENDBRANCH  19  20
BRANCH  19  30
ATOM     30  O   UNL     1      -2.179  -0.532   0.944  0.00  0.00    -0.387 OA
ATOM     31  H   UNL     1      -1.705  -1.002   0.244  0.00  0.00    +0.210 HD
ENDBRANCH  19  30
ENDBRANCH  18  19
ENDBRANCH  10  18
TORSDOF 7
