REMARK  Name = ZINC47243228
REMARK  4 active torsions:
REMARK  status: ('A' for Active; 'I' for Inactive)
REMARK    1  A    between atoms: C_1  and  C_2
REMARK    2  A    between atoms: C_4  and  O_5
REMARK    3  A    between atoms: C_14  and  C_16
REMARK    4  A    between atoms: C_21  and  N_22
REMARK                            x       y       z     vdW  Elec       q    Type
REMARK                         _______ _______ _______ _____ _____    ______ ____
ROOT
ATOM      1  C   UNL     1       0.190   1.407  -0.083  0.00  0.00    +0.045 C 
ATOM      2  C   UNL     1      -0.194  -0.049  -0.031  0.00  0.00    -0.033 A 
ATOM      3  C   UNL     1      -0.608  -0.711  -1.171  0.00  0.00    +0.091 A 
ATOM      4  C   UNL     1      -0.956  -2.052  -1.103  0.00  0.00    +0.285 A 
ATOM      5  O   UNL     1      -0.902  -2.729   0.049  0.00  0.00    -0.425 OA
ATOM      6  C   UNL     1      -0.505  -2.131   1.192  0.00  0.00    +0.141 A 
ATOM      7  C   UNL     1      -0.133  -0.768   1.181  0.00  0.00    +0.021 A 
ATOM      8  C   UNL     1       0.287  -0.142   2.369  0.00  0.00    +0.013 A 
ATOM      9  C   UNL     1       0.339  -0.851   3.526  0.00  0.00    +0.024 A 
ATOM     10  C   UNL     1      -0.025  -2.210   3.546  0.00  0.00    +0.037 A 
ATOM     11  C   UNL     1      -0.453  -2.842   2.377  0.00  0.00    +0.070 A 
ATOM     12  N   UNL     1       0.032  -2.908   4.710  0.00  0.00    -0.281 N 
ATOM     13  C   UNL     1      -0.003  -4.234   4.691  0.00  0.00    +0.250 C 
ATOM     14  O   UNL     1       0.034  -4.831   3.626  0.00  0.00    -0.270 OA
ATOM     15  H   UNL     1       0.099  -2.437   5.555  0.00  0.00    +0.155 HD
ENDROOT
BRANCH  13  16
ATOM     16  C   UNL     1      -0.088  -4.991   5.960  0.00  0.00    +0.062 A 
ATOM     17  C   UNL     1      -1.202  -4.849   6.788  0.00  0.00    +0.015 A 
ATOM     18  C   UNL     1      -1.276  -5.556   7.970  0.00  0.00    +0.001 A 
ATOM     19  C   UNL     1      -0.248  -6.408   8.339  0.00  0.00    +0.002 A 
ATOM     20  C   UNL     1       0.860  -6.558   7.528  0.00  0.00    +0.028 A 
ATOM     21  C   UNL     1       0.946  -5.858   6.333  0.00  0.00    +0.077 A 
BRANCH  21  22
ATOM     22  N   UNL     1       2.064  -6.013   5.508  0.00  0.00    -0.239 N 
ATOM     23  C   UNL     1       3.169  -6.753   5.787  0.00  0.00    +0.114 A 
ATOM     24  C   UNL     1       4.013  -6.641   4.736  0.00  0.00    +0.041 A 
ATOM     25  C   UNL     1       3.410  -5.811   3.784  0.00  0.00    +0.135 A 
ATOM     26  N   UNL     1       2.242  -5.439   4.242  0.00  0.00    -0.175 NA
ENDBRANCH  21  22
ENDBRANCH  13  16
BRANCH   4  27
ATOM     27  O   UNL     1      -1.358  -2.686  -2.222  0.00  0.00    -0.480 OA
ATOM     28  H   UNL     1      -1.582  -3.617  -2.087  0.00  0.00    +0.295 HD
ENDBRANCH   4  27
TORSDOF 3
