REMARK  Name = ZINC39933369
REMARK  9 active torsions:
REMARK  status: ('A' for Active; 'I' for Inactive)
REMARK    1  A    between atoms: C_1  and  C_2
REMARK    2  A    between atoms: C_2  and  C_4
REMARK    3  A    between atoms: C_2  and  N_14
REMARK    4  A    between atoms: C_7  and  S_10
REMARK    5  A    between atoms: S_10  and  N_13
REMARK    6  A    between atoms: C_15  and  C_17
REMARK    7  A    between atoms: C_17  and  S_18
REMARK    8  A    between atoms: S_18  and  C_19
REMARK    9  A    between atoms: C_23  and  C_25
REMARK                            x       y       z     vdW  Elec       q    Type
REMARK                         _______ _______ _______ _____ _____    ______ ____
ROOT
ATOM      1  N   UNL     1      -1.372  -0.511   0.012  0.00  0.00    -0.308 N 
ATOM      2  C   UNL     1      -2.029  -0.655   1.181  0.00  0.00    +0.223 C 
ATOM      3  O   UNL     1      -1.481  -0.365   2.224  0.00  0.00    -0.275 OA
ATOM      4  H   UNL     1      -1.810  -0.743  -0.822  0.00  0.00    +0.149 HD
ENDROOT
BRANCH   1   6
ATOM      5  C   UNL     1      -0.019   1.526   0.010  0.00  0.00    +0.033 C 
ATOM      6  C   UNL     1       0.002  -0.004   0.002  0.00  0.00    +0.100 C 
BRANCH   6   7
ATOM      7  C   UNL     1       0.707  -0.490  -1.238  0.00  0.00    -0.027 A 
ATOM      8  C   UNL     1       0.038  -0.522  -2.447  0.00  0.00    +0.007 A 
ATOM      9  C   UNL     1       0.685  -0.967  -3.584  0.00  0.00    +0.029 A 
ATOM     10  C   UNL     1       2.002  -1.381  -3.513  0.00  0.00    +0.105 A 
ATOM     11  C   UNL     1       2.672  -1.349  -2.304  0.00  0.00    +0.029 A 
ATOM     12  C   UNL     1       2.026  -0.899  -1.167  0.00  0.00    +0.007 A 
BRANCH  10  13
ATOM     13  S   UNL     1       2.826  -1.951  -4.962  0.00  0.00    +0.056 S 
ATOM     14  O   UNL     1       3.882  -2.794  -4.524  0.00  0.00    -0.153 OA
ATOM     15  O   UNL     1       1.815  -2.397  -5.855  0.00  0.00    -0.153 OA
BRANCH  13  16
ATOM     16  N   UNL     1       3.535  -0.633  -5.671  0.00  0.00    -0.204 NA
ATOM     17  H   UNL     1       4.352  -0.739  -6.184  0.00  0.00    +0.144 HD
ATOM     18  H   UNL     1       3.135   0.245  -5.574  0.00  0.00    +0.144 HD
ENDBRANCH  13  16
ENDBRANCH  10  13
ENDBRANCH   6   7
ENDBRANCH   1   6
BRANCH   2  19
ATOM     19  C   UNL     1      -3.442  -1.177   1.191  0.00  0.00    +0.170 C 
BRANCH  19  20
ATOM     20  S   UNL     1      -4.045  -1.255   2.901  0.00  0.00    -0.087 S 
BRANCH  20  21
ATOM     21  C   UNL     1      -5.736  -1.894   2.741  0.00  0.00    +0.339 C 
ATOM     22  N   UNL     1      -6.541  -1.008   1.883  0.00  0.00    -0.219 N 
ATOM     23  N   UNL     1      -6.934  -1.797   0.792  0.00  0.00    -0.145 NA
ATOM     24  C   UNL     1      -6.460  -3.008   0.919  0.00  0.00    +0.238 C 
ATOM     25  O   UNL     1      -5.732  -3.154   2.057  0.00  0.00    -0.443 OA
ATOM     26  H   UNL     1      -6.754  -0.075   2.040  0.00  0.00    +0.173 HD
BRANCH  24  27
ATOM     27  C   UNL     1      -6.677  -4.036  -0.009  0.00  0.00    +0.043 C 
ATOM     28  C   UNL     1      -7.406  -3.960  -1.197  0.00  0.00    +0.008 A 
ATOM     29  C   UNL     1      -8.114  -2.908  -1.815  0.00  0.00    +0.010 A 
ATOM     30  C   UNL     1      -8.745  -3.124  -2.998  0.00  0.00    +0.001 A 
ATOM     31  C   UNL     1      -8.713  -4.370  -3.626  0.00  0.00    +0.002 A 
ATOM     32  C   UNL     1      -8.053  -5.426  -3.089  0.00  0.00    +0.026 A 
ATOM     33  C   UNL     1      -7.369  -5.276  -1.855  0.00  0.00    +0.043 A 
ATOM     34  N   UNL     1      -6.667  -6.131  -1.137  0.00  0.00    -0.380 N 
ATOM     35  C   UNL     1      -6.166  -5.457   0.065  0.00  0.00    +0.154 C 
ATOM     36  H   UNL     1      -6.504  -7.058  -1.370  0.00  0.00    +0.160 HD
ENDBRANCH  24  27
ENDBRANCH  20  21
ENDBRANCH  19  20
ENDBRANCH   2  19
TORSDOF 8
