REMARK  Name = ZINC36696887
REMARK  6 active torsions:
REMARK  status: ('A' for Active; 'I' for Inactive)
REMARK    1  A    between atoms: C_1  and  C_2
REMARK    2  A    between atoms: C_7  and  N_12
REMARK    3  A    between atoms: C_9  and  C_11
REMARK    4  A    between atoms: C_13  and  C_15
REMARK    5  A    between atoms: C_17  and  N_27
REMARK    6  A    between atoms: C_20  and  N_21
REMARK                            x       y       z     vdW  Elec       q    Type
REMARK                         _______ _______ _______ _____ _____    ______ ____
ROOT
ATOM      1  C   UNL     1       1.347  -0.322   6.047  0.00  0.00    +0.060 A 
ATOM      2  C   UNL     1       2.133  -1.475   5.974  0.00  0.00    +0.047 A 
ATOM      3  C   UNL     1       2.797  -1.926   7.094  0.00  0.00    +0.127 A 
ATOM      4  C   UNL     1       2.689  -1.242   8.295  0.00  0.00    +0.034 A 
ATOM      5  C   UNL     1       1.917  -0.103   8.383  0.00  0.00    +0.026 A 
ATOM      6  C   UNL     1       1.245   0.371   7.263  0.00  0.00    +0.042 A 
ENDROOT
BRANCH   6   7
ATOM      7  N   UNL     1       0.472   1.522   7.348  0.00  0.00    -0.325 N 
ATOM      8  C   UNL     1      -0.952   1.453   7.714  0.00  0.00    +0.133 C 
ATOM      9  C   UNL     1      -1.209   2.453   8.846  0.00  0.00    +0.178 C 
ATOM     10  O   UNL     1      -0.714   3.738   8.461  0.00  0.00    -0.377 OA
ATOM     11  C   UNL     1       0.697   3.779   8.239  0.00  0.00    +0.178 C 
ATOM     12  C   UNL     1       1.054   2.847   7.081  0.00  0.00    +0.133 C 
ENDBRANCH   6   7
BRANCH   1  14
ATOM     13  N   UNL     1       0.735  -0.503   3.687  0.00  0.00    -0.308 N 
ATOM     14  C   UNL     1       0.634   0.166   4.853  0.00  0.00    +0.246 C 
ATOM     15  O   UNL     1      -0.045   1.173   4.919  0.00  0.00    -0.270 OA
ATOM     16  H   UNL     1       1.276  -1.306   3.634  0.00  0.00    +0.149 HD
BRANCH  13  22
ATOM     17  C   UNL     1      -0.019   1.526   0.010  0.00  0.00    +0.008 C 
ATOM     18  C   UNL     1       0.002  -0.004   0.002  0.00  0.00    -0.009 C 
ATOM     19  C   UNL     1      -1.433  -0.534   0.013  0.00  0.00    +0.003 C 
ATOM     20  C   UNL     1      -2.149  -0.040   1.272  0.00  0.00    +0.002 C 
ATOM     21  C   UNL     1      -1.409  -0.547   2.511  0.00  0.00    +0.022 C 
ATOM     22  C   UNL     1       0.026  -0.018   2.500  0.00  0.00    +0.076 C 
ATOM     23  C   UNL     1       0.742  -0.511   1.242  0.00  0.00    +0.009 C 
ATOM     24  C   UNL     1       2.178   0.019   1.231  0.00  0.00    +0.009 C 
ENDBRANCH  13  22
ENDBRANCH   1  14
BRANCH   3  25
ATOM     25  N   UNL     1       3.628  -3.148   7.014  0.00  0.00    +0.056 N 
ATOM     26  O   UNL     1       3.724  -3.747   5.968  0.00  0.00    -0.126 OA
ATOM     27  O   UNL     1       4.212  -3.547   7.995  0.00  0.00    -0.126 OA
ENDBRANCH   3  25
TORSDOF 4
