REMARK  Name = ZINC43418441
REMARK  14 active torsions:
REMARK  status: ('A' for Active; 'I' for Inactive)
REMARK    1  A    between atoms: C_1  and  C_2
REMARK    2  A    between atoms: C_2  and  N_3
REMARK    3  A    between atoms: N_3  and  C_4
REMARK    4  A    between atoms: N_3  and  C_6
REMARK    5  A    between atoms: C_4  and  C_5
REMARK    6  A    between atoms: C_6  and  C_8
REMARK    7  A    between atoms: C_6  and  C_12
REMARK    8  A    between atoms: C_8  and  C_9
REMARK    9  A    between atoms: C_9  and  C_10
REMARK   10  A    between atoms: C_9  and  C_11
REMARK   11  A    between atoms: C_12  and  N_13
REMARK   12  A    between atoms: N_16  and  C_17
REMARK   13  A    between atoms: C_20  and  S_23
REMARK   14  A    between atoms: S_23  and  C_26
REMARK                            x       y       z     vdW  Elec       q    Type
REMARK                         _______ _______ _______ _____ _____    ______ ____
ROOT
ATOM      1  N   UNL     1       2.393  -2.692   1.956  0.00  0.00    -0.301 N 
ATOM      2  C   UNL     1       2.645  -3.594   2.926  0.00  0.00    +0.304 C 
ATOM      3  O   UNL     1       3.308  -3.276   3.894  0.00  0.00    -0.253 OA
ATOM      4  N   UNL     1       2.162  -4.848   2.822  0.00  0.00    -0.269 N 
ATOM      5  H   UNL     1       1.864  -2.946   1.183  0.00  0.00    +0.150 HD
ATOM      6  H   UNL     1       1.705  -5.126   2.013  0.00  0.00    +0.156 HD
ENDROOT
BRANCH   4   7
ATOM      7  C   UNL     1       2.320  -5.748   3.882  0.00  0.00    +0.035 A 
ATOM      8  C   UNL     1       2.410  -7.111   3.630  0.00  0.00    +0.025 A 
ATOM      9  C   UNL     1       2.566  -7.997   4.678  0.00  0.00    +0.029 A 
ATOM     10  C   UNL     1       2.633  -7.528   5.977  0.00  0.00    +0.088 A 
ATOM     11  C   UNL     1       2.543  -6.172   6.231  0.00  0.00    +0.029 A 
ATOM     12  C   UNL     1       2.393  -5.280   5.188  0.00  0.00    +0.025 A 
BRANCH  10  13
ATOM     13  S   UNL     1       2.832  -8.662   7.311  0.00  0.00    -0.006 S 
ATOM     14  O   UNL     1       2.263  -8.003   8.434  0.00  0.00    -0.170 OA
ATOM     15  O   UNL     1       2.286  -9.883   6.833  0.00  0.00    -0.170 OA
ATOM     16  C   UNL     1       4.627  -8.820   7.523  0.00  0.00    +0.200 C 
ENDBRANCH  10  13
ENDBRANCH   4   7
BRANCH   1  17
ATOM     17  C   UNL     1       2.918  -1.329   2.068  0.00  0.00    +0.090 C 
BRANCH  17  18
ATOM     18  C   UNL     1       2.385  -0.480   0.913  0.00  0.00    -0.051 C 
BRANCH  18  19
ATOM     19  N   UNL     1       0.918  -0.561   0.882  0.00  0.00    +0.382 N 
ATOM     20  H   UNL     1       0.636  -1.526   0.804  0.00  0.00    -0.081 HD
BRANCH  19  22
ATOM     21  C   UNL     1       0.203  -1.097   3.162  0.00  0.00    -0.017 C 
ATOM     22  C   UNL     1       0.371   0.010   2.120  0.00  0.00    -0.082 C 
ENDBRANCH  19  22
BRANCH  19  23
ATOM     23  C   UNL     1       0.410   0.193  -0.272  0.00  0.00    -0.082 C 
ATOM     24  C   UNL     1       0.898  -0.463  -1.565  0.00  0.00    -0.017 C 
ENDBRANCH  19  23
ENDBRANCH  18  19
BRANCH  18  25
ATOM     25  C   UNL     1       2.812   0.976   1.110  0.00  0.00    -0.011 C 
BRANCH  25  26
ATOM     26  C   UNL     1       4.336   1.075   1.031  0.00  0.00    -0.019 C 
ATOM     27  C   UNL     1       4.801   0.679  -0.372  0.00  0.00    +0.007 C 
ATOM     28  C   UNL     1       4.769   2.513   1.325  0.00  0.00    +0.007 C 
ENDBRANCH  25  26
ENDBRANCH  18  25
ENDBRANCH  17  18
ENDBRANCH   1  17
TORSDOF 9
