REMARK  Name = ZINC05480169
REMARK  6 active torsions:
REMARK  status: ('A' for Active; 'I' for Inactive)
REMARK    1  A    between atoms: C_1  and  C_2
REMARK    2  A    between atoms: C_2  and  N_3
REMARK    3  A    between atoms: N_3  and  N_4
REMARK    4  A    between atoms: C_5  and  C_7
REMARK    5  A    between atoms: C_13  and  C_14
REMARK    6  A    between atoms: N_16  and  C_17
REMARK                            x       y       z     vdW  Elec       q    Type
REMARK                         _______ _______ _______ _____ _____    ______ ____
ROOT
ATOM      1  C   UNL     1       3.811   6.358  -0.982  0.00  0.00    +0.062 C 
ATOM      2  C   UNL     1       3.501   7.364   0.096  0.00  0.00    +0.024 C 
ATOM      3  C   UNL     1       2.166   8.062   0.114  0.00  0.00    +0.087 C 
ENDROOT
BRANCH   3   4
ATOM      4  C   UNL     1       2.110   9.010   1.284  0.00  0.00    +0.239 C 
ATOM      5  O   UNL     1       3.062   9.110   2.030  0.00  0.00    -0.271 OA
ATOM      6  N   UNL     1       1.003   9.747   1.502  0.00  0.00    -0.308 N 
ATOM      7  H   UNL     1       0.140   9.657   0.826  0.00  0.00    +0.149 HD
BRANCH   6   8
ATOM      8  C   UNL     1       0.949  10.669   2.639  0.00  0.00    +0.079 C 
ATOM      9  C   UNL     1       0.511   9.908   3.893  0.00  0.00    +0.010 C 
ATOM     10  C   UNL     1       0.455  10.871   5.080  0.00  0.00    +0.009 C 
ATOM     11  C   UNL     1      -0.549  11.987   4.785  0.00  0.00    -0.010 C 
ATOM     12  C   UNL     1      -1.934  11.380   4.554  0.00  0.00    +0.007 C 
ATOM     13  C   UNL     1      -1.878  10.417   3.366  0.00  0.00    -0.010 C 
ATOM     14  C   UNL     1      -0.874   9.301   3.662  0.00  0.00    +0.009 C 
ATOM     15  C   UNL     1      -1.440  11.178   2.114  0.00  0.00    +0.009 C 
ATOM     16  C   UNL     1      -0.054  11.786   2.344  0.00  0.00    +0.010 C 
ATOM     17  C   UNL     1      -0.111  12.748   3.532  0.00  0.00    +0.009 C 
ENDBRANCH   6   8
ENDBRANCH   3   4
BRANCH   2  18
ATOM     18  N   UNL     1       4.373   7.626   0.996  0.00  0.00    -0.268 N 
ATOM     19  H   UNL     1       5.379   7.187   0.932  0.00  0.00    +0.170 HD
BRANCH  18  20
ATOM     20  N   UNL     1       4.045   8.473   2.063  0.00  0.00    -0.233 N 
ATOM     21  C   UNL     1       4.927   8.671   3.063  0.00  0.00    +0.260 C 
ATOM     22  O   UNL     1       6.007   8.114   3.038  0.00  0.00    -0.269 OA
ATOM     23  H   UNL     1       3.067   8.977   2.085  0.00  0.00    +0.173 HD
BRANCH  21  24
ATOM     24  C   UNL     1       4.580   9.566   4.190  0.00  0.00    +0.041 A 
ATOM     25  C   UNL     1       5.481   9.784   5.237  0.00  0.00    +0.033 A 
ATOM     26  C   UNL     1       5.116  10.627   6.270  0.00  0.00    +0.111 A 
ATOM     27  N   UNL     1       3.937  11.216   6.278  0.00  0.00    -0.263 NA
ATOM     28  C   UNL     1       3.061  11.041   5.309  0.00  0.00    +0.111 A 
ATOM     29  C   UNL     1       3.343  10.215   4.238  0.00  0.00    +0.033 A 
ENDBRANCH  21  24
ENDBRANCH  18  20
ENDBRANCH   2  18
TORSDOF 5
