REMARK  Name = ZINC60567616
REMARK  3 active torsions:
REMARK  status: ('A' for Active; 'I' for Inactive)
REMARK    1  A    between atoms: N_12  and  C_16
REMARK    2  A    between atoms: C_16  and  C_17
REMARK    3  A    between atoms: N_19  and  C_20
REMARK                            x       y       z     vdW  Elec       q    Type
REMARK                         _______ _______ _______ _____ _____    ______ ____
ROOT
ATOM      1  C   UNL     1      -0.017   1.377   0.010  0.00  0.00    +0.000 A 
ATOM      2  C   UNL     1       1.172   2.082   0.002  0.00  0.00    +0.000 A 
ATOM      3  C   UNL     1       2.375   1.405  -0.015  0.00  0.00    +0.006 A 
ATOM      4  C   UNL     1       2.398   0.019  -0.025  0.00  0.00    -0.012 A 
ATOM      5  C   UNL     1       1.207  -0.686  -0.013  0.00  0.00    -0.042 A 
ATOM      6  C   UNL     1       0.002  -0.004   0.002  0.00  0.00    +0.004 A 
ATOM      7  C   UNL     1       1.492  -2.174  -0.016  0.00  0.00    +0.038 C 
ATOM      8  C   UNL     1       2.965  -2.303  -0.464  0.00  0.00    +0.045 C 
ATOM      9  C   UNL     1       3.551  -0.948  -0.050  0.00  0.00    +0.138 C 
ATOM     10  C   UNL     1       4.627  -0.503  -1.006  0.00  0.00    +0.251 C 
ATOM     11  O   UNL     1       4.518  -0.305  -2.197  0.00  0.00    -0.272 OA
ATOM     12  N   UNL     1       5.740  -0.373  -0.252  0.00  0.00    -0.215 N 
ATOM     13  C   UNL     1       5.504  -0.674   1.032  0.00  0.00    +0.310 C 
ATOM     14  O   UNL     1       6.350  -0.631   1.903  0.00  0.00    -0.252 OA
ATOM     15  N   UNL     1       4.221  -1.029   1.248  0.00  0.00    -0.281 N 
ATOM     16  H   UNL     1       3.822  -1.286   2.095  0.00  0.00    +0.152 HD
ENDROOT
BRANCH  12  17
ATOM     17  C   UNL     1       7.044   0.044  -0.773  0.00  0.00    +0.213 C 
BRANCH  17  18
ATOM     18  C   UNL     1       7.159   1.545  -0.696  0.00  0.00    +0.231 C 
ATOM     19  O   UNL     1       6.242   2.201  -0.249  0.00  0.00    -0.274 OA
ATOM     20  N   UNL     1       8.280   2.158  -1.123  0.00  0.00    -0.313 N 
ATOM     21  H   UNL     1       9.014   1.634  -1.480  0.00  0.00    +0.149 HD
BRANCH  20  22
ATOM     22  C   UNL     1       8.392   3.617  -1.047  0.00  0.00    +0.058 C 
ATOM     23  C   UNL     1       9.009   4.045   0.309  0.00  0.00    +0.002 C 
ATOM     24  C   UNL     1      10.357   4.721  -0.062  0.00  0.00    -0.077 C 
ATOM     25  N   UNL     1      10.688   4.130  -1.368  0.00  0.00    +0.383 N 
ATOM     26  C   UNL     1       9.387   4.134  -2.090  0.00  0.00    -0.048 C 
ATOM     27  C   UNL     1       9.536   3.238  -3.311  0.00  0.00    -0.014 C 
ATOM     28  C   UNL     1      10.595   3.875  -4.225  0.00  0.00    -0.003 C 
ATOM     29  C   UNL     1      11.900   4.097  -3.461  0.00  0.00    -0.019 C 
ATOM     30  C   UNL     1      11.647   4.883  -2.166  0.00  0.00    -0.078 C 
ATOM     31  H   UNL     1      11.014   3.183  -1.244  0.00  0.00    -0.081 HD
ENDBRANCH  20  22
ENDBRANCH  17  18
ENDBRANCH  12  17
TORSDOF 3
