REMARK  Name = ZINC59854632
REMARK  7 active torsions:
REMARK  status: ('A' for Active; 'I' for Inactive)
REMARK    1  A    between atoms: C_3  and  C_24
REMARK    2  A    between atoms: C_6  and  C_7
REMARK    3  A    between atoms: C_7  and  N_8
REMARK    4  A    between atoms: N_14  and  C_17
REMARK    5  A    between atoms: C_17  and  C_18
REMARK    6  A    between atoms: N_26  and  C_27
REMARK    7  A    between atoms: C_27  and  C_28
REMARK                            x       y       z     vdW  Elec       q    Type
REMARK                         _______ _______ _______ _____ _____    ______ ____
ROOT
ATOM      1  C   UNL     1      -1.296  -0.770   0.010  0.00  0.00    +0.141 C 
ENDROOT
BRANCH   1   2
ATOM      2  N   UNL     1      -1.728  -1.013  -1.368  0.00  0.00    -0.295 N 
ATOM      3  C   UNL     1      -2.870  -1.687  -1.607  0.00  0.00    +0.303 C 
ATOM      4  O   UNL     1      -3.494  -2.173  -0.683  0.00  0.00    -0.253 OA
ATOM      5  N   UNL     1      -3.322  -1.822  -2.870  0.00  0.00    -0.283 N 
ATOM      6  C   UNL     1      -4.622  -2.452  -3.144  0.00  0.00    +0.124 C 
ATOM      7  C   UNL     1      -5.431  -1.523  -4.055  0.00  0.00    +0.104 C 
ATOM      8  N   UNL     1      -4.636  -1.197  -5.246  0.00  0.00    -0.295 NA
ATOM      9  C   UNL     1      -3.418  -0.458  -4.888  0.00  0.00    +0.104 C 
ATOM     10  C   UNL     1      -2.529  -1.338  -4.011  0.00  0.00    +0.124 C 
ATOM     11  H   UNL     1      -1.192  -0.689  -2.109  0.00  0.00    +0.151 HD
BRANCH   8  12
ATOM     12  C   UNL     1      -5.437  -0.449  -6.225  0.00  0.00    +0.127 C 
BRANCH  12  13
ATOM     13  C   UNL     1      -4.676  -0.346  -7.522  0.00  0.00    +0.005 A 
ATOM     14  C   UNL     1      -4.689  -1.184  -8.587  0.00  0.00    +0.014 A 
ATOM     15  C   UNL     1      -3.901  -0.887  -9.684  0.00  0.00    +0.028 A 
ATOM     16  C   UNL     1      -3.139   0.235  -9.660  0.00  0.00    +0.078 A 
ATOM     17  S   UNL     1      -3.532   0.915  -8.057  0.00  0.00    -0.080 S 
ATOM     18 CL   UNL     1      -2.066   0.854 -10.877  0.00  0.00    -0.076 Cl
ENDBRANCH  12  13
ENDBRANCH   8  12
ENDBRANCH   1   2
BRANCH   1  24
ATOM     19  C   UNL     1      -0.017   1.381   0.008  0.00  0.00    +0.006 A 
ATOM     20  C   UNL     1       1.167   2.089   0.000  0.00  0.00    +0.013 A 
ATOM     21  C   UNL     1       2.385   1.407  -0.013  0.00  0.00    +0.037 A 
ATOM     22  C   UNL     1       2.396   0.012  -0.019  0.00  0.00    +0.013 A 
ATOM     23  C   UNL     1       1.205  -0.685  -0.011  0.00  0.00    +0.006 A 
ATOM     24  C   UNL     1       0.001  -0.003   0.002  0.00  0.00    -0.030 A 
BRANCH  21  25
ATOM     25  C   UNL     1       3.657   2.160  -0.022  0.00  0.00    +0.244 C 
ATOM     26  O   UNL     1       3.644   3.376  -0.017  0.00  0.00    -0.270 OA
ATOM     27  N   UNL     1       4.831   1.499  -0.035  0.00  0.00    -0.303 N 
ATOM     28  H   UNL     1       4.842   0.529  -0.039  0.00  0.00    +0.150 HD
BRANCH  27  29
ATOM     29  C   UNL     1       6.092   2.245  -0.043  0.00  0.00    +0.200 C 
BRANCH  29  30
ATOM     30  C   UNL     1       7.248   1.278  -0.058  0.00  0.00    +0.228 C 
ATOM     31  O   UNL     1       7.039   0.083  -0.060  0.00  0.00    -0.274 OA
ATOM     32  N   UNL     1       8.514   1.741  -0.067  0.00  0.00    -0.328 N 
ATOM     33  H   UNL     1       8.681   2.696  -0.065  0.00  0.00    +0.145 HD
ATOM     34  H   UNL     1       9.258   1.119  -0.076  0.00  0.00    +0.145 HD
ENDBRANCH  29  30
ENDBRANCH  27  29
ENDBRANCH  21  25
ENDBRANCH   1  24
TORSDOF 7
