REMARK  Name = ZINC36630026
REMARK  2 active torsions:
REMARK  status: ('A' for Active; 'I' for Inactive)
REMARK    1  A    between atoms: C_9  and  C_12
REMARK    2  A    between atoms: C_18  and  C_20
REMARK                            x       y       z     vdW  Elec       q    Type
REMARK                         _______ _______ _______ _____ _____    ______ ____
ROOT
ATOM      1  C   UNL     1       4.898  -2.639  -0.071  0.00  0.00    +0.265 C 
ATOM      2  O   UNL     1       5.727  -1.999  -0.682  0.00  0.00    -0.271 OA
ATOM      3  N   UNL     1       5.143  -3.925   0.251  0.00  0.00    -0.235 N 
ATOM      4  C   UNL     1       6.343  -4.516  -0.116  0.00  0.00    +0.315 A 
ATOM      5  N   UNL     1       7.322  -3.941  -0.769  0.00  0.00    -0.092 NA
ATOM      6  N   UNL     1       8.279  -4.783  -0.937  0.00  0.00    -0.106 NA
ATOM      7  C   UNL     1       7.948  -5.932  -0.397  0.00  0.00    +0.252 A 
ATOM      8  O   UNL     1       6.717  -5.785   0.139  0.00  0.00    -0.405 OA
ATOM      9  H   UNL     1       4.479  -4.437   0.740  0.00  0.00    +0.159 HD
ENDROOT
BRANCH   1  18
ATOM     10  C   UNL     1      -0.017   1.378   0.010  0.00  0.00    +0.004 A 
ATOM     11  C   UNL     1       1.170   2.088   0.002  0.00  0.00    +0.004 A 
ATOM     12  C   UNL     1       2.378   1.418  -0.014  0.00  0.00    +0.049 A 
ATOM     13  C   UNL     1       2.404   0.031  -0.023  0.00  0.00    +0.163 A 
ATOM     14  C   UNL     1       1.212  -0.683  -0.013  0.00  0.00    +0.162 A 
ATOM     15  C   UNL     1       0.002  -0.004   0.002  0.00  0.00    +0.049 A 
ATOM     16  O   UNL     1       1.214  -2.044  -0.013  0.00  0.00    -0.484 OA
ATOM     17  C   UNL     1       2.434  -2.685  -0.404  0.00  0.00    +0.283 C 
ATOM     18  C   UNL     1       3.594  -1.997   0.328  0.00  0.00    +0.296 C 
ATOM     19  O   UNL     1       3.602  -0.615  -0.043  0.00  0.00    -0.472 OA
ENDBRANCH   1  18
BRANCH   7  20
ATOM     20  C   UNL     1       8.772  -7.157  -0.373  0.00  0.00    +0.065 A 
ATOM     21  C   UNL     1      10.080  -7.188  -0.971  0.00  0.00    +0.042 A 
ATOM     22  C   UNL     1      10.781  -8.341  -0.914  0.00  0.00    +0.080 A 
ATOM     23  S   UNL     1       9.677  -9.433  -0.039  0.00  0.00    -0.064 S 
ATOM     24  C   UNL     1       8.321  -8.305   0.223  0.00  0.00    +0.092 A 
ATOM     25 CL   UNL     1       6.810  -8.589   1.030  0.00  0.00    -0.075 Cl
ATOM     26 CL   UNL     1      12.366  -8.677  -1.539  0.00  0.00    -0.076 Cl
ENDBRANCH   7  20
TORSDOF 2
