REMARK  Name = ZINC32803529
REMARK  4 active torsions:
REMARK  status: ('A' for Active; 'I' for Inactive)
REMARK    1  A    between atoms: C_1  and  C_2
REMARK    2  A    between atoms: C_2  and  C_4
REMARK    3  A    between atoms: C_2  and  N_11
REMARK    4  A    between atoms: N_14  and  C_15
REMARK                            x       y       z     vdW  Elec       q    Type
REMARK                         _______ _______ _______ _____ _____    ______ ____
ROOT
ATOM      1  N   UNL     1      -1.161   1.763  -0.252  0.00  0.00    -0.293 N 
ATOM      2  C   UNL     1      -0.059   1.010  -0.441  0.00  0.00    +0.301 C 
ATOM      3  O   UNL     1      -0.134  -0.202  -0.386  0.00  0.00    -0.253 OA
ATOM      4  N   UNL     1       1.125   1.602  -0.696  0.00  0.00    -0.292 N 
ATOM      5  H   UNL     1      -1.093   2.860  -0.301  0.00  0.00    +0.151 HD
ATOM      6  H   UNL     1       1.192   2.699  -0.745  0.00  0.00    +0.151 HD
ENDROOT
BRANCH   4   7
ATOM      7  C   UNL     1       2.322   0.784  -0.907  0.00  0.00    +0.108 C 
ATOM      8  C   UNL     1       3.575   1.609  -0.586  0.00  0.00    +0.027 C 
ATOM      9  C   UNL     1       4.818   0.849  -1.058  0.00  0.00    +0.010 C 
ATOM     10  C   UNL     1       4.859   0.835  -2.591  0.00  0.00    +0.075 C 
ATOM     11  C   UNL     1       3.514   0.374  -3.099  0.00  0.00    +0.110 A 
ATOM     12  C   UNL     1       2.393   0.352  -2.348  0.00  0.00    +0.014 A 
ATOM     13  C   UNL     1       1.357  -0.136  -3.164  0.00  0.00    +0.047 A 
ATOM     14  C   UNL     1       1.902  -0.386  -4.372  0.00  0.00    +0.195 A 
ATOM     15  O   UNL     1       3.209  -0.073  -4.323  0.00  0.00    -0.467 OA
ENDBRANCH   4   7
BRANCH   1  17
ATOM     16  C   UNL     1      -2.593   0.881   1.524  0.00  0.00    +0.033 C 
ATOM     17  C   UNL     1      -2.449   1.120   0.020  0.00  0.00    +0.103 C 
BRANCH  17  18
ATOM     18  C   UNL     1      -3.566   2.013  -0.456  0.00  0.00    -0.009 A 
ATOM     19  C   UNL     1      -3.381   3.381  -0.513  0.00  0.00    +0.007 A 
ATOM     20  C   UNL     1      -4.404   4.200  -0.954  0.00  0.00    +0.000 A 
ATOM     21  C   UNL     1      -5.617   3.651  -1.328  0.00  0.00    +0.001 A 
ATOM     22  C   UNL     1      -5.805   2.283  -1.267  0.00  0.00    +0.020 A 
ATOM     23  C   UNL     1      -4.779   1.463  -0.830  0.00  0.00    +0.046 A 
ATOM     24 CL   UNL     1      -5.015  -0.255  -0.752  0.00  0.00    -0.083 Cl
ENDBRANCH  17  18
ENDBRANCH   1  17
TORSDOF 3
