REMARK  Name = ZINC36556616
REMARK  10 active torsions:
REMARK  status: ('A' for Active; 'I' for Inactive)
REMARK    1  A    between atoms: C_1  and  C_2
REMARK    2  A    between atoms: C_2  and  O_39
REMARK    3  A    between atoms: C_6  and  C_30
REMARK    4  A    between atoms: C_8  and  C_21
REMARK    5  A    between atoms: C_10  and  C_12
REMARK    6  A    between atoms: N_14  and  C_15
REMARK    7  A    between atoms: C_24  and  O_29
REMARK    8  A    between atoms: C_25  and  O_27
REMARK    9  A    between atoms: O_27  and  C_28
REMARK   10  A    between atoms: N_32  and  C_33
REMARK                            x       y       z     vdW  Elec       q    Type
REMARK                         _______ _______ _______ _____ _____    ______ ____
ROOT
ATOM      1  C   UNL     1       1.198   1.736   0.988  0.00  0.00    +0.042 C 
ATOM      2  C   UNL     1       1.482   0.260   0.701  0.00  0.00    +0.082 C 
ATOM      3  C   UNL     1       2.273   0.137  -0.606  0.00  0.00    +0.110 C 
ATOM      4  C   UNL     1       3.629   0.778  -0.409  0.00  0.00    +0.148 C 
ATOM      5  O   UNL     1       4.043   1.603  -1.187  0.00  0.00    -0.296 OA
ATOM      6  C   UNL     1       4.454   0.358   0.788  0.00  0.00    +0.149 C 
ATOM      7  C   UNL     1       3.583   0.474   2.044  0.00  0.00    +0.053 C 
ATOM      8  C   UNL     1       2.300  -0.335   1.849  0.00  0.00    +0.115 C 
ENDROOT
BRANCH   7   9
ATOM      9  C   UNL     1       4.340  -0.063   3.231  0.00  0.00    -0.039 A 
ATOM     10  C   UNL     1       4.553  -1.424   3.355  0.00  0.00    +0.008 A 
ATOM     11  C   UNL     1       5.247  -1.922   4.442  0.00  0.00    +0.049 A 
ATOM     12  C   UNL     1       5.731  -1.056   5.411  0.00  0.00    +0.158 A 
ATOM     13  C   UNL     1       5.517   0.313   5.286  0.00  0.00    +0.162 A 
ATOM     14  C   UNL     1       4.825   0.806   4.191  0.00  0.00    +0.053 A 
BRANCH  13  15
ATOM     15  O   UNL     1       5.989   1.166   6.233  0.00  0.00    -0.491 OA
ATOM     16  C   UNL     1       5.732   2.558   6.039  0.00  0.00    +0.277 C 
ENDBRANCH  13  15
BRANCH  12  17
ATOM     17  O   UNL     1       6.413  -1.545   6.481  0.00  0.00    -0.503 OA
ATOM     18  H   UNL     1       7.368  -1.609   6.343  0.00  0.00    +0.292 HD
ENDBRANCH  12  17
ENDBRANCH   7   9
BRANCH   8  19
ATOM     19  C   UNL     1       2.652  -1.764   1.524  0.00  0.00    +0.224 C 
ATOM     20  O   UNL     1       3.040  -2.055   0.413  0.00  0.00    -0.275 OA
ATOM     21  N   UNL     1       2.536  -2.717   2.470  0.00  0.00    -0.285 N 
ATOM     22  H   UNL     1       2.288  -2.475   3.376  0.00  0.00    +0.155 HD
BRANCH  21  23
ATOM     23  C   UNL     1       2.773  -4.057   2.144  0.00  0.00    +0.033 A 
ATOM     24  C   UNL     1       2.668  -4.483   0.827  0.00  0.00    +0.023 A 
ATOM     25  C   UNL     1       2.903  -5.806   0.509  0.00  0.00    +0.002 A 
ATOM     26  C   UNL     1       3.243  -6.707   1.501  0.00  0.00    +0.000 A 
ATOM     27  C   UNL     1       3.348  -6.287   2.814  0.00  0.00    +0.002 A 
ATOM     28  C   UNL     1       3.120  -4.964   3.138  0.00  0.00    +0.023 A 
ENDBRANCH  21  23
ENDBRANCH   8  19
BRANCH   6  29
ATOM     29  C   UNL     1       4.911  -1.067   0.614  0.00  0.00    +0.228 C 
ATOM     30  O   UNL     1       5.483  -1.635   1.519  0.00  0.00    -0.275 OA
ATOM     31  N   UNL     1       4.684  -1.710  -0.549  0.00  0.00    -0.285 N 
ATOM     32  H   UNL     1       4.274  -1.239  -1.292  0.00  0.00    +0.155 HD
BRANCH  31  33
ATOM     33  C   UNL     1       5.039  -3.056  -0.685  0.00  0.00    +0.033 A 
ATOM     34  C   UNL     1       5.319  -3.819   0.442  0.00  0.00    +0.023 A 
ATOM     35  C   UNL     1       5.670  -5.148   0.304  0.00  0.00    +0.002 A 
ATOM     36  C   UNL     1       5.742  -5.719  -0.953  0.00  0.00    +0.000 A 
ATOM     37  C   UNL     1       5.464  -4.962  -2.077  0.00  0.00    +0.002 A 
ATOM     38  C   UNL     1       5.107  -3.634  -1.946  0.00  0.00    +0.023 A 
ENDBRANCH  31  33
ENDBRANCH   6  29
BRANCH   2  39
ATOM     39  O   UNL     1       0.246  -0.448   0.579  0.00  0.00    -0.388 OA
ATOM     40  H   UNL     1      -0.324  -0.124  -0.132  0.00  0.00    +0.210 HD
ENDBRANCH   2  39
TORSDOF 8
