REMARK  Name = ZINC02562394
REMARK  9 active torsions:
REMARK  status: ('A' for Active; 'I' for Inactive)
REMARK    1  A    between atoms: C_1  and  C_2
REMARK    2  A    between atoms: C_11  and  O_13
REMARK    3  A    between atoms: O_13  and  C_14
REMARK    4  A    between atoms: C_16  and  N_29
REMARK    5  A    between atoms: C_18  and  O_28
REMARK    6  A    between atoms: C_20  and  O_27
REMARK    7  A    between atoms: C_22  and  C_25
REMARK    8  A    between atoms: C_25  and  O_26
REMARK    9  A    between atoms: C_30  and  C_32
REMARK                            x       y       z     vdW  Elec       q    Type
REMARK                         _______ _______ _______ _____ _____    ______ ____
ROOT
ATOM      1  C   UNL     1      -0.025  -2.141  -5.992  0.00  0.00    +0.331 C 
ATOM      2  C   UNL     1       0.102  -3.090  -7.186  0.00  0.00    +0.173 C 
ATOM      3  C   UNL     1      -1.103  -4.037  -7.207  0.00  0.00    +0.172 C 
ATOM      4  C   UNL     1      -2.390  -3.207  -7.257  0.00  0.00    +0.176 C 
ATOM      5  C   UNL     1      -2.420  -2.254  -6.059  0.00  0.00    +0.179 C 
ATOM      6  O   UNL     1      -1.258  -1.423  -6.084  0.00  0.00    -0.332 OA
ENDROOT
BRANCH   2   7
ATOM      7  N   UNL     1       1.336  -3.870  -7.063  0.00  0.00    -0.304 N 
ATOM      8  C   UNL     1       2.502  -3.361  -7.509  0.00  0.00    +0.210 C 
ATOM      9  O   UNL     1       2.529  -2.258  -8.012  0.00  0.00    -0.276 OA
ATOM     10  C   UNL     1       3.771  -4.164  -7.382  0.00  0.00    +0.109 C 
ATOM     11  H   UNL     1       1.314  -4.752  -6.661  0.00  0.00    +0.149 HD
ENDBRANCH   2   7
BRANCH   4  12
ATOM     12  O   UNL     1      -2.424  -2.452  -8.470  0.00  0.00    -0.387 OA
ATOM     13  H   UNL     1      -3.211  -1.899  -8.566  0.00  0.00    +0.210 HD
ENDBRANCH   4  12
BRANCH   3  14
ATOM     14  O   UNL     1      -1.031  -4.878  -8.360  0.00  0.00    -0.387 OA
ATOM     15  H   UNL     1      -1.767  -5.499  -8.440  0.00  0.00    +0.210 HD
ENDBRANCH   3  14
BRANCH   1  16
ATOM     16  O   UNL     1      -0.004  -2.896  -4.779  0.00  0.00    -0.461 OA
BRANCH  16  27
ATOM     17  C   UNL     1      -0.018   1.503   0.010  0.00  0.00    +0.045 C 
ATOM     18  C   UNL     1       0.002  -0.004   0.002  0.00  0.00    -0.033 A 
ATOM     19  C   UNL     1       0.023  -0.708   1.164  0.00  0.00    +0.096 A 
ATOM     20  C   UNL     1       0.042  -2.117   1.130  0.00  0.00    +0.337 A 
ATOM     21  O   UNL     1       0.059  -2.736   2.179  0.00  0.00    -0.245 OA
ATOM     22  O   UNL     1       0.040  -2.795  -0.029  0.00  0.00    -0.422 OA
ATOM     23  C   UNL     1       0.020  -2.156  -1.219  0.00  0.00    +0.143 A 
ATOM     24  C   UNL     1      -0.006  -0.749  -1.258  0.00  0.00    +0.021 A 
ATOM     25  C   UNL     1      -0.020  -0.084  -2.489  0.00  0.00    +0.015 A 
ATOM     26  C   UNL     1      -0.021  -0.803  -3.649  0.00  0.00    +0.046 A 
ATOM     27  C   UNL     1      -0.002  -2.196  -3.616  0.00  0.00    +0.127 A 
ATOM     28  C   UNL     1       0.018  -2.871  -2.407  0.00  0.00    +0.092 A 
ENDBRANCH  16  27
ENDBRANCH   1  16
BRANCH   5  29
ATOM     29  C   UNL     1      -3.673  -1.380  -6.135  0.00  0.00    +0.190 C 
BRANCH  29  30
ATOM     30  O   UNL     1      -3.762  -0.571  -4.960  0.00  0.00    -0.392 OA
ATOM     31  H   UNL     1      -4.534   0.010  -4.940  0.00  0.00    +0.210 HD
ENDBRANCH  29  30
ENDBRANCH   5  29
TORSDOF 7
