REMARK  Name = ZINC42289724
REMARK  7 active torsions:
REMARK  status: ('A' for Active; 'I' for Inactive)
REMARK    1  A    between atoms: C_1  and  C_2
REMARK    2  A    between atoms: C_7  and  O_10
REMARK    3  A    between atoms: O_10  and  C_11
REMARK    4  A    between atoms: C_14  and  N_21
REMARK    5  A    between atoms: C_15  and  C_17
REMARK    6  A    between atoms: C_17  and  O_19
REMARK    7  A    between atoms: O_19  and  C_20
REMARK                            x       y       z     vdW  Elec       q    Type
REMARK                         _______ _______ _______ _____ _____    ______ ____
ROOT
ATOM      1  C   UNL     1       2.192  -3.627   0.148  0.00  0.00    +0.122 A 
ATOM      2  C   UNL     1       2.511  -4.091   1.419  0.00  0.00    +0.047 A 
ATOM      3  C   UNL     1       3.247  -5.247   1.575  0.00  0.00    +0.027 A 
ATOM      4  C   UNL     1       3.675  -5.957   0.461  0.00  0.00    +0.039 A 
ATOM      5  C   UNL     1       3.356  -5.494  -0.825  0.00  0.00    +0.083 A 
ATOM      6  C   UNL     1       2.605  -4.324  -0.971  0.00  0.00    +0.062 A 
ENDROOT
BRANCH   4   7
ATOM      7  N   UNL     1       4.417  -7.123   0.618  0.00  0.00    -0.357 N 
ATOM      8  H   UNL     1       4.336  -7.643   1.433  0.00  0.00    +0.142 HD
ATOM      9  H   UNL     1       5.015  -7.416  -0.087  0.00  0.00    +0.142 HD
ENDBRANCH   4   7
BRANCH   5  10
ATOM     10  C   UNL     1       3.805  -6.239  -2.014  0.00  0.00    +0.341 C 
ATOM     11  O   UNL     1       4.537  -7.201  -1.887  0.00  0.00    -0.245 OA
BRANCH  10  12
ATOM     12  O   UNL     1       3.404  -5.854  -3.241  0.00  0.00    -0.464 OA
ATOM     13  C   UNL     1       3.878  -6.623  -4.349  0.00  0.00    +0.280 C 
ENDBRANCH  10  12
ENDBRANCH   5  10
BRANCH   1  14
ATOM     14  O   UNL     1       1.467  -2.485   0.006  0.00  0.00    -0.489 OA
BRANCH  14  20
ATOM     15  C   UNL     1      -0.467   1.303  -0.481  0.00  0.00    +0.007 C 
ATOM     16  C   UNL     1      -0.235  -0.167  -0.128  0.00  0.00    -0.011 C 
ATOM     17  C   UNL     1      -1.493  -0.739   0.527  0.00  0.00    +0.003 C 
ATOM     18  C   UNL     1      -1.262  -2.210   0.880  0.00  0.00    +0.004 C 
ATOM     19  C   UNL     1      -0.085  -2.322   1.851  0.00  0.00    +0.044 C 
ATOM     20  C   UNL     1       1.174  -1.750   1.196  0.00  0.00    +0.174 C 
ATOM     21  C   UNL     1       0.942  -0.280   0.843  0.00  0.00    +0.047 C 
ENDBRANCH  14  20
ENDBRANCH   1  14
TORSDOF 5
