REMARK  Name = ZINC12503285
REMARK  14 active torsions:
REMARK  status: ('A' for Active; 'I' for Inactive)
REMARK    1  A    between atoms: C_1  and  C_2
REMARK    2  A    between atoms: C_7  and  O_8
REMARK    3  A    between atoms: O_8  and  C_9
REMARK    4  A    between atoms: C_9  and  C_10
REMARK    5  A    between atoms: N_12  and  C_13
REMARK    6  A    between atoms: C_13  and  N_15
REMARK    7  A    between atoms: N_15  and  N_16
REMARK    8  A    between atoms: C_17  and  C_19
REMARK    9  A    between atoms: C_22  and  N_25
REMARK   10  A    between atoms: C_26  and  C_28
REMARK   11  A    between atoms: C_31  and  C_34
REMARK   12  A    between atoms: C_34  and  C_35
REMARK   13  A    between atoms: C_34  and  C_36
REMARK   14  A    between atoms: C_34  and  C_37
REMARK                            x       y       z     vdW  Elec       q    Type
REMARK                         _______ _______ _______ _____ _____    ______ ____
ROOT
ATOM      1  N   UNL     1       5.739   4.181   0.262  0.00  0.00    -0.231 N 
ATOM      2  C   UNL     1       4.500   4.707   0.338  0.00  0.00    +0.260 C 
ATOM      3  O   UNL     1       4.356   5.906   0.476  0.00  0.00    -0.269 OA
ATOM      4  H   UNL     1       5.854   3.225   0.151  0.00  0.00    +0.173 HD
ENDROOT
BRANCH   2   5
ATOM      5  C   UNL     1       3.318   3.827   0.252  0.00  0.00    +0.038 A 
ATOM      6  C   UNL     1       2.033   4.370   0.331  0.00  0.00    +0.015 A 
ATOM      7  C   UNL     1       0.933   3.547   0.251  0.00  0.00    +0.024 A 
ATOM      8  C   UNL     1       1.099   2.175   0.091  0.00  0.00    +0.034 A 
ATOM      9  C   UNL     1       2.378   1.629   0.018  0.00  0.00    +0.024 A 
ATOM     10  C   UNL     1       3.482   2.448   0.092  0.00  0.00    +0.015 A 
BRANCH   8  11
ATOM     11  N   UNL     1      -0.016   1.344   0.009  0.00  0.00    -0.282 N 
ATOM     12  C   UNL     1       0.019   0.241  -0.765  0.00  0.00    +0.248 C 
ATOM     13  O   UNL     1       0.988   0.023  -1.467  0.00  0.00    -0.270 OA
ATOM     14  H   UNL     1      -0.820   1.560   0.507  0.00  0.00    +0.155 HD
BRANCH  12  15
ATOM     15  C   UNL     1      -1.119  -0.702  -0.762  0.00  0.00    +0.037 A 
ATOM     16  C   UNL     1      -2.229  -0.457   0.047  0.00  0.00    +0.013 A 
ATOM     17  C   UNL     1      -3.290  -1.339   0.042  0.00  0.00    +0.005 A 
ATOM     18  C   UNL     1      -3.250  -2.469  -0.754  0.00  0.00    -0.042 A 
ATOM     19  C   UNL     1      -2.150  -2.720  -1.555  0.00  0.00    +0.005 A 
ATOM     20  C   UNL     1      -1.085  -1.844  -1.563  0.00  0.00    +0.013 A 
BRANCH  18  21
ATOM     21  C   UNL     1      -4.410  -3.431  -0.750  0.00  0.00    -0.013 C 
ATOM     22  C   UNL     1      -3.927  -4.810  -0.296  0.00  0.00    +0.015 C 
ATOM     23  C   UNL     1      -5.488  -2.926   0.212  0.00  0.00    +0.015 C 
ATOM     24  C   UNL     1      -4.993  -3.534  -2.161  0.00  0.00    +0.015 C 
ENDBRANCH  18  21
ENDBRANCH  12  15
ENDBRANCH   8  11
ENDBRANCH   2   5
BRANCH   1  25
ATOM     25  N   UNL     1       6.860   5.017   0.342  0.00  0.00    -0.245 N 
ATOM     26  H   UNL     1       6.745   5.974   0.453  0.00  0.00    +0.172 HD
BRANCH  25  27
ATOM     27  C   UNL     1       8.099   4.491   0.266  0.00  0.00    +0.153 C 
ATOM     28  S   UNL     1       9.470   5.512   0.365  0.00  0.00    -0.017 S 
BRANCH  27  31
ATOM     29  C   UNL     1       9.497   2.636   0.036  0.00  0.00    +0.256 C 
ATOM     30  O   UNL     1      10.468   3.359   0.106  0.00  0.00    -0.272 OA
ATOM     31  N   UNL     1       8.259   3.162   0.112  0.00  0.00    -0.264 N 
ATOM     32  H   UNL     1       7.482   2.583   0.056  0.00  0.00    +0.157 HD
BRANCH  29  33
ATOM     33  C   UNL     1       9.676   1.150  -0.136  0.00  0.00    +0.325 C 
BRANCH  33  34
ATOM     34  O   UNL     1      11.070   0.840  -0.189  0.00  0.00    -0.483 OA
BRANCH  34  41
ATOM     35  C   UNL     1      13.821   0.207  -0.297  0.00  0.00    +0.047 C 
ATOM     36  C   UNL     1      12.741  -0.839  -0.403  0.00  0.00    -0.009 A 
ATOM     37  C   UNL     1      13.081  -2.169  -0.559  0.00  0.00    +0.007 A 
ATOM     38  C   UNL     1      12.091  -3.129  -0.656  0.00  0.00    +0.000 A 
ATOM     39  C   UNL     1      10.759  -2.762  -0.597  0.00  0.00    +0.004 A 
ATOM     40  C   UNL     1      10.415  -1.434  -0.435  0.00  0.00    +0.046 A 
ATOM     41  C   UNL     1      11.406  -0.467  -0.343  0.00  0.00    +0.124 A 
ENDBRANCH  34  41
ENDBRANCH  33  34
ENDBRANCH  29  33
ENDBRANCH  27  31
ENDBRANCH  25  27
ENDBRANCH   1  25
TORSDOF 10
