REMARK  Name = ZINC35311368
REMARK  7 active torsions:
REMARK  status: ('A' for Active; 'I' for Inactive)
REMARK    1  A    between atoms: C_4  and  C_23
REMARK    2  A    between atoms: C_5  and  C_7
REMARK    3  A    between atoms: C_7  and  S_8
REMARK    4  A    between atoms: S_8  and  C_9
REMARK    5  A    between atoms: C_12  and  C_14
REMARK    6  A    between atoms: C_17  and  C_20
REMARK    7  A    between atoms: C_20  and  N_22
REMARK                            x       y       z     vdW  Elec       q    Type
REMARK                         _______ _______ _______ _____ _____    ______ ____
ROOT
ATOM      1  C   UNL     1       1.267  -4.555   1.506  0.00  0.00    +0.278 A 
ATOM      2  N   UNL     1       1.270  -5.221   0.374  0.00  0.00    -0.101 NA
ATOM      3  N   UNL     1       1.286  -6.484   0.620  0.00  0.00    -0.106 NA
ATOM      4  C   UNL     1       1.295  -6.675   1.918  0.00  0.00    +0.249 A 
ATOM      5  O   UNL     1       1.288  -5.457   2.506  0.00  0.00    -0.411 OA
ENDROOT
BRANCH   4   6
ATOM      6  C   UNL     1       1.313  -7.978   2.610  0.00  0.00    +0.039 A 
ATOM      7  C   UNL     1       1.315  -8.028   4.007  0.00  0.00    +0.014 A 
ATOM      8  C   UNL     1       1.332  -9.234   4.647  0.00  0.00    +0.011 A 
ATOM      9  C   UNL     1       1.348 -10.419   3.905  0.00  0.00    +0.003 A 
ATOM     10  C   UNL     1       1.347 -10.369   2.507  0.00  0.00    +0.011 A 
ATOM     11  C   UNL     1       1.324  -9.163   1.867  0.00  0.00    +0.014 A 
BRANCH   9  12
ATOM     12  C   UNL     1       1.368 -11.721   4.596  0.00  0.00    +0.077 C 
ATOM     13  S   UNL     1       0.521 -11.921   6.071  0.00  0.00    -0.035 S 
BRANCH  12  14
ATOM     14  N   UNL     1       2.051 -12.755   4.066  0.00  0.00    -0.352 N 
ATOM     15  H   UNL     1       2.531 -12.642   3.231  0.00  0.00    +0.143 HD
ATOM     16  H   UNL     1       2.064 -13.612   4.521  0.00  0.00    +0.143 HD
ENDBRANCH  12  14
ENDBRANCH   9  12
ENDBRANCH   4   6
BRANCH   1  17
ATOM     17  S   UNL     1       1.248  -2.802   1.685  0.00  0.00    -0.061 S 
BRANCH  17  18
ATOM     18  C   UNL     1       1.223  -2.188  -0.022  0.00  0.00    +0.115 C 
BRANCH  18  23
ATOM     19  C   UNL     1      -0.017   1.379   0.010  0.00  0.00    +0.000 A 
ATOM     20  C   UNL     1       1.168   2.094   0.002  0.00  0.00    +0.001 A 
ATOM     21  C   UNL     1       2.377   1.430  -0.013  0.00  0.00    +0.019 A 
ATOM     22  C   UNL     1       2.404   0.034  -0.021  0.00  0.00    +0.056 A 
ATOM     23  C   UNL     1       1.204  -0.681  -0.013  0.00  0.00    -0.020 A 
ATOM     24  C   UNL     1       0.002  -0.004   0.002  0.00  0.00    +0.006 A 
BRANCH  22  25
ATOM     25  C   UNL     1       3.655  -0.662  -0.038  0.00  0.00    +0.099 C 
ATOM     26  N   UNL     1       4.648  -1.214  -0.051  0.00  0.00    -0.191 NA
ENDBRANCH  22  25
ENDBRANCH  18  23
ENDBRANCH  17  18
ENDBRANCH   1  17
TORSDOF 7
