REMARK  Name = ZINC12541354
REMARK  16 active torsions:
REMARK  status: ('A' for Active; 'I' for Inactive)
REMARK    1  A    between atoms: C_1  and  C_2
REMARK    2  A    between atoms: C_2  and  O_3
REMARK    3  A    between atoms: O_3  and  C_4
REMARK    4  A    between atoms: C_9  and  N_10
REMARK    5  A    between atoms: N_13  and  C_16
REMARK    6  A    between atoms: C_16  and  C_17
REMARK    7  A    between atoms: N_19  and  C_20
REMARK    8  A    between atoms: N_19  and  C_24
REMARK    9  A    between atoms: C_20  and  C_21
REMARK   10  A    between atoms: C_21  and  C_22
REMARK   11  A    between atoms: C_21  and  C_23
REMARK   12  A    between atoms: C_25  and  N_37
REMARK   13  A    between atoms: N_26  and  C_33
REMARK   14  A    between atoms: C_33  and  C_34
REMARK   15  A    between atoms: C_34  and  C_35
REMARK   16  A    between atoms: C_34  and  C_36
REMARK                            x       y       z     vdW  Elec       q    Type
REMARK                         _______ _______ _______ _____ _____    ______ ____
ROOT
ATOM      1  C   UNL     1      -6.589   2.638   0.885  0.00  0.00    +0.234 C 
ATOM      2  O   UNL     1      -7.130   1.591   1.174  0.00  0.00    -0.274 OA
ATOM      3  N   UNL     1      -7.092   3.805   1.339  0.00  0.00    -0.263 N 
ENDROOT
BRANCH   3   4
ATOM      4  C   UNL     1      -8.181   3.803   2.236  0.00  0.00    +0.140 A 
ATOM      5  C   UNL     1      -9.379   4.391   1.886  0.00  0.00    +0.127 A 
ATOM      6  N   UNL     1     -10.423   4.372   2.782  0.00  0.00    -0.280 N 
ATOM      7  C   UNL     1     -10.277   3.788   3.985  0.00  0.00    +0.331 A 
ATOM      8  O   UNL     1     -11.212   3.782   4.763  0.00  0.00    -0.246 OA
ATOM      9  N   UNL     1      -9.117   3.210   4.343  0.00  0.00    -0.273 N 
ATOM     10  H   UNL     1      -9.038   2.795   5.216  0.00  0.00    +0.173 HD
ATOM     11  C   UNL     1      -8.066   3.196   3.501  0.00  0.00    +0.277 A 
ATOM     12  O   UNL     1      -7.019   2.665   3.833  0.00  0.00    -0.266 OA
BRANCH   5  13
ATOM     13  N   UNL     1      -9.528   4.989   0.657  0.00  0.00    -0.343 N 
ATOM     14  H   UNL     1      -8.821   4.922  -0.003  0.00  0.00    +0.144 HD
ATOM     15  H   UNL     1     -10.341   5.477   0.451  0.00  0.00    +0.144 HD
ENDBRANCH   5  13
BRANCH   6  16
ATOM     16  C   UNL     1     -11.701   4.993   2.424  0.00  0.00    +0.131 C 
BRANCH  16  17
ATOM     17  C   UNL     1     -12.599   3.957   1.745  0.00  0.00    +0.003 C 
ATOM     18  C   UNL     1     -12.951   2.854   2.745  0.00  0.00    +0.009 C 
ATOM     19  C   UNL     1     -13.882   4.634   1.260  0.00  0.00    +0.009 C 
ENDBRANCH  16  17
ENDBRANCH   6  16
ENDBRANCH   3   4
BRANCH   1  20
ATOM     20  C   UNL     1      -5.357   2.635   0.018  0.00  0.00    +0.181 C 
BRANCH  20  24
ATOM     21  N   UNL     1      -3.272  -0.991  -0.332  0.00  0.00    -0.325 N 
ATOM     22  C   UNL     1      -3.580  -0.274  -1.579  0.00  0.00    +0.120 C 
ATOM     23  C   UNL     1      -3.874   1.191  -1.239  0.00  0.00    +0.104 C 
ATOM     24  N   UNL     1      -4.924   1.250  -0.213  0.00  0.00    -0.291 NA
ATOM     25  C   UNL     1      -4.481   0.622   1.039  0.00  0.00    +0.104 C 
ATOM     26  C   UNL     1      -4.215  -0.871   0.790  0.00  0.00    +0.120 C 
BRANCH  21  32
ATOM     27  C   UNL     1      -0.931  -1.200   0.245  0.00  0.00    +0.141 A 
ATOM     28  C   UNL     1       0.209  -1.977   0.361  0.00  0.00    +0.047 A 
ATOM     29  C   UNL     1       0.173  -3.315   0.011  0.00  0.00    +0.004 A 
ATOM     30  C   UNL     1      -1.000  -3.880  -0.455  0.00  0.00    +0.002 A 
ATOM     31  C   UNL     1      -2.142  -3.111  -0.573  0.00  0.00    +0.027 A 
ATOM     32  C   UNL     1      -2.115  -1.770  -0.219  0.00  0.00    +0.072 A 
BRANCH  27  33
ATOM     33  O   UNL     1      -0.897   0.116   0.588  0.00  0.00    -0.490 OA
BRANCH  33  35
ATOM     34  C   UNL     1       0.195   2.117   1.391  0.00  0.00    +0.048 C 
ATOM     35  C   UNL     1       0.351   0.632   1.056  0.00  0.00    +0.226 C 
ENDBRANCH  33  35
ENDBRANCH  27  33
ENDBRANCH  21  32
ENDBRANCH  20  24
ENDBRANCH   1  20
BRANCH   3  36
ATOM     36  C   UNL     1      -6.507   5.075   0.900  0.00  0.00    +0.117 C 
BRANCH  36  37
ATOM     37  C   UNL     1      -5.299   5.410   1.778  0.00  0.00    +0.001 C 
ATOM     38  C   UNL     1      -4.594   6.649   1.224  0.00  0.00    +0.009 C 
ATOM     39  C   UNL     1      -5.769   5.687   3.208  0.00  0.00    +0.009 C 
ENDBRANCH  36  37
ENDBRANCH   3  36
TORSDOF 11
