REMARK  Name = ZINC21336040
REMARK  13 active torsions:
REMARK  status: ('A' for Active; 'I' for Inactive)
REMARK    1  A    between atoms: C_1  and  C_2
REMARK    2  A    between atoms: C_2  and  C_3
REMARK    3  A    between atoms: C_3  and  C_4
REMARK    4  A    between atoms: C_4  and  C_5
REMARK    5  A    between atoms: C_5  and  N_6
REMARK    6  A    between atoms: N_6  and  C_7
REMARK    7  A    between atoms: C_8  and  N_20
REMARK    8  A    between atoms: N_9  and  C_16
REMARK    9  A    between atoms: C_16  and  C_17
REMARK   10  A    between atoms: C_17  and  C_18
REMARK   11  A    between atoms: C_18  and  C_19
REMARK   12  A    between atoms: C_21  and  C_23
REMARK   13  A    between atoms: C_23  and  C_24
REMARK                            x       y       z     vdW  Elec       q    Type
REMARK                         _______ _______ _______ _____ _____    ______ ____
ROOT
ATOM      1  N   UNL     1      -4.117   0.652   1.684  0.00  0.00    -0.264 N 
ATOM      2  C   UNL     1      -3.092   1.493   1.432  0.00  0.00    +0.224 C 
ATOM      3  O   UNL     1      -2.560   2.092   2.343  0.00  0.00    -0.275 OA
ENDROOT
BRANCH   1   4
ATOM      4  C   UNL     1      -4.507   0.395   3.015  0.00  0.00    +0.140 A 
ATOM      5  C   UNL     1      -3.642  -0.229   3.892  0.00  0.00    +0.127 A 
ATOM      6  N   UNL     1      -4.049  -0.461   5.185  0.00  0.00    -0.280 N 
ATOM      7  C   UNL     1      -5.279  -0.095   5.588  0.00  0.00    +0.331 A 
ATOM      8  O   UNL     1      -5.622  -0.313   6.734  0.00  0.00    -0.246 OA
ATOM      9  N   UNL     1      -6.137   0.509   4.746  0.00  0.00    -0.273 N 
ATOM     10  H   UNL     1      -7.138   0.800   5.097  0.00  0.00    +0.173 HD
ATOM     11  C   UNL     1      -5.786   0.765   3.471  0.00  0.00    +0.277 A 
ATOM     12  O   UNL     1      -6.572   1.313   2.716  0.00  0.00    -0.266 OA
BRANCH   5  13
ATOM     13  N   UNL     1      -2.388  -0.609   3.478  0.00  0.00    -0.343 N 
ATOM     14  H   UNL     1      -1.704  -1.106   4.182  0.00  0.00    +0.144 HD
ATOM     15  H   UNL     1      -2.068  -0.416   2.444  0.00  0.00    +0.144 HD
ENDBRANCH   5  13
BRANCH   6  16
ATOM     16  C   UNL     1      -3.140  -1.118   6.127  0.00  0.00    +0.128 C 
BRANCH  16  17
ATOM     17  C   UNL     1      -3.338  -2.633   6.056  0.00  0.00    +0.021 C 
BRANCH  17  18
ATOM     18  C   UNL     1      -2.388  -3.319   7.040  0.00  0.00    -0.002 C 
ATOM     19  C   UNL     1      -2.586  -4.834   6.968  0.00  0.00    +0.004 C 
ENDBRANCH  17  18
ENDBRANCH  16  17
ENDBRANCH   6  16
ENDBRANCH   1   4
BRANCH   1  20
ATOM     20  C   UNL     1      -4.825   0.007   0.576  0.00  0.00    +0.114 C 
BRANCH  20  21
ATOM     21  C   UNL     1      -4.164  -1.337   0.262  0.00  0.00    +0.019 C 
BRANCH  21  22
ATOM     22  C   UNL     1      -4.903  -2.010  -0.896  0.00  0.00    +0.001 C 
BRANCH  22  24
ATOM     23  C   UNL     1      -4.982  -4.028  -2.368  0.00  0.00    +0.004 C 
ATOM     24  C   UNL     1      -4.242  -3.354  -1.210  0.00  0.00    -0.003 C 
ENDBRANCH  22  24
ENDBRANCH  21  22
ENDBRANCH  20  21
ENDBRANCH   1  20
BRANCH   2  25
ATOM     25  C   UNL     1      -2.608   1.688   0.018  0.00  0.00    +0.134 C 
BRANCH  25  26
ATOM     26  C   UNL     1      -1.464   2.669   0.010  0.00  0.00    -0.002 A 
ATOM     27  C   UNL     1      -1.713   4.022  -0.130  0.00  0.00    +0.046 A 
ATOM     28  C   UNL     1      -0.662   4.922  -0.144  0.00  0.00    +0.020 A 
ATOM     29  C   UNL     1       0.637   4.469  -0.012  0.00  0.00    +0.003 A 
ATOM     30  C   UNL     1       0.887   3.117   0.133  0.00  0.00    +0.020 A 
ATOM     31  C   UNL     1      -0.163   2.217   0.147  0.00  0.00    +0.046 A 
ATOM     32 CL   UNL     1       0.151   0.519   0.328  0.00  0.00    -0.083 Cl
ATOM     33 CL   UNL     1      -3.345   4.591  -0.296  0.00  0.00    -0.083 Cl
ENDBRANCH  25  26
ENDBRANCH   2  25
TORSDOF 11
