REMARK  Name = ZINC60422588
REMARK  8 active torsions:
REMARK  status: ('A' for Active; 'I' for Inactive)
REMARK    1  A    between atoms: C_1  and  C_2
REMARK    2  A    between atoms: C_6  and  C_26
REMARK    3  A    between atoms: C_7  and  N_8
REMARK    4  A    between atoms: C_9  and  C_13
REMARK    5  A    between atoms: C_13  and  S_14
REMARK    6  A    between atoms: S_14  and  C_15
REMARK    7  A    between atoms: C_18  and  C_21
REMARK    8  A    between atoms: N_19  and  N_20
REMARK                            x       y       z     vdW  Elec       q    Type
REMARK                         _______ _______ _______ _____ _____    ______ ____
ROOT
ATOM      1  C   UNL     1       0.226  -2.204   3.970  0.00  0.00    +0.155 C 
ENDROOT
BRANCH   1   3
ATOM      2  N   UNL     1      -0.592  -0.209   2.606  0.00  0.00    -0.196 N 
ATOM      3  C   UNL     1      -0.017  -0.740   3.707  0.00  0.00    +0.167 A 
ATOM      4  N   UNL     1       0.288   0.252   4.502  0.00  0.00    -0.112 NA
ATOM      5  N   UNL     1      -0.054   1.373   3.979  0.00  0.00    -0.023 NA
ATOM      6  N   UNL     1      -0.591   1.180   2.822  0.00  0.00    -0.039 NA
BRANCH   2  13
ATOM      7  C   UNL     1       1.283  -1.498   0.895  0.00  0.00    +0.046 C 
ATOM      8  C   UNL     1      -0.199  -1.538   0.625  0.00  0.00    -0.025 A 
ATOM      9  C   UNL     1      -0.683  -2.219  -0.475  0.00  0.00    +0.005 A 
ATOM     10  C   UNL     1      -2.043  -2.257  -0.724  0.00  0.00    +0.001 A 
ATOM     11  C   UNL     1      -2.922  -1.613   0.127  0.00  0.00    +0.005 A 
ATOM     12  C   UNL     1      -2.444  -0.931   1.229  0.00  0.00    -0.025 A 
ATOM     13  C   UNL     1      -1.080  -0.896   1.485  0.00  0.00    +0.075 A 
ATOM     14  C   UNL     1      -3.403  -0.229   2.156  0.00  0.00    +0.046 C 
ENDBRANCH   2  13
ENDBRANCH   1   3
BRANCH   1  15
ATOM     15  S   UNL     1       2.006  -2.543   3.898  0.00  0.00    -0.077 S 
BRANCH  15  16
ATOM     16  C   UNL     1       2.124  -4.271   4.222  0.00  0.00    +0.209 A 
ATOM     17  N   UNL     1       1.124  -5.091   4.451  0.00  0.00    -0.121 NA
ATOM     18  N   UNL     1       1.564  -6.282   4.649  0.00  0.00    -0.126 NA
ATOM     19  C   UNL     1       2.875  -6.297   4.558  0.00  0.00    +0.188 A 
ATOM     20  N   UNL     1       3.274  -5.010   4.275  0.00  0.00    -0.223 N 
BRANCH  19  21
ATOM     21  C   UNL     1       3.751  -7.469   4.720  0.00  0.00    +0.058 A 
ATOM     22  C   UNL     1       3.422  -8.802   4.713  0.00  0.00    +0.019 A 
ATOM     23  C   UNL     1       4.424  -9.730   4.885  0.00  0.00    +0.008 A 
ATOM     24  C   UNL     1       5.702  -9.302   5.057  0.00  0.00    +0.046 A 
ATOM     25  S   UNL     1       5.517  -7.528   4.971  0.00  0.00    -0.093 S 
ENDBRANCH  19  21
BRANCH  20  26
ATOM     26  N   UNL     1       4.552  -4.563   4.089  0.00  0.00    -0.295 N 
ATOM     27  H   UNL     1       4.962  -4.267   4.962  0.00  0.00    +0.163 HD
ATOM     28  H   UNL     1       5.120  -5.268   3.643  0.00  0.00    +0.163 HD
ENDBRANCH  20  26
ENDBRANCH  15  16
ENDBRANCH   1  15
TORSDOF 6
