REMARK  Name = ZINC39657590
REMARK  7 active torsions:
REMARK  status: ('A' for Active; 'I' for Inactive)
REMARK    1  A    between atoms: C_1  and  O_2
REMARK    2  A    between atoms: O_2  and  C_3
REMARK    3  A    between atoms: C_6  and  C_10
REMARK    4  A    between atoms: C_14  and  C_23
REMARK    5  A    between atoms: N_25  and  C_26
REMARK    6  A    between atoms: C_26  and  C_27
REMARK    7  A    between atoms: C_27  and  C_28
REMARK                            x       y       z     vdW  Elec       q    Type
REMARK                         _______ _______ _______ _____ _____    ______ ____
ROOT
ATOM      1  C   UNL     1       2.580  -2.542   4.293  0.00  0.00    +0.247 C 
ATOM      2  O   UNL     1       3.738  -2.896   4.186  0.00  0.00    -0.270 OA
ATOM      3  N   UNL     1       1.907  -2.776   5.437  0.00  0.00    -0.296 N 
ATOM      4  C   UNL     1       0.470  -2.538   5.710  0.00  0.00    +0.121 C 
ATOM      5  C   UNL     1       0.029  -3.749   6.561  0.00  0.00    +0.100 C 
ATOM      6  C   UNL     1       1.323  -4.262   7.214  0.00  0.00    -0.004 C 
ATOM      7  C   UNL     1       2.435  -3.334   6.704  0.00  0.00    +0.115 C 
ATOM      8  C   UNL     1       1.601  -5.698   6.779  0.00  0.00    -0.010 C 
ATOM      9  C   UNL     1       2.862  -6.205   7.485  0.00  0.00    -0.082 C 
ATOM     10  N   UNL     1       2.669  -6.142   8.939  0.00  0.00    +0.379 N 
ATOM     11  C   UNL     1       2.494  -4.747   9.361  0.00  0.00    -0.082 C 
ATOM     12  C   UNL     1       1.219  -4.178   8.734  0.00  0.00    -0.010 C 
ATOM     13  H   UNL     1       1.850  -6.673   9.192  0.00  0.00    -0.086 HD
ATOM     14  H   UNL     1       3.476  -6.533   9.401  0.00  0.00    -0.086 HD
ENDROOT
BRANCH   1  18
ATOM     15  C   UNL     1       0.655  -0.569   1.060  0.00  0.00    +0.157 A 
ATOM     16  C   UNL     1       1.736  -1.409   0.816  0.00  0.00    +0.085 A 
ATOM     17  C   UNL     1       2.363  -2.050   1.862  0.00  0.00    +0.036 A 
ATOM     18  C   UNL     1       1.911  -1.856   3.170  0.00  0.00    +0.040 A 
ATOM     19  C   UNL     1       0.825  -1.012   3.412  0.00  0.00    +0.036 A 
ATOM     20  C   UNL     1       0.206  -0.370   2.361  0.00  0.00    +0.085 A 
ATOM     21 CL   UNL     1      -1.140   0.685   2.662  0.00  0.00    -0.080 Cl
ATOM     22 CL   UNL     1       2.296  -1.650  -0.810  0.00  0.00    -0.080 Cl
BRANCH  15  24
ATOM     23  C   UNL     1       0.544   1.346  -0.341  0.00  0.00    +0.277 C 
ATOM     24  O   UNL     1       0.040   0.061   0.028  0.00  0.00    -0.492 OA
ENDBRANCH  15  24
ENDBRANCH   1  18
BRANCH   5  25
ATOM     25  C   UNL     1      -0.578  -4.814   5.684  0.00  0.00    +0.218 C 
ATOM     26  O   UNL     1      -0.146  -4.997   4.566  0.00  0.00    -0.275 OA
ATOM     27  N   UNL     1      -1.600  -5.564   6.143  0.00  0.00    -0.315 N 
ATOM     28  H   UNL     1      -1.945  -5.418   7.038  0.00  0.00    +0.149 HD
BRANCH  27  29
ATOM     29  C   UNL     1      -2.189  -6.599   5.291  0.00  0.00    +0.109 C 
BRANCH  29  30
ATOM     30  C   UNL     1      -3.322  -7.297   6.045  0.00  0.00    +0.061 C 
BRANCH  30  31
ATOM     31  C   UNL     1      -3.928  -8.363   5.169  0.00  0.00    -0.009 A 
ATOM     32  C   UNL     1      -3.589  -9.670   5.056  0.00  0.00    +0.011 A 
ATOM     33  C   UNL     1      -4.293 -10.472   4.176  0.00  0.00    +0.008 A 
ATOM     34  C   UNL     1      -5.302  -9.926   3.453  0.00  0.00    +0.045 A 
ATOM     35  S   UNL     1      -5.284  -8.232   4.015  0.00  0.00    -0.102 S 
ENDBRANCH  30  31
ENDBRANCH  29  30
ENDBRANCH  27  29
ENDBRANCH   5  25
TORSDOF 6
