REMARK  Name = ZINC67479457
REMARK  8 active torsions:
REMARK  status: ('A' for Active; 'I' for Inactive)
REMARK    1  A    between atoms: C_1  and  C_2
REMARK    2  A    between atoms: C_5  and  C_7
REMARK    3  A    between atoms: C_7  and  C_9
REMARK    4  A    between atoms: C_7  and  N_10
REMARK    5  A    between atoms: N_13  and  C_14
REMARK    6  A    between atoms: C_14  and  C_15
REMARK    7  A    between atoms: N_20  and  C_21
REMARK    8  A    between atoms: C_21  and  C_22
REMARK                            x       y       z     vdW  Elec       q    Type
REMARK                         _______ _______ _______ _____ _____    ______ ____
ROOT
ATOM      1  N   UNL     1       0.859  -4.080   1.555  0.00  0.00    -0.291 N 
ATOM      2  C   UNL     1       1.390  -4.616   2.671  0.00  0.00    +0.300 C 
ATOM      3  O   UNL     1       1.007  -4.246   3.765  0.00  0.00    -0.253 OA
ATOM      4  N   UNL     1       2.345  -5.562   2.577  0.00  0.00    -0.301 N 
ATOM      5  H   UNL     1       1.164  -4.376   0.683  0.00  0.00    +0.151 HD
ATOM      6  H   UNL     1       2.651  -5.857   1.705  0.00  0.00    +0.150 HD
ENDROOT
BRANCH   1   7
ATOM      7  C   UNL     1      -0.180  -3.052   1.657  0.00  0.00    +0.127 C 
ATOM      8  C   UNL     1      -1.547  -3.722   1.810  0.00  0.00    +0.035 C 
BRANCH   7  13
ATOM      9  C   UNL     1      -0.295   1.204  -0.972  0.00  0.00    +0.066 C 
ATOM     10  C   UNL     1      -0.220  -0.297  -0.857  0.00  0.00    +0.046 A 
ATOM     11  C   UNL     1      -0.131  -1.090  -1.955  0.00  0.00    +0.070 A 
ATOM     12  S   UNL     1      -0.077  -2.704  -1.193  0.00  0.00    -0.078 S 
ATOM     13  C   UNL     1      -0.172  -2.204   0.412  0.00  0.00    +0.099 A 
ATOM     14  N   UNL     1      -0.233  -0.899   0.316  0.00  0.00    -0.247 NA
ENDBRANCH   7  13
ENDBRANCH   1   7
BRANCH   4  15
ATOM     15  C   UNL     1       2.922  -6.144   3.791  0.00  0.00    +0.090 C 
BRANCH  15  16
ATOM     16  C   UNL     1       3.976  -7.184   3.407  0.00  0.00    -0.051 C 
ATOM     17  C   UNL     1       4.469  -7.923   4.668  0.00  0.00    -0.016 C 
ATOM     18  C   UNL     1       3.618  -9.220   4.670  0.00  0.00    -0.020 C 
ATOM     19  C   UNL     1       3.505  -9.521   3.155  0.00  0.00    -0.078 C 
ATOM     20  N   UNL     1       3.382  -8.193   2.510  0.00  0.00    +0.383 N 
ATOM     21  H   UNL     1       2.408  -7.978   2.357  0.00  0.00    -0.081 HD
BRANCH  20  22
ATOM     22  C   UNL     1       4.094  -8.194   1.226  0.00  0.00    -0.075 C 
BRANCH  22  23
ATOM     23  C   UNL     1       3.389  -9.140   0.252  0.00  0.00    -0.028 C 
ATOM     24  C   UNL     1       4.207  -9.250  -1.036  0.00  0.00    +0.002 C 
ATOM     25  C   UNL     1       3.502 -10.196  -2.010  0.00  0.00    +0.000 C 
ATOM     26  C   UNL     1       2.110  -9.648  -2.334  0.00  0.00    +0.000 C 
ATOM     27  C   UNL     1       1.292  -9.539  -1.046  0.00  0.00    +0.000 C 
ATOM     28  C   UNL     1       1.997  -8.593  -0.073  0.00  0.00    +0.002 C 
ENDBRANCH  22  23
ENDBRANCH  20  22
ENDBRANCH  15  16
ENDBRANCH   4  15
TORSDOF 6
