REMARK  Name = ZINC05697590
REMARK  9 active torsions:
REMARK  status: ('A' for Active; 'I' for Inactive)
REMARK    1  A    between atoms: C_1  and  C_2
REMARK    2  A    between atoms: C_4  and  O_12
REMARK    3  A    between atoms: C_5  and  C_9
REMARK    4  A    between atoms: C_9  and  C_10
REMARK    5  A    between atoms: C_9  and  C_11
REMARK    6  A    between atoms: O_12  and  C_13
REMARK    7  A    between atoms: C_13  and  C_14
REMARK    8  A    between atoms: N_16  and  N_17
REMARK    9  A    between atoms: C_18  and  C_19
REMARK                            x       y       z     vdW  Elec       q    Type
REMARK                         _______ _______ _______ _____ _____    ______ ____
ROOT
ATOM      1  O   UNL     1      -1.915  -0.197   3.109  0.00  0.00    -0.482 OA
ENDROOT
BRANCH   1   5
ATOM      2  C   UNL     1       2.195  -0.690   5.696  0.00  0.00    +0.045 C 
ATOM      3  C   UNL     1       1.438  -0.129   4.519  0.00  0.00    -0.029 A 
ATOM      4  C   UNL     1       0.100  -0.429   4.352  0.00  0.00    +0.050 A 
ATOM      5  C   UNL     1      -0.597   0.092   3.272  0.00  0.00    +0.125 A 
ATOM      6  C   UNL     1       0.054   0.906   2.356  0.00  0.00    -0.002 A 
ATOM      7  C   UNL     1       1.392   1.203   2.526  0.00  0.00    +0.027 A 
ATOM      8  C   UNL     1       2.085   0.686   3.607  0.00  0.00    +0.044 A 
ATOM      9 CL   UNL     1       3.766   1.062   3.819  0.00  0.00    -0.083 Cl
BRANCH   6  10
ATOM     10  C   UNL     1      -0.700   1.469   1.179  0.00  0.00    +0.016 C 
ATOM     11  C   UNL     1      -0.047   0.992  -0.121  0.00  0.00    +0.012 C 
ATOM     12  C   UNL     1      -0.665   2.998   1.235  0.00  0.00    +0.012 C 
ENDBRANCH   6  10
ENDBRANCH   1   5
BRANCH   1  13
ATOM     13  C   UNL     1      -2.520  -1.040   4.091  0.00  0.00    +0.326 C 
BRANCH  13  14
ATOM     14  C   UNL     1      -3.973  -1.249   3.748  0.00  0.00    +0.270 C 
ATOM     15  O   UNL     1      -4.443  -0.726   2.759  0.00  0.00    -0.270 OA
ATOM     16  N   UNL     1      -4.749  -2.015   4.539  0.00  0.00    -0.204 N 
ATOM     17  H   UNL     1      -4.372  -2.433   5.330  0.00  0.00    +0.177 HD
BRANCH  16  18
ATOM     18  N   UNL     1      -6.099  -2.209   4.220  0.00  0.00    -0.185 NA
ATOM     19  C   UNL     1      -6.828  -3.013   4.938  0.00  0.00    +0.176 C 
BRANCH  19  20
ATOM     20  C   UNL     1      -6.287  -3.588   6.173  0.00  0.00    +0.147 A 
ATOM     21  C   UNL     1      -6.894  -4.528   6.953  0.00  0.00    +0.051 A 
ATOM     22  C   UNL     1      -6.024  -4.787   8.028  0.00  0.00    +0.042 A 
ATOM     23  C   UNL     1      -4.939  -4.003   7.856  0.00  0.00    +0.196 A 
ATOM     24  O   UNL     1      -5.098  -3.285   6.733  0.00  0.00    -0.462 OA
ENDBRANCH  19  20
ENDBRANCH  16  18
ENDBRANCH  13  14
ENDBRANCH   1  13
TORSDOF 6
