REMARK  Name = ZINC37475114
REMARK  3 active torsions:
REMARK  status: ('A' for Active; 'I' for Inactive)
REMARK    1  A    between atoms: C_1  and  C_2
REMARK    2  A    between atoms: C_4  and  C_7
REMARK    3  A    between atoms: C_11  and  N_13
REMARK                            x       y       z     vdW  Elec       q    Type
REMARK                         _______ _______ _______ _____ _____    ______ ____
ROOT
ATOM      1  C   UNL     1       0.037  -3.191  -1.673  0.00  0.00    +0.041 A 
ATOM      2  C   UNL     1       0.033  -2.979  -3.053  0.00  0.00    +0.016 A 
ATOM      3  C   UNL     1       0.043  -4.054  -3.917  0.00  0.00    +0.041 A 
ATOM      4  C   UNL     1       0.057  -5.346  -3.420  0.00  0.00    +0.144 A 
ATOM      5  C   UNL     1       0.062  -5.568  -2.046  0.00  0.00    +0.061 A 
ATOM      6  C   UNL     1       0.057  -4.494  -1.172  0.00  0.00    +0.039 A 
ATOM      7  F   UNL     1       0.067  -6.395  -4.272  0.00  0.00    -0.204 F 
ENDROOT
BRANCH   1  11
ATOM      8  C   UNL     1      -0.018   1.503   0.010  0.00  0.00    +0.091 C 
ATOM      9  C   UNL     1       0.002  -0.004   0.002  0.00  0.00    +0.169 A 
ATOM     10  N   UNL     1       0.007  -0.772  -1.090  0.00  0.00    -0.192 NA
ATOM     11  C   UNL     1       0.026  -2.041  -0.746  0.00  0.00    +0.259 A 
ATOM     12  O   UNL     1       0.033  -2.107   0.597  0.00  0.00    -0.333 OA
ATOM     13  N   UNL     1       0.023  -0.765   1.059  0.00  0.00    -0.061 NA
ENDBRANCH   1  11
BRANCH   5  14
ATOM     14  N   UNL     1       0.076  -6.875  -1.548  0.00  0.00    -0.356 N 
ATOM     15  H   UNL     1       0.083  -7.627  -2.160  0.00  0.00    +0.142 HD
ATOM     16  H   UNL     1       0.079  -7.029  -0.590  0.00  0.00    +0.142 HD
ENDBRANCH   5  14
TORSDOF 2
