REMARK  Name = ZINC05420521
REMARK  4 active torsions:
REMARK  status: ('A' for Active; 'I' for Inactive)
REMARK    1  A    between atoms: C_3  and  C_8
REMARK    2  A    between atoms: C_5  and  O_7
REMARK    3  A    between atoms: N_9  and  N_10
REMARK    4  A    between atoms: C_12  and  N_18
REMARK                            x       y       z     vdW  Elec       q    Type
REMARK                         _______ _______ _______ _____ _____    ______ ____
ROOT
ATOM      1  N   UNL     1       4.838   4.182  -0.023  0.00  0.00    -0.219 N 
ATOM      2  C   UNL     1       4.819   5.569  -0.016  0.00  0.00    +0.164 A 
ATOM      3  C   UNL     1       6.015   6.299  -0.030  0.00  0.00    +0.104 A 
ATOM      4  C   UNL     1       5.938   7.686  -0.022  0.00  0.00    +0.155 A 
ATOM      5  N   UNL     1       4.745   8.265  -0.002  0.00  0.00    -0.222 NA
ATOM      6  C   UNL     1       3.640   7.547   0.011  0.00  0.00    +0.225 A 
ATOM      7  N   UNL     1       3.664   6.229  -0.001  0.00  0.00    -0.217 NA
ATOM      8 CL   UNL     1       7.383   8.648  -0.037  0.00  0.00    -0.060 Cl
ATOM      9  H   UNL     1       5.685   3.709  -0.034  0.00  0.00    +0.176 HD
ENDROOT
BRANCH   3  10
ATOM     10  N   UNL     1       7.255   5.648  -0.051  0.00  0.00    -0.353 N 
ATOM     11  H   UNL     1       7.293   4.679  -0.056  0.00  0.00    +0.143 HD
ATOM     12  H   UNL     1       8.075   6.166  -0.060  0.00  0.00    +0.143 HD
ENDBRANCH   3  10
BRANCH   1  14
ATOM     13  C   UNL     1       3.654   2.166  -0.022  0.00  0.00    +0.138 C 
ATOM     14  N   UNL     1       3.635   3.464  -0.015  0.00  0.00    -0.189 NA
BRANCH  13  17
ATOM     15  C   UNL     1      -0.017   1.378   0.010  0.00  0.00    +0.004 A 
ATOM     16  C   UNL     1       1.166   2.089   0.002  0.00  0.00    +0.010 A 
ATOM     17  C   UNL     1       2.387   1.411  -0.013  0.00  0.00    -0.002 A 
ATOM     18  C   UNL     1       2.404   0.014  -0.021  0.00  0.00    +0.054 A 
ATOM     19  C   UNL     1       1.211  -0.688  -0.013  0.00  0.00    +0.117 A 
ATOM     20  C   UNL     1       0.002  -0.004   0.002  0.00  0.00    +0.045 A 
BRANCH  19  21
ATOM     21  O   UNL     1       1.223  -2.047  -0.021  0.00  0.00    -0.507 OA
ATOM     22  H   UNL     1       1.234  -2.445   0.860  0.00  0.00    +0.292 HD
ENDBRANCH  19  21
ENDBRANCH  13  17
ENDBRANCH   1  14
TORSDOF 4
