REMARK  Name = ZINC67144423
REMARK  7 active torsions:
REMARK  status: ('A' for Active; 'I' for Inactive)
REMARK    1  A    between atoms: C_6  and  N_7
REMARK    2  A    between atoms: N_7  and  N_8
REMARK    3  A    between atoms: C_9  and  C_11
REMARK    4  A    between atoms: C_11  and  C_12
REMARK    5  A    between atoms: C_12  and  C_13
REMARK    6  A    between atoms: C_13  and  C_14
REMARK    7  A    between atoms: C_14  and  C_15
REMARK                            x       y       z     vdW  Elec       q    Type
REMARK                         _______ _______ _______ _____ _____    ______ ____
ROOT
ATOM      1  C   UNL     1      -2.314  -4.319   0.002  0.00  0.00    +0.097 C 
ENDROOT
BRANCH   1   3
ATOM      2  N   UNL     1      -1.178  -2.121   0.002  0.00  0.00    -0.237 N 
ATOM      3  C   UNL     1      -2.336  -2.812   0.010  0.00  0.00    +0.229 C 
ATOM      4  O   UNL     1      -3.395  -2.221   0.024  0.00  0.00    -0.274 OA
ATOM      5  H   UNL     1      -0.331  -2.594  -0.009  0.00  0.00    +0.173 HD
BRANCH   2   6
ATOM      6  N   UNL     1      -1.198  -0.721   0.010  0.00  0.00    -0.264 N 
ATOM      7  H   UNL     1      -2.045  -0.248   0.021  0.00  0.00    +0.170 HD
BRANCH   6  13
ATOM      8  C   UNL     1      -0.017   1.385   0.010  0.00  0.00    +0.027 A 
ATOM      9  C   UNL     1       1.171   2.090   0.002  0.00  0.00    +0.040 A 
ATOM     10  C   UNL     1       2.379   1.414  -0.013  0.00  0.00    +0.124 A 
ATOM     11  C   UNL     1       2.400   0.030  -0.022  0.00  0.00    +0.040 A 
ATOM     12  C   UNL     1       1.215  -0.680  -0.014  0.00  0.00    +0.027 A 
ATOM     13  C   UNL     1       0.002  -0.004   0.002  0.00  0.00    +0.045 A 
ATOM     14  F   UNL     1       3.539   2.107  -0.021  0.00  0.00    -0.205 F 
ENDBRANCH   6  13
ENDBRANCH   2   6
ENDBRANCH   1   3
BRANCH   1  15
ATOM     15  C   UNL     1      -3.749  -4.850   0.013  0.00  0.00    +0.009 C 
BRANCH  15  16
ATOM     16  C   UNL     1      -3.727  -6.380   0.005  0.00  0.00    +0.002 C 
BRANCH  16  17
ATOM     17  C   UNL     1      -5.162  -6.910   0.016  0.00  0.00    +0.016 C 
BRANCH  17  18
ATOM     18  C   UNL     1      -5.140  -8.440   0.008  0.00  0.00    +0.069 C 
ATOM     19  C   UNL     1      -6.572  -9.015  -0.024  0.00  0.00    +0.108 C 
ATOM     20  C   UNL     1      -6.761 -10.246   0.867  0.00  0.00    +0.105 C 
ATOM     21  C   UNL     1      -5.485 -10.662   1.629  0.00  0.00    +0.093 C 
ATOM     22  S   UNL     1      -4.516  -9.103   1.613  0.00  0.00    -0.154 S 
ATOM     23  N   UNL     1      -7.779  -9.826   1.844  0.00  0.00    -0.294 N 
ATOM     24  C   UNL     1      -8.139  -8.562   1.583  0.00  0.00    +0.300 C 
ATOM     25  O   UNL     1      -8.968  -7.960   2.238  0.00  0.00    -0.253 OA
ATOM     26  N   UNL     1      -7.500  -8.025   0.545  0.00  0.00    -0.294 N 
ATOM     27  H   UNL     1      -8.133 -10.376   2.560  0.00  0.00    +0.151 HD
ATOM     28  H   UNL     1      -7.632  -7.122   0.217  0.00  0.00    +0.151 HD
ENDBRANCH  17  18
ENDBRANCH  16  17
ENDBRANCH  15  16
ENDBRANCH   1  15
TORSDOF 7
