REMARK  Name = ZINC47871665
REMARK  7 active torsions:
REMARK  status: ('A' for Active; 'I' for Inactive)
REMARK    1  A    between atoms: C_1  and  C_2
REMARK    2  A    between atoms: C_2  and  C_25
REMARK    3  A    between atoms: C_3  and  C_4
REMARK    4  A    between atoms: N_6  and  N_7
REMARK    5  A    between atoms: C_8  and  C_10
REMARK    6  A    between atoms: C_14  and  S_16
REMARK    7  A    between atoms: S_16  and  N_19
REMARK                            x       y       z     vdW  Elec       q    Type
REMARK                         _______ _______ _______ _____ _____    ______ ____
ROOT
ATOM      1  C   UNL     1       0.575   0.137   7.232  0.00  0.00    +0.040 A 
ATOM      2  C   UNL     1       0.342   1.513   7.260  0.00  0.00    +0.013 A 
ATOM      3  C   UNL     1       0.345   2.186   8.463  0.00  0.00    +0.003 A 
ATOM      4  C   UNL     1       0.580   1.501   9.642  0.00  0.00    +0.028 A 
ATOM      5  C   UNL     1       0.812   0.137   9.622  0.00  0.00    +0.106 A 
ATOM      6  C   UNL     1       0.805  -0.549   8.425  0.00  0.00    +0.041 A 
ENDROOT
BRANCH   1   8
ATOM      7  N   UNL     1       0.350   0.075   4.795  0.00  0.00    -0.230 N 
ATOM      8  C   UNL     1       0.573  -0.591   5.945  0.00  0.00    +0.260 C 
ATOM      9  O   UNL     1       0.771  -1.790   5.925  0.00  0.00    -0.269 OA
ATOM     10  H   UNL     1       0.191   1.032   4.811  0.00  0.00    +0.173 HD
BRANCH   7  13
ATOM     11  C   UNL     1       0.125   0.051   2.425  0.00  0.00    +0.253 C 
ATOM     12  O   UNL     1      -0.074   1.250   2.445  0.00  0.00    -0.269 OA
ATOM     13  N   UNL     1       0.348  -0.615   3.575  0.00  0.00    -0.231 N 
ATOM     14  H   UNL     1       0.506  -1.572   3.559  0.00  0.00    +0.173 HD
BRANCH  11  17
ATOM     15  C   UNL     1      -0.770   1.358   0.087  0.00  0.00    +0.039 C 
ATOM     16  C   UNL     1      -0.222  -0.044   0.025  0.00  0.00    -0.071 C 
ATOM     17  C   UNL     1       0.122  -0.674   1.145  0.00  0.00    +0.067 C 
ATOM     18  C   UNL     1      -0.064  -0.733  -1.306  0.00  0.00    +0.039 C 
ENDBRANCH  11  17
ENDBRANCH   7  13
ENDBRANCH   1   8
BRANCH   5  19
ATOM     19  S   UNL     1       1.110  -0.726  11.129  0.00  0.00    +0.061 S 
ATOM     20  O   UNL     1       1.839  -1.897  10.789  0.00  0.00    -0.153 OA
ATOM     21  O   UNL     1       1.599   0.233  12.056  0.00  0.00    -0.153 OA
BRANCH  19  22
ATOM     22  N   UNL     1      -0.358  -1.232  11.702  0.00  0.00    -0.177 NA
ATOM     23  C   UNL     1      -1.147  -0.378  12.600  0.00  0.00    +0.109 C 
ATOM     24  C   UNL     1      -2.552  -0.209  12.013  0.00  0.00    +0.017 C 
ATOM     25  C   UNL     1      -3.164  -1.589  11.762  0.00  0.00    +0.003 C 
ATOM     26  C   UNL     1      -2.306  -2.353  10.750  0.00  0.00    +0.017 C 
ATOM     27  C   UNL     1      -0.901  -2.543  11.318  0.00  0.00    +0.109 C 
ENDBRANCH  19  22
ENDBRANCH   5  19
TORSDOF 5
