REMARK  Name = ZINC00273921
REMARK  2 active torsions:
REMARK  status: ('A' for Active; 'I' for Inactive)
REMARK    1  A    between atoms: C_3  and  O_20
REMARK    2  A    between atoms: C_8  and  C_12
REMARK                            x       y       z     vdW  Elec       q    Type
REMARK                         _______ _______ _______ _____ _____    ______ ____
ROOT
ATOM      1  C   UNL     1       3.557   2.190  -0.021  0.00  0.00    +0.015 A 
ATOM      2  C   UNL     1       3.480   3.551  -0.013  0.00  0.00    +0.046 A 
ATOM      3  C   UNL     1       2.239   4.187   0.003  0.00  0.00    +0.120 A 
ATOM      4  C   UNL     1       1.069   3.445   0.010  0.00  0.00    +0.092 A 
ATOM      5  C   UNL     1       1.127   2.059   0.002  0.00  0.00    +0.143 A 
ATOM      6  C   UNL     1       2.382   1.421  -0.013  0.00  0.00    +0.019 A 
ATOM      7  C   UNL     1       2.458   0.008  -0.021  0.00  0.00    +0.031 A 
ATOM      8  C   UNL     1       1.280  -0.723  -0.014  0.00  0.00    +0.122 A 
ATOM      9  C   UNL     1       0.002  -0.004   0.002  0.00  0.00    +0.350 A 
ATOM     10  O   UNL     1      -1.044  -0.625   0.008  0.00  0.00    -0.244 OA
ATOM     11  O   UNL     1      -0.016   1.339   0.009  0.00  0.00    -0.422 OA
ENDROOT
BRANCH   8  12
ATOM     12  C   UNL     1       1.312  -2.194  -0.022  0.00  0.00    +0.257 C 
ATOM     13  O   UNL     1       0.272  -2.825  -0.015  0.00  0.00    -0.270 OA
ATOM     14  N   UNL     1       2.493  -2.843  -0.037  0.00  0.00    -0.260 N 
ATOM     15  C   UNL     1       2.523  -4.231  -0.044  0.00  0.00    +0.165 A 
ATOM     16  N   UNL     1       1.515  -5.082  -0.033  0.00  0.00    -0.233 NA
ATOM     17  C   UNL     1       1.720  -6.384  -0.047  0.00  0.00    +0.120 A 
ATOM     18  C   UNL     1       2.998  -6.837  -0.062  0.00  0.00    +0.068 A 
ATOM     19  S   UNL     1       3.897  -5.293  -0.063  0.00  0.00    -0.061 S 
ATOM     20  H   UNL     1       3.322  -2.340  -0.042  0.00  0.00    +0.157 HD
ENDBRANCH   8  12
BRANCH   3  21
ATOM     21  O   UNL     1       2.178   5.542   0.011  0.00  0.00    -0.507 OA
ATOM     22  H   UNL     1       2.151   5.940  -0.870  0.00  0.00    +0.292 HD
ENDBRANCH   3  21
TORSDOF 2
