REMARK  Name = ZINC05126647
REMARK  8 active torsions:
REMARK  status: ('A' for Active; 'I' for Inactive)
REMARK    1  A    between atoms: C_1  and  C_2
REMARK    2  A    between atoms: N_4  and  C_5
REMARK    3  A    between atoms: C_7  and  O_28
REMARK    4  A    between atoms: C_9  and  O_27
REMARK    5  A    between atoms: C_11  and  C_25
REMARK    6  A    between atoms: C_14  and  O_16
REMARK    7  A    between atoms: O_16  and  C_17
REMARK    8  A    between atoms: C_25  and  O_26
REMARK                            x       y       z     vdW  Elec       q    Type
REMARK                         _______ _______ _______ _____ _____    ______ ____
ROOT
ATOM      1  C   UNL     1       5.952   2.267   0.205  0.00  0.00    +0.173 C 
ATOM      2  C   UNL     1       7.246   1.452   0.127  0.00  0.00    +0.172 C 
ATOM      3  C   UNL     1       7.317   0.757  -1.236  0.00  0.00    +0.176 C 
ATOM      4  C   UNL     1       6.071  -0.112  -1.423  0.00  0.00    +0.179 C 
ATOM      5  O   UNL     1       4.902   0.702  -1.308  0.00  0.00    -0.332 OA
ATOM      6  C   UNL     1       4.758   1.339  -0.037  0.00  0.00    +0.331 C 
ENDROOT
BRANCH   1  10
ATOM      7  C   UNL     1       4.983   4.620   3.065  0.00  0.00    +0.109 C 
ATOM      8  C   UNL     1       5.101   3.993   1.700  0.00  0.00    +0.210 C 
ATOM      9  O   UNL     1       4.534   4.494   0.752  0.00  0.00    -0.276 OA
ATOM     10  N   UNL     1       5.837   2.876   1.533  0.00  0.00    -0.304 N 
ATOM     11  H   UNL     1       6.290   2.476   2.291  0.00  0.00    +0.149 HD
ENDBRANCH   1  10
BRANCH   3  12
ATOM     12  O   UNL     1       7.374   1.740  -2.272  0.00  0.00    -0.387 OA
ATOM     13  H   UNL     1       7.416   1.369  -3.164  0.00  0.00    +0.210 HD
ENDBRANCH   3  12
BRANCH   2  14
ATOM     14  O   UNL     1       8.370   2.322   0.279  0.00  0.00    -0.387 OA
ATOM     15  H   UNL     1       9.225   1.873   0.233  0.00  0.00    +0.210 HD
ENDBRANCH   2  14
BRANCH   6  16
ATOM     16  O   UNL     1       3.551   2.103  -0.021  0.00  0.00    -0.460 OA
BRANCH  16  17
ATOM     17  C   UNL     1       2.382   1.409  -0.013  0.00  0.00    +0.142 A 
ATOM     18  C   UNL     1       2.397   0.022  -0.021  0.00  0.00    +0.049 A 
ATOM     19  C   UNL     1       1.209  -0.681  -0.013  0.00  0.00    +0.023 A 
ATOM     20  C   UNL     1       0.002  -0.004   0.002  0.00  0.00    +0.043 A 
ATOM     21  C   UNL     1      -0.017   1.379   0.010  0.00  0.00    +0.043 A 
ATOM     22  C   UNL     1       1.171   2.087   0.002  0.00  0.00    +0.084 A 
ATOM     23 CL   UNL     1       1.147   3.823   0.011  0.00  0.00    -0.080 Cl
ATOM     24 CL   UNL     1      -1.490  -0.891   0.011  0.00  0.00    -0.083 Cl
ENDBRANCH  16  17
ENDBRANCH   6  16
BRANCH   4  25
ATOM     25  C   UNL     1       6.105  -0.763  -2.808  0.00  0.00    +0.190 C 
BRANCH  25  26
ATOM     26  O   UNL     1       5.003  -1.663  -2.938  0.00  0.00    -0.392 OA
ATOM     27  H   UNL     1       4.961  -2.112  -3.793  0.00  0.00    +0.210 HD
ENDBRANCH  25  26
ENDBRANCH   4  25
TORSDOF 7
