REMARK  Name = ZINC13995179
REMARK  8 active torsions:
REMARK  status: ('A' for Active; 'I' for Inactive)
REMARK    1  A    between atoms: C_1  and  C_2
REMARK    2  A    between atoms: C_9  and  C_12
REMARK    3  A    between atoms: C_13  and  C_16
REMARK    4  A    between atoms: C_19  and  O_24
REMARK    5  A    between atoms: C_20  and  O_22
REMARK    6  A    between atoms: O_22  and  C_23
REMARK    7  A    between atoms: O_24  and  C_25
REMARK    8  A    between atoms: C_25  and  C_26
REMARK                            x       y       z     vdW  Elec       q    Type
REMARK                         _______ _______ _______ _____ _____    ______ ____
ROOT
ATOM      1  C   UNL     1       2.088  -2.854   2.270  0.00  0.00    -0.026 A 
ATOM      2  C   UNL     1       1.697  -2.801   3.595  0.00  0.00    +0.009 A 
ATOM      3  C   UNL     1       2.538  -3.271   4.586  0.00  0.00    +0.050 A 
ATOM      4  C   UNL     1       3.776  -3.797   4.253  0.00  0.00    +0.162 A 
ATOM      5  C   UNL     1       4.169  -3.850   2.919  0.00  0.00    +0.162 A 
ATOM      6  C   UNL     1       3.319  -3.382   1.930  0.00  0.00    +0.054 A 
ENDROOT
BRANCH   1  18
ATOM      7  C   UNL     1      -0.019   1.526   0.010  0.00  0.00    +0.029 C 
ATOM      8  C   UNL     1       0.002  -0.004   0.002  0.00  0.00    +0.132 C 
ATOM      9  C   UNL     1      -1.390  -0.498  -0.030  0.00  0.00    +0.251 C 
ATOM     10  O   UNL     1      -2.210   0.301  -0.440  0.00  0.00    -0.272 OA
ATOM     11  N   UNL     1      -1.866  -1.639   0.306  0.00  0.00    -0.163 NA
ATOM     12  C   UNL     1      -1.401  -2.745   0.830  0.00  0.00    +0.134 C 
ATOM     13  C   UNL     1      -0.114  -3.117   1.242  0.00  0.00    +0.026 C 
ATOM     14  C   UNL     1      -0.175  -4.388   1.732  0.00  0.00    +0.026 C 
ATOM     15  N   UNL     1      -1.452  -4.840   1.644  0.00  0.00    -0.269 N 
ATOM     16  N   UNL     1      -2.231  -3.831   1.075  0.00  0.00    -0.252 N 
ATOM     17  C   UNL     1       0.991  -5.166   2.285  0.00  0.00    +0.062 C 
ATOM     18  C   UNL     1       1.167  -2.340   1.193  0.00  0.00    +0.112 C 
ATOM     19  S   UNL     1       0.920  -0.577   1.438  0.00  0.00    -0.135 S 
ATOM     20  H   UNL     1      -1.768  -5.713   1.927  0.00  0.00    +0.170 HD
ATOM     21  H   UNL     1      -3.181  -3.880   0.885  0.00  0.00    +0.171 HD
ENDBRANCH   1  18
BRANCH   5  22
ATOM     22  O   UNL     1       5.383  -4.366   2.587  0.00  0.00    -0.491 OA
ATOM     23  C   UNL     1       5.720  -4.389   1.198  0.00  0.00    +0.277 C 
ENDBRANCH   5  22
BRANCH   4  24
ATOM     24  O   UNL     1       4.604  -4.259   5.227  0.00  0.00    -0.484 OA
BRANCH  24  25
ATOM     25  C   UNL     1       4.135  -4.172   6.574  0.00  0.00    +0.267 C 
BRANCH  25  26
ATOM     26  C   UNL     1       5.179  -4.728   7.507  0.00  0.00    +0.025 A 
ATOM     27  C   UNL     1       6.372  -5.211   7.001  0.00  0.00    +0.010 A 
ATOM     28  C   UNL     1       7.330  -5.721   7.857  0.00  0.00    +0.001 A 
ATOM     29  C   UNL     1       7.097  -5.748   9.219  0.00  0.00    +0.003 A 
ATOM     30  C   UNL     1       5.906  -5.265   9.727  0.00  0.00    +0.039 A 
ATOM     31  C   UNL     1       4.948  -4.749   8.871  0.00  0.00    +0.130 A 
ATOM     32  F   UNL     1       3.785  -4.273   9.367  0.00  0.00    -0.205 F 
ENDBRANCH  25  26
ENDBRANCH  24  25
ENDBRANCH   4  24
TORSDOF 5
