REMARK  Name = ZINC20070989
REMARK  9 active torsions:
REMARK  status: ('A' for Active; 'I' for Inactive)
REMARK    1  A    between atoms: C_1  and  O_2
REMARK    2  A    between atoms: O_2  and  C_3
REMARK    3  A    between atoms: C_6  and  O_33
REMARK    4  A    between atoms: C_7  and  C_9
REMARK    5  A    between atoms: C_15  and  C_17
REMARK    6  A    between atoms: C_22  and  O_23
REMARK    7  A    between atoms: C_28  and  O_31
REMARK    8  A    between atoms: O_31  and  C_32
REMARK    9  A    between atoms: O_33  and  C_34
REMARK                            x       y       z     vdW  Elec       q    Type
REMARK                         _______ _______ _______ _____ _____    ______ ____
ROOT
ATOM      1  C   UNL     1      -0.857   1.672   6.060  0.00  0.00    +0.314 C 
ATOM      2  N   UNL     1      -2.128   2.348   5.771  0.00  0.00    -0.205 N 
ATOM      3  C   UNL     1      -2.157   3.601   4.983  0.00  0.00    +0.136 C 
ATOM      4  C   UNL     1      -3.558   4.154   5.279  0.00  0.00    +0.086 C 
ATOM      5  C   UNL     1      -4.261   2.999   5.963  0.00  0.00    +0.072 C 
ATOM      6  N   UNL     1      -3.414   2.046   6.179  0.00  0.00    -0.184 NA
ATOM      7  C   UNL     1      -1.073   4.482   5.546  0.00  0.00    +0.020 A 
ATOM      8  C   UNL     1      -1.070   5.830   5.236  0.00  0.00    +0.009 A 
ATOM      9  C   UNL     1      -0.064   6.654   5.704  0.00  0.00    +0.004 A 
ATOM     10  C   UNL     1       0.945   6.126   6.489  0.00  0.00    +0.049 A 
ATOM     11  C   UNL     1       0.941   4.782   6.811  0.00  0.00    +0.162 A 
ATOM     12  C   UNL     1      -0.079   3.944   6.346  0.00  0.00    +0.170 A 
ATOM     13  O   UNL     1      -0.031   2.639   6.719  0.00  0.00    -0.461 OA
ENDROOT
BRANCH   1  18
ATOM     14  C   UNL     1       1.760   0.933   3.436  0.00  0.00    +0.121 A 
ATOM     15  C   UNL     1       0.987   0.399   2.415  0.00  0.00    +0.049 A 
ATOM     16  C   UNL     1      -0.379   0.278   2.575  0.00  0.00    +0.049 A 
ATOM     17  C   UNL     1      -0.979   0.690   3.756  0.00  0.00    +0.129 A 
ATOM     18  C   UNL     1      -0.206   1.224   4.777  0.00  0.00    +0.058 A 
ATOM     19  C   UNL     1       1.162   1.340   4.619  0.00  0.00    +0.058 A 
BRANCH  14  21
ATOM     20  C   UNL     1       3.655   0.609   2.037  0.00  0.00    +0.277 C 
ATOM     21  O   UNL     1       3.106   1.053   3.278  0.00  0.00    -0.495 OA
ENDBRANCH  14  21
BRANCH  17  22
ATOM     22  O   UNL     1      -2.324   0.571   3.914  0.00  0.00    -0.495 OA
ATOM     23  C   UNL     1      -3.058   0.013   2.822  0.00  0.00    +0.277 C 
ENDBRANCH  17  22
ENDBRANCH   1  18
BRANCH   5  24
ATOM     24  C   UNL     1      -5.690   2.966   6.325  0.00  0.00    +0.039 A 
ATOM     25  C   UNL     1      -6.511   4.059   6.041  0.00  0.00    +0.013 A 
ATOM     26  C   UNL     1      -7.847   4.023   6.382  0.00  0.00    +0.001 A 
ATOM     27  C   UNL     1      -8.377   2.907   7.006  0.00  0.00    +0.004 A 
ATOM     28  C   UNL     1      -7.575   1.818   7.293  0.00  0.00    +0.046 A 
ATOM     29  C   UNL     1      -6.232   1.837   6.952  0.00  0.00    +0.126 A 
BRANCH  29  30
ATOM     30  O   UNL     1      -5.444   0.766   7.229  0.00  0.00    -0.506 OA
ATOM     31  H   UNL     1      -5.872  -0.120   7.721  0.00  0.00    +0.292 HD
ENDBRANCH  29  30
ENDBRANCH   5  24
BRANCH  11  32
ATOM     32  O   UNL     1       1.935   4.271   7.585  0.00  0.00    -0.491 OA
ATOM     33  C   UNL     1       2.946   5.179   8.026  0.00  0.00    +0.277 C 
ENDBRANCH  11  32
TORSDOF 6
