REMARK  Name = ZINC40366442
REMARK  7 active torsions:
REMARK  status: ('A' for Active; 'I' for Inactive)
REMARK    1  A    between atoms: C_1  and  C_2
REMARK    2  A    between atoms: N_7  and  S_9
REMARK    3  A    between atoms: S_9  and  N_12
REMARK    4  A    between atoms: N_12  and  C_13
REMARK    5  A    between atoms: C_13  and  C_20
REMARK    6  A    between atoms: N_16  and  C_19
REMARK    7  A    between atoms: C_20  and  N_22
REMARK                            x       y       z     vdW  Elec       q    Type
REMARK                         _______ _______ _______ _____ _____    ______ ____
ROOT
ATOM      1  C   UNL     1       2.163  -2.005   3.943  0.00  0.00    +0.082 C 
ATOM      2  C   UNL     1       2.540  -0.912   2.939  0.00  0.00    +0.012 C 
ATOM      3  C   UNL     1       3.557  -1.471   1.943  0.00  0.00    -0.077 C 
ATOM      4  N   UNL     1       4.759  -1.913   2.661  0.00  0.00    +0.378 N 
ATOM      5  C   UNL     1       4.418  -3.011   3.574  0.00  0.00    -0.077 C 
ATOM      6  C   UNL     1       3.433  -2.511   4.633  0.00  0.00    +0.012 C 
ATOM      7  C   UNL     1       5.763  -2.377   1.693  0.00  0.00    -0.096 C 
ATOM      8  H   UNL     1       5.136  -1.142   3.190  0.00  0.00    -0.082 HD
ENDROOT
BRANCH   1   9
ATOM      9  N   UNL     1       1.513  -3.114   3.240  0.00  0.00    -0.168 NA
ATOM     10  H   UNL     1       1.445  -3.101   2.272  0.00  0.00    +0.150 HD
BRANCH   9  11
ATOM     11  S   UNL     1       0.894  -4.389   4.096  0.00  0.00    +0.098 S 
ATOM     12  O   UNL     1       1.881  -4.754   5.051  0.00  0.00    -0.141 OA
ATOM     13  O   UNL     1       0.380  -5.308   3.142  0.00  0.00    -0.141 OA
BRANCH  11  19
ATOM     14  C   UNL     1      -1.306  -3.775   8.629  0.00  0.00    +0.009 C 
ATOM     15  C   UNL     1      -1.342  -4.226   7.168  0.00  0.00    +0.002 C 
ATOM     16  C   UNL     1      -2.720  -3.922   6.573  0.00  0.00    +0.006 C 
ATOM     17  C   UNL     1      -2.768  -4.403   5.121  0.00  0.00    +0.017 C 
ATOM     18  C   UNL     1      -1.713  -3.651   4.304  0.00  0.00    +0.110 C 
ATOM     19  N   UNL     1      -0.405  -3.819   4.952  0.00  0.00    -0.166 NA
ATOM     20  C   UNL     1      -0.270  -3.473   6.373  0.00  0.00    +0.113 C 
ENDBRANCH  11  19
ENDBRANCH   9  11
ENDBRANCH   1   9
BRANCH   1  21
ATOM     21  C   UNL     1       1.220  -1.441   4.975  0.00  0.00    +0.068 C 
ATOM     22  S   UNL     1       1.712  -1.242   6.483  0.00  0.00    -0.039 S 
BRANCH  21  23
ATOM     23  N   UNL     1      -0.037  -1.105   4.626  0.00  0.00    -0.354 N 
ATOM     24  H   UNL     1      -0.360  -1.296   3.731  0.00  0.00    +0.143 HD
ATOM     25  H   UNL     1      -0.620  -0.672   5.270  0.00  0.00    +0.143 HD
ENDBRANCH  21  23
ENDBRANCH   1  21
TORSDOF 5
