REMARK  Name = ZINC02050124
REMARK  7 active torsions:
REMARK  status: ('A' for Active; 'I' for Inactive)
REMARK    1  A    between atoms: C_1  and  C_2
REMARK    2  A    between atoms: C_4  and  C_23
REMARK    3  A    between atoms: C_4  and  C_27
REMARK    4  A    between atoms: C_5  and  C_21
REMARK    5  A    between atoms: C_6  and  N_20
REMARK    6  A    between atoms: N_7  and  C_8
REMARK    7  A    between atoms: C_9  and  C_18
REMARK                            x       y       z     vdW  Elec       q    Type
REMARK                         _______ _______ _______ _____ _____    ______ ____
ROOT
ATOM      1  C   UNL     1      -3.457   3.961  -0.220  0.00  0.00    +0.061 C 
ATOM      2  C   UNL     1      -3.623   2.498   0.098  0.00  0.00    +0.012 C 
ATOM      3  C   UNL     1      -4.758   2.070   0.601  0.00  0.00    +0.022 C 
ATOM      4  C   UNL     1      -4.986   0.628   0.946  0.00  0.00    +0.217 C 
ATOM      5  C   UNL     1      -3.957  -0.252   0.295  0.00  0.00    +0.092 C 
ATOM      6  C   UNL     1      -2.808   0.268  -0.219  0.00  0.00    +0.108 C 
ATOM      7  N   UNL     1      -2.571   1.622  -0.146  0.00  0.00    -0.254 N 
ENDROOT
BRANCH   7   8
ATOM      8  C   UNL     1      -1.285   2.113  -0.322  0.00  0.00    +0.095 A 
ATOM      9  C   UNL     1      -0.288   2.303   0.625  0.00  0.00    +0.084 A 
ATOM     10  C   UNL     1       0.992   2.831   0.174  0.00  0.00    -0.018 A 
ATOM     11  C   UNL     1       1.089   3.102  -1.146  0.00  0.00    -0.004 A 
ATOM     12  S   UNL     1      -0.491   2.662  -1.821  0.00  0.00    -0.076 S 
ATOM     13  C   UNL     1       2.263   3.662  -1.885  0.00  0.00    +0.043 C 
ATOM     14  C   UNL     1       3.523   2.873  -1.506  0.00  0.00    +0.005 C 
ATOM     15  C   UNL     1       4.160   3.538  -0.290  0.00  0.00    +0.001 C 
ATOM     16  C   UNL     1       3.077   4.139   0.604  0.00  0.00    +0.005 C 
ATOM     17  C   UNL     1       2.156   3.048   1.137  0.00  0.00    +0.037 C 
BRANCH   9  18
ATOM     18  C   UNL     1      -0.510   1.983   2.003  0.00  0.00    +0.102 C 
ATOM     19  N   UNL     1      -0.686   1.730   3.096  0.00  0.00    -0.191 NA
ENDBRANCH   9  18
ENDBRANCH   7   8
BRANCH   4  20
ATOM     20  C   UNL     1      -4.905   0.456   2.465  0.00  0.00    +0.412 C 
ATOM     21  F   UNL     1      -5.884   1.245   3.076  0.00  0.00    -0.169 F 
ATOM     22  F   UNL     1      -5.116  -0.888   2.794  0.00  0.00    -0.169 F 
ATOM     23  F   UNL     1      -3.640   0.852   2.912  0.00  0.00    -0.169 F 
ENDBRANCH   4  20
BRANCH   4  24
ATOM     24  C   UNL     1      -6.378   0.210   0.468  0.00  0.00    +0.412 C 
ATOM     25  F   UNL     1      -6.465   0.381  -0.918  0.00  0.00    -0.169 F 
ATOM     26  F   UNL     1      -6.597  -1.135   0.786  0.00  0.00    -0.169 F 
ATOM     27  F   UNL     1      -7.344   1.002   1.097  0.00  0.00    -0.169 F 
ENDBRANCH   4  24
BRANCH   6  28
ATOM     28  N   UNL     1      -1.881  -0.560  -0.807  0.00  0.00    -0.345 N 
ATOM     29  H   UNL     1      -1.018  -0.209  -1.075  0.00  0.00    +0.144 HD
ATOM     30  H   UNL     1      -2.091  -1.496  -0.954  0.00  0.00    +0.144 HD
ENDBRANCH   6  28
BRANCH   5  31
ATOM     31  C   UNL     1      -4.191  -1.662   0.207  0.00  0.00    +0.099 C 
ATOM     32  N   UNL     1      -4.377  -2.780   0.137  0.00  0.00    -0.191 NA
ENDBRANCH   5  31
TORSDOF 6
