REMARK  Name = ZINC64714335
REMARK  7 active torsions:
REMARK  status: ('A' for Active; 'I' for Inactive)
REMARK    1  A    between atoms: C_1  and  C_2
REMARK    2  A    between atoms: C_2  and  C_3
REMARK    3  A    between atoms: C_3  and  S_4
REMARK    4  A    between atoms: S_4  and  C_5
REMARK    5  A    between atoms: C_15  and  C_17
REMARK    6  A    between atoms: C_20  and  C_23
REMARK    7  A    between atoms: C_23  and  C_24
REMARK                            x       y       z     vdW  Elec       q    Type
REMARK                         _______ _______ _______ _____ _____    ______ ____
ROOT
ATOM      1  C   UNL     1       1.667  -2.760   2.745  0.00  0.00    +0.271 C 
ATOM      2  N   UNL     1       3.016  -2.167   2.715  0.00  0.00    -0.163 NA
ATOM      3  N   UNL     1       3.595  -1.743   3.719  0.00  0.00    -0.081 NA
ATOM      4  C   UNL     1       3.074  -1.807   4.971  0.00  0.00    +0.276 C 
ATOM      5  O   UNL     1       3.618  -1.284   5.915  0.00  0.00    -0.270 OA
ATOM      6  C   UNL     1       1.788  -2.561   5.117  0.00  0.00    +0.193 C 
ATOM      7  N   UNL     1       0.987  -2.212   3.899  0.00  0.00    -0.178 NA
ATOM      8  N   UNL     1      -0.246  -2.616   4.282  0.00  0.00    -0.274 N 
ATOM      9  C   UNL     1      -0.378  -2.156   5.614  0.00  0.00    +0.047 C 
ATOM     10  C   UNL     1       0.857  -2.098   6.204  0.00  0.00    +0.027 C 
ATOM     11  H   UNL     1      -0.896  -3.111   3.759  0.00  0.00    +0.167 HD
ENDROOT
BRANCH   9  12
ATOM     12  C   UNL     1      -1.656  -1.804   6.275  0.00  0.00    -0.003 A 
ATOM     13  C   UNL     1      -1.661  -1.354   7.595  0.00  0.00    +0.010 A 
ATOM     14  C   UNL     1      -2.855  -1.028   8.206  0.00  0.00    +0.004 A 
ATOM     15  C   UNL     1      -4.045  -1.146   7.511  0.00  0.00    -0.048 A 
ATOM     16  C   UNL     1      -4.047  -1.592   6.201  0.00  0.00    +0.004 A 
ATOM     17  C   UNL     1      -2.859  -1.915   5.578  0.00  0.00    +0.010 A 
BRANCH  15  18
ATOM     18  C   UNL     1      -5.345  -0.789   8.184  0.00  0.00    +0.032 C 
ATOM     19  C   UNL     1      -5.651   0.692   7.949  0.00  0.00    +0.009 C 
ENDBRANCH  15  18
ENDBRANCH   9  12
BRANCH   1  20
ATOM     20  S   UNL     1       0.767  -2.325   1.232  0.00  0.00    -0.116 S 
BRANCH  20  21
ATOM     21  C   UNL     1       0.742  -0.511   1.242  0.00  0.00    +0.072 C 
BRANCH  21  23
ATOM     22  C   UNL     1      -0.019   1.526   0.010  0.00  0.00    +0.004 C 
ATOM     23  C   UNL     1       0.002  -0.004   0.002  0.00  0.00    +0.007 C 
ENDBRANCH  21  23
ENDBRANCH  20  21
ENDBRANCH   1  20
TORSDOF 5
