REMARK  Name = ZINC37295027
REMARK  5 active torsions:
REMARK  status: ('A' for Active; 'I' for Inactive)
REMARK    1  A    between atoms: C_1  and  C_2
REMARK    2  A    between atoms: C_2  and  C_3
REMARK    3  A    between atoms: C_2  and  C_4
REMARK    4  A    between atoms: C_6  and  N_20
REMARK    5  A    between atoms: C_12  and  C_15
REMARK                            x       y       z     vdW  Elec       q    Type
REMARK                         _______ _______ _______ _____ _____    ______ ____
ROOT
ATOM      1  C   UNL     1       0.731  -0.503   1.223  0.00  0.00    +0.068 A 
ATOM      2  C   UNL     1       2.115  -0.659   1.341  0.00  0.00    +0.068 A 
ATOM      3  C   UNL     1       2.378  -1.131   2.591  0.00  0.00    +0.122 A 
ATOM      4  N   UNL     1       1.185  -1.265   3.235  0.00  0.00    -0.199 N 
ATOM      5  N   UNL     1       0.175  -0.859   2.353  0.00  0.00    -0.168 NA
ATOM      6  C   UNL     1       1.002  -1.722   4.543  0.00  0.00    +0.174 A 
ATOM      7  C   UNL     1      -0.283  -1.812   5.068  0.00  0.00    +0.086 A 
ATOM      8  C   UNL     1      -0.450  -2.266   6.365  0.00  0.00    +0.037 A 
ATOM      9  C   UNL     1       0.678  -2.615   7.094  0.00  0.00    +0.074 A 
ATOM     10  C   UNL     1       1.924  -2.501   6.509  0.00  0.00    +0.125 A 
ATOM     11  N   UNL     1       2.052  -2.070   5.269  0.00  0.00    -0.234 NA
ATOM     12 CL   UNL     1      -1.659  -1.360   4.110  0.00  0.00    -0.080 Cl
ENDROOT
BRANCH   9  13
ATOM     13  C   UNL     1       0.545  -3.115   8.510  0.00  0.00    +0.419 C 
ATOM     14  F   UNL     1       0.409  -4.507   8.503  0.00  0.00    -0.166 F 
ATOM     15  F   UNL     1       1.687  -2.762   9.238  0.00  0.00    -0.166 F 
ATOM     16  F   UNL     1      -0.583  -2.538   9.104  0.00  0.00    -0.166 F 
ENDBRANCH   9  13
BRANCH   1  18
ATOM     17  C   UNL     1      -0.019   1.526   0.010  0.00  0.00    +0.014 C 
ATOM     18  C   UNL     1       0.002  -0.004   0.002  0.00  0.00    +0.033 C 
ATOM     19  C   UNL     1       0.718  -0.497  -1.257  0.00  0.00    +0.014 C 
ENDBRANCH   1  18
BRANCH   3  20
ATOM     20  N   UNL     1       3.633  -1.422   3.115  0.00  0.00    -0.343 N 
ATOM     21  H   UNL     1       4.427  -1.292   2.572  0.00  0.00    +0.144 HD
ATOM     22  H   UNL     1       3.715  -1.756   4.022  0.00  0.00    +0.144 HD
ENDBRANCH   3  20
TORSDOF 3
