REMARK  Name = ZINC54982228
REMARK  4 active torsions:
REMARK  status: ('A' for Active; 'I' for Inactive)
REMARK    1  A    between atoms: C_1  and  N_2
REMARK    2  A    between atoms: C_7  and  N_11
REMARK    3  A    between atoms: N_11  and  C_12
REMARK    4  A    between atoms: N_21  and  C_23
REMARK                            x       y       z     vdW  Elec       q    Type
REMARK                         _______ _______ _______ _____ _____    ______ ____
ROOT
ATOM      1  C   UNL     1       0.068  -5.547  -2.219  0.00  0.00    +0.074 C 
ATOM      2  C   UNL     1       1.502  -5.854  -2.655  0.00  0.00    -0.007 C 
ATOM      3  C   UNL     1       1.479  -6.877  -3.784  0.00  0.00    +0.003 C 
ATOM      4  C   UNL     1       0.737  -8.150  -3.408  0.00  0.00    +0.001 C 
ATOM      5  C   UNL     1      -0.603  -7.891  -2.738  0.00  0.00    +0.003 C 
ATOM      6  C   UNL     1      -0.518  -6.837  -1.640  0.00  0.00    -0.007 C 
ATOM      7  C   UNL     1       0.320  -7.316  -0.465  0.00  0.00    -0.073 C 
ATOM      8  N   UNL     1       1.730  -7.494  -0.795  0.00  0.00    +0.382 N 
ATOM      9  C   UNL     1       2.321  -6.343  -1.470  0.00  0.00    -0.073 C 
ATOM     10  H   UNL     1       1.858  -8.327  -1.348  0.00  0.00    -0.081 HD
ENDROOT
BRANCH   8  11
ATOM     11  C   UNL     1       2.466  -7.713   0.457  0.00  0.00    -0.069 C 
ATOM     12  C   UNL     1       3.389  -8.931   0.530  0.00  0.00    -0.017 C 
ATOM     13  C   UNL     1       2.071  -8.923   1.306  0.00  0.00    -0.017 C 
ENDBRANCH   8  11
BRANCH   1  14
ATOM     14  N   UNL     1       0.058  -4.487  -1.212  0.00  0.00    -0.325 N 
ATOM     15  H   UNL     1       0.066  -4.714  -0.269  0.00  0.00    +0.148 HD
BRANCH  14  22
ATOM     16  C   UNL     1      -0.018   1.461   0.010  0.00  0.00    +0.174 C 
ATOM     17  N   UNL     1       0.002  -0.004   0.002  0.00  0.00    -0.249 N 
ATOM     18  C   UNL     1       0.008  -0.797  -1.107  0.00  0.00    +0.163 A 
ATOM     19  C   UNL     1       0.028  -2.128  -0.648  0.00  0.00    +0.078 A 
ATOM     20  C   UNL     1       0.034  -2.080   0.763  0.00  0.00    +0.148 A 
ATOM     21  N   UNL     1       0.025  -0.831   1.132  0.00  0.00    -0.177 NA
ATOM     22  C   UNL     1       0.038  -3.163  -1.603  0.00  0.00    +0.133 A 
ATOM     23  N   UNL     1       0.027  -2.834  -2.891  0.00  0.00    -0.220 NA
ATOM     24  C   UNL     1       0.009  -1.569  -3.273  0.00  0.00    +0.225 A 
ATOM     25  N   UNL     1      -0.001  -0.570  -2.419  0.00  0.00    -0.216 NA
ENDBRANCH  14  22
ENDBRANCH   1  14
TORSDOF 3
