REMARK  Name = ZINC59420520
REMARK  13 active torsions:
REMARK  status: ('A' for Active; 'I' for Inactive)
REMARK    1  A    between atoms: C_1  and  C_2
REMARK    2  A    between atoms: C_2  and  N_3
REMARK    3  A    between atoms: N_3  and  C_4
REMARK    4  A    between atoms: N_3  and  S_26
REMARK    5  A    between atoms: C_4  and  C_5
REMARK    6  A    between atoms: C_5  and  C_6
REMARK    7  A    between atoms: C_6  and  N_7
REMARK    8  A    between atoms: N_7  and  C_8
REMARK    9  A    between atoms: N_11  and  C_16
REMARK   10  A    between atoms: C_21  and  C_22
REMARK   11  A    between atoms: C_22  and  O_24
REMARK   12  A    between atoms: O_24  and  C_25
REMARK   13  A    between atoms: S_26  and  C_29
REMARK                            x       y       z     vdW  Elec       q    Type
REMARK                         _______ _______ _______ _____ _____    ______ ____
ROOT
ATOM      1  C   UNL     1      -2.801  -3.805  -5.013  0.00  0.00    +0.071 A 
ATOM      2  C   UNL     1      -3.701  -2.931  -5.659  0.00  0.00    +0.158 A 
ATOM      3  N   UNL     1      -4.250  -3.268  -6.793  0.00  0.00    -0.170 NA
ATOM      4  N   UNL     1      -3.962  -4.498  -7.395  0.00  0.00    -0.195 N 
ATOM      5  C   UNL     1      -3.109  -5.363  -6.812  0.00  0.00    +0.292 A 
ATOM      6  O   UNL     1      -2.863  -6.435  -7.343  0.00  0.00    -0.264 OA
ATOM      7  C   UNL     1      -2.501  -5.023  -5.595  0.00  0.00    +0.129 A 
ATOM      8 CL   UNL     1      -1.393  -6.117  -4.828  0.00  0.00    -0.076 Cl
ENDROOT
BRANCH   4   9
ATOM      9  C   UNL     1      -4.564  -4.831  -8.607  0.00  0.00    +0.083 A 
ATOM     10  C   UNL     1      -3.784  -5.194  -9.697  0.00  0.00    +0.029 A 
ATOM     11  C   UNL     1      -4.383  -5.524 -10.897  0.00  0.00    +0.002 A 
ATOM     12  C   UNL     1      -5.762  -5.496 -11.024  0.00  0.00    +0.001 A 
ATOM     13  C   UNL     1      -6.552  -5.139  -9.953  0.00  0.00    +0.017 A 
ATOM     14  C   UNL     1      -5.962  -4.808  -8.731  0.00  0.00    +0.084 A 
BRANCH  14  15
ATOM     15  C   UNL     1      -6.802  -4.430  -7.579  0.00  0.00    +0.341 C 
ATOM     16  O   UNL     1      -6.284  -4.138  -6.519  0.00  0.00    -0.245 OA
BRANCH  15  17
ATOM     17  O   UNL     1      -8.144  -4.408  -7.702  0.00  0.00    -0.464 OA
ATOM     18  C   UNL     1      -8.895  -4.033  -6.546  0.00  0.00    +0.280 C 
ENDBRANCH  15  17
ENDBRANCH  14  15
ENDBRANCH   4   9
BRANCH   1  19
ATOM     19  N   UNL     1      -2.220  -3.444  -3.808  0.00  0.00    -0.341 N 
ATOM     20  H   UNL     1      -1.599  -4.047  -3.370  0.00  0.00    +0.146 HD
BRANCH  19  21
ATOM     21  C   UNL     1      -2.543  -2.152  -3.197  0.00  0.00    +0.103 C 
BRANCH  21  22
ATOM     22  C   UNL     1      -1.773  -2.003  -1.884  0.00  0.00    +0.036 C 
BRANCH  22  23
ATOM     23  C   UNL     1      -2.110  -0.654  -1.245  0.00  0.00    +0.110 C 
BRANCH  23  24
ATOM     24  N   UNL     1      -1.372  -0.511   0.012  0.00  0.00    -0.182 NA
BRANCH  24  25
ATOM     25  S   UNL     1      -2.092  -0.923   1.446  0.00  0.00    +0.029 S 
ATOM     26  O   UNL     1      -3.070  -1.892   1.095  0.00  0.00    -0.158 OA
ATOM     27  O   UNL     1      -1.015  -1.260   2.309  0.00  0.00    -0.158 OA
ATOM     28  C   UNL     1      -2.898   0.599   2.017  0.00  0.00    +0.215 C 
ENDBRANCH  24  25
BRANCH  24  30
ATOM     29  C   UNL     1      -0.019   1.526   0.010  0.00  0.00    +0.022 C 
ATOM     30  C   UNL     1       0.002  -0.004   0.002  0.00  0.00    +0.105 C 
ENDBRANCH  24  30
ENDBRANCH  23  24
ENDBRANCH  22  23
ENDBRANCH  21  22
ENDBRANCH  19  21
ENDBRANCH   1  19
TORSDOF 10
