REMARK  Name = ZINC35383244
REMARK  8 active torsions:
REMARK  status: ('A' for Active; 'I' for Inactive)
REMARK    1  A    between atoms: C_1  and  C_2
REMARK    2  A    between atoms: C_2  and  C_3
REMARK    3  A    between atoms: C_3  and  N_4
REMARK    4  A    between atoms: N_4  and  C_5
REMARK    5  A    between atoms: N_4  and  C_18
REMARK    6  A    between atoms: C_10  and  N_11
REMARK    7  A    between atoms: C_18  and  C_19
REMARK    8  A    between atoms: C_18  and  C_20
REMARK                            x       y       z     vdW  Elec       q    Type
REMARK                         _______ _______ _______ _____ _____    ______ ____
ROOT
ATOM      1  C   UNL     1      -1.393  -2.702   1.208  0.00  0.00    +0.053 A 
ATOM      2  C   UNL     1      -2.583  -3.069   1.808  0.00  0.00    +0.053 A 
ATOM      3  C   UNL     1      -2.563  -3.773   3.011  0.00  0.00    +0.080 A 
ATOM      4  C   UNL     1      -1.323  -4.104   3.605  0.00  0.00    +0.067 A 
ATOM      5  C   UNL     1      -0.128  -3.728   2.990  0.00  0.00    +0.040 A 
ATOM      6  C   UNL     1      -0.164  -3.036   1.796  0.00  0.00    +0.047 A 
ATOM      7  C   UNL     1      -1.341  -4.845   4.872  0.00  0.00    +0.259 A 
ATOM      8  O   UNL     1      -0.308  -5.160   5.435  0.00  0.00    -0.267 OA
ATOM      9  N   UNL     1      -2.550  -5.164   5.391  0.00  0.00    -0.313 N 
ATOM     10  H   UNL     1      -2.599  -5.654   6.227  0.00  0.00    +0.170 HD
ATOM     11  C   UNL     1      -3.695  -4.805   4.752  0.00  0.00    +0.199 A 
ATOM     12  N   UNL     1      -3.711  -4.151   3.631  0.00  0.00    -0.237 NA
ENDROOT
BRANCH   6  13
ATOM     13  N   UNL     1       1.032  -2.661   1.172  0.00  0.00    -0.357 N 
ATOM     14  H   UNL     1       1.009  -2.172   0.335  0.00  0.00    +0.142 HD
ATOM     15  H   UNL     1       1.883  -2.891   1.577  0.00  0.00    +0.142 HD
ENDBRANCH   6  13
BRANCH   1  16
ATOM     16  N   UNL     1      -1.413  -1.998   0.005  0.00  0.00    -0.326 N 
BRANCH  16  17
ATOM     17  C   UNL     1      -1.416  -2.724  -1.268  0.00  0.00    +0.067 C 
ATOM     18  C   UNL     1      -0.155  -3.586  -1.366  0.00  0.00    +0.027 C 
ATOM     19  C   UNL     1      -2.654  -3.620  -1.342  0.00  0.00    +0.027 C 
ENDBRANCH  16  17
BRANCH  16  20
ATOM     20  C   UNL     1      -1.433  -0.534   0.013  0.00  0.00    +0.105 C 
BRANCH  20  22
ATOM     21  C   UNL     1      -0.019   1.526   0.010  0.00  0.00    +0.005 C 
ATOM     22  C   UNL     1       0.002  -0.004   0.002  0.00  0.00    +0.015 C 
ENDBRANCH  20  22
ENDBRANCH  16  20
ENDBRANCH   1  16
TORSDOF 5
