REMARK  Name = ZINC21178601
REMARK  12 active torsions:
REMARK  status: ('A' for Active; 'I' for Inactive)
REMARK    1  A    between atoms: C_1  and  O_2
REMARK    2  A    between atoms: O_2  and  C_3
REMARK    3  A    between atoms: C_6  and  C_11
REMARK    4  A    between atoms: C_8  and  O_9
REMARK    5  A    between atoms: O_9  and  C_10
REMARK    6  A    between atoms: C_14  and  C_31
REMARK    7  A    between atoms: C_17  and  C_19
REMARK    8  A    between atoms: C_19  and  O_20
REMARK    9  A    between atoms: O_20  and  C_21
REMARK   10  A    between atoms: C_21  and  C_23
REMARK   11  A    between atoms: C_26  and  O_30
REMARK   12  A    between atoms: C_28  and  O_29
REMARK                            x       y       z     vdW  Elec       q    Type
REMARK                         _______ _______ _______ _____ _____    ______ ____
ROOT
ATOM      1  C   UNL     1       1.532   0.033   6.141  0.00  0.00    +0.137 C 
ATOM      2  C   UNL     1       2.796   0.861   6.446  0.00  0.00    +0.087 C 
ATOM      3  C   UNL     1       3.897  -0.171   6.528  0.00  0.00    +0.075 C 
ATOM      4  N   UNL     1       3.403  -1.346   6.320  0.00  0.00    -0.180 NA
ATOM      5  N   UNL     1       2.030  -1.351   6.083  0.00  0.00    -0.182 N 
ATOM      6  C   UNL     1       1.281  -2.444   5.840  0.00  0.00    +0.273 C 
ATOM      7  O   UNL     1       0.088  -2.332   5.647  0.00  0.00    -0.270 OA
ENDROOT
BRANCH   1  11
ATOM      8  C   UNL     1      -0.148   1.182   2.380  0.00  0.00    +0.162 A 
ATOM      9  C   UNL     1       0.993   0.398   2.422  0.00  0.00    +0.050 A 
ATOM     10  C   UNL     1       1.534   0.028   3.639  0.00  0.00    +0.009 A 
ATOM     11  C   UNL     1       0.938   0.438   4.817  0.00  0.00    -0.021 A 
ATOM     12  C   UNL     1      -0.201   1.221   4.783  0.00  0.00    +0.055 A 
ATOM     13  C   UNL     1      -0.745   1.600   3.566  0.00  0.00    +0.162 A 
BRANCH   8  15
ATOM     14  C   UNL     1      -0.013   1.086   0.008  0.00  0.00    +0.277 C 
ATOM     15  O   UNL     1      -0.682   1.547   1.184  0.00  0.00    -0.491 OA
ENDBRANCH   8  15
BRANCH  13  16
ATOM     16  O   UNL     1      -1.862   2.374   3.531  0.00  0.00    -0.491 OA
ATOM     17  C   UNL     1      -2.420   2.766   4.787  0.00  0.00    +0.277 C 
ENDBRANCH  13  16
ENDBRANCH   1  11
BRANCH   3  18
ATOM     18  C   UNL     1       5.309   0.117   6.801  0.00  0.00    +0.035 A 
ATOM     19  C   UNL     1       6.377  -0.759   6.894  0.00  0.00    +0.017 A 
ATOM     20  C   UNL     1       7.623  -0.244   7.163  0.00  0.00    +0.008 A 
ATOM     21  C   UNL     1       7.768   1.097   7.327  0.00  0.00    +0.046 A 
ATOM     22  S   UNL     1       6.100   1.691   7.093  0.00  0.00    -0.095 S 
ENDBRANCH   3  18
BRANCH   6  23
ATOM     23  C   UNL     1       1.924  -3.807   5.809  0.00  0.00    +0.330 C 
BRANCH  23  24
ATOM     24  O   UNL     1       0.914  -4.812   5.531  0.00  0.00    -0.452 OA
BRANCH  24  25
ATOM     25  C   UNL     1       1.327  -6.094   5.468  0.00  0.00    +0.343 C 
ATOM     26  O   UNL     1       2.499  -6.363   5.642  0.00  0.00    -0.245 OA
BRANCH  25  27
ATOM     27  C   UNL     1       0.359  -7.166   5.190  0.00  0.00    +0.100 A 
ATOM     28  C   UNL     1      -0.992  -6.860   4.996  0.00  0.00    +0.022 A 
ATOM     29  C   UNL     1      -1.889  -7.856   4.733  0.00  0.00    +0.046 A 
ATOM     30  C   UNL     1      -1.469  -9.181   4.667  0.00  0.00    +0.120 A 
ATOM     31  C   UNL     1      -0.134  -9.503   4.862  0.00  0.00    +0.091 A 
ATOM     32  C   UNL     1       0.786  -8.502   5.125  0.00  0.00    +0.134 A 
BRANCH  32  33
ATOM     33  O   UNL     1       2.093  -8.810   5.316  0.00  0.00    -0.506 OA
ATOM     34  H   UNL     1       2.424  -9.858   5.264  0.00  0.00    +0.292 HD
ENDBRANCH  32  33
BRANCH  30  35
ATOM     35  O   UNL     1      -2.370 -10.163   4.411  0.00  0.00    -0.507 OA
ATOM     36  H   UNL     1      -2.042 -11.211   4.358  0.00  0.00    +0.292 HD
ENDBRANCH  30  35
ENDBRANCH  25  27
ENDBRANCH  24  25
ENDBRANCH  23  24
ENDBRANCH   6  23
TORSDOF 10
