REMARK  Name = ZINC63775083
REMARK  7 active torsions:
REMARK  status: ('A' for Active; 'I' for Inactive)
REMARK    1  A    between atoms: C_1  and  O_2
REMARK    2  A    between atoms: O_2  and  C_3
REMARK    3  A    between atoms: C_8  and  O_9
REMARK    4  A    between atoms: O_9  and  C_10
REMARK    5  A    between atoms: C_12  and  C_16
REMARK    6  A    between atoms: C_18  and  O_24
REMARK    7  A    between atoms: C_21  and  O_22
REMARK                            x       y       z     vdW  Elec       q    Type
REMARK                         _______ _______ _______ _____ _____    ______ ____
ROOT
ATOM      1  C   UNL     1       0.607  -0.608  -1.057  0.00  0.00    +0.162 A 
ATOM      2  C   UNL     1       1.169   0.161  -2.057  0.00  0.00    +0.064 A 
ATOM      3  C   UNL     1       1.787  -0.464  -3.140  0.00  0.00    +0.061 A 
ATOM      4  C   UNL     1       1.829  -1.869  -3.210  0.00  0.00    +0.045 A 
ATOM      5  C   UNL     1       1.265  -2.629  -2.203  0.00  0.00    +0.073 A 
ATOM      6  C   UNL     1       0.659  -2.001  -1.125  0.00  0.00    +0.163 A 
ATOM      7  N   UNL     1       2.444  -2.451  -4.315  0.00  0.00    -0.321 N 
ATOM      8  C   UNL     1       2.423  -1.726  -5.591  0.00  0.00    +0.193 C 
ATOM      9  N   UNL     1       2.739  -0.314  -5.377  0.00  0.00    -0.289 N 
ATOM     10  C   UNL     1       2.407   0.310  -4.228  0.00  0.00    +0.248 C 
ATOM     11  O   UNL     1       2.618   1.500  -4.092  0.00  0.00    -0.270 OA
ATOM     12  H   UNL     1       2.877  -3.317  -4.243  0.00  0.00    +0.148 HD
ATOM     13  H   UNL     1       3.196   0.182  -6.073  0.00  0.00    +0.151 HD
ENDROOT
BRANCH   8  14
ATOM     14  C   UNL     1       1.053  -1.843  -6.209  0.00  0.00    +0.036 A 
ATOM     15  C   UNL     1       0.238  -2.911  -5.886  0.00  0.00    +0.056 A 
ATOM     16  C   UNL     1      -1.022  -3.018  -6.454  0.00  0.00    +0.119 A 
ATOM     17  C   UNL     1      -1.465  -2.054  -7.347  0.00  0.00    +0.064 A 
ATOM     18  C   UNL     1      -0.650  -0.985  -7.670  0.00  0.00    +0.063 A 
ATOM     19  C   UNL     1       0.609  -0.875  -7.097  0.00  0.00    +0.137 A 
ATOM     20 BR   UNL     1      -1.254   0.330  -8.888  0.00  0.00    -0.046 Br
BRANCH  19  21
ATOM     21  O   UNL     1       1.409   0.179  -7.411  0.00  0.00    -0.505 OA
ATOM     22  H   UNL     1       1.982   0.024  -8.174  0.00  0.00    +0.292 HD
ENDBRANCH  19  21
BRANCH  16  23
ATOM     23  O   UNL     1      -1.824  -4.070  -6.136  0.00  0.00    -0.507 OA
ATOM     24  H   UNL     1      -2.397  -3.911  -5.374  0.00  0.00    +0.292 HD
ENDBRANCH  16  23
ENDBRANCH   8  14
BRANCH   1  26
ATOM     25  C   UNL     1      -0.017   1.425   0.010  0.00  0.00    +0.277 C 
ATOM     26  O   UNL     1       0.002  -0.004   0.002  0.00  0.00    -0.491 OA
ENDBRANCH   1  26
BRANCH   6  27
ATOM     27  O   UNL     1       0.109  -2.746  -0.132  0.00  0.00    -0.491 OA
ATOM     28  C   UNL     1       0.197  -4.166  -0.261  0.00  0.00    +0.277 C 
ENDBRANCH   6  27
TORSDOF 5
