REMARK  Name = ZINC35988234
REMARK  7 active torsions:
REMARK  status: ('A' for Active; 'I' for Inactive)
REMARK    1  A    between atoms: C_1  and  C_2
REMARK    2  A    between atoms: C_2  and  C_3
REMARK    3  A    between atoms: C_3  and  N_4
REMARK    4  A    between atoms: C_5  and  C_7
REMARK    5  A    between atoms: C_13  and  C_15
REMARK    6  A    between atoms: C_25  and  C_27
REMARK    7  A    between atoms: C_32  and  C_33
REMARK                            x       y       z     vdW  Elec       q    Type
REMARK                         _______ _______ _______ _____ _____    ______ ____
ROOT
ATOM      1  C   UNL     1      -2.976  -3.644  -0.262  0.00  0.00    +0.190 C 
ATOM      2  C   UNL     1      -2.110  -4.014   0.968  0.00  0.00    +0.194 C 
ATOM      3  O   UNL     1      -2.524  -5.373   1.241  0.00  0.00    -0.353 OA
ATOM      4  C   UNL     1      -3.935  -5.406   0.978  0.00  0.00    +0.142 C 
ATOM      5  N   UNL     1      -4.254  -4.338   0.013  0.00  0.00    -0.253 N 
ATOM      6  C   UNL     1      -5.462  -4.050  -0.511  0.00  0.00    +0.285 C 
ATOM      7  O   UNL     1      -6.444  -4.672  -0.154  0.00  0.00    -0.267 OA
ATOM      8  C   UNL     1      -4.314  -6.763   0.382  0.00  0.00    +0.074 C 
ATOM      9  C   UNL     1      -5.814  -6.781   0.073  0.00  0.00    +0.112 C 
ATOM     10  N   UNL     1      -6.552  -6.424   1.293  0.00  0.00    -0.297 N 
ATOM     11  C   UNL     1      -6.208  -5.176   1.987  0.00  0.00    +0.112 C 
ATOM     12  C   UNL     1      -4.704  -5.173   2.279  0.00  0.00    +0.074 C 
ATOM     13  C   UNL     1      -7.527  -7.227   1.765  0.00  0.00    +0.247 C 
ATOM     14  O   UNL     1      -7.849  -8.221   1.145  0.00  0.00    -0.270 OA
ENDROOT
BRANCH  13  15
ATOM     15  C   UNL     1      -8.204  -6.898   3.037  0.00  0.00    +0.040 A 
ATOM     16  C   UNL     1      -8.834  -5.662   3.197  0.00  0.00    +0.013 A 
ATOM     17  C   UNL     1      -9.464  -5.362   4.386  0.00  0.00    +0.001 A 
ATOM     18  C   UNL     1      -9.472  -6.281   5.420  0.00  0.00    +0.000 A 
ATOM     19  C   UNL     1      -8.849  -7.507   5.269  0.00  0.00    +0.004 A 
ATOM     20  C   UNL     1      -8.220  -7.823   4.082  0.00  0.00    -0.038 A 
ATOM     21  C   UNL     1      -7.547  -9.161   3.917  0.00  0.00    +0.044 C 
ENDBRANCH  13  15
BRANCH   6  22
ATOM     22  C   UNL     1      -5.591  -2.985  -1.512  0.00  0.00    +0.189 A 
ATOM     23  C   UNL     1      -6.762  -2.507  -2.028  0.00  0.00    +0.054 A 
ATOM     24  C   UNL     1      -6.418  -1.501  -2.944  0.00  0.00    +0.042 A 
ATOM     25  C   UNL     1      -5.070  -1.411  -2.948  0.00  0.00    +0.196 A 
ATOM     26  O   UNL     1      -4.575  -2.303  -2.080  0.00  0.00    -0.458 OA
ENDBRANCH   6  22
BRANCH   1  28
ATOM     27  N   UNL     1      -2.216  -1.364  -0.847  0.00  0.00    -0.314 N 
ATOM     28  C   UNL     1      -3.184  -2.154  -0.340  0.00  0.00    +0.236 C 
ATOM     29  O   UNL     1      -4.221  -1.665   0.054  0.00  0.00    -0.274 OA
ATOM     30  H   UNL     1      -1.387  -1.755  -1.162  0.00  0.00    +0.149 HD
BRANCH  27  31
ATOM     31  C   UNL     1      -2.418   0.085  -0.923  0.00  0.00    +0.104 C 
BRANCH  31  33
ATOM     32  C   UNL     1      -1.389   2.255  -1.612  0.00  0.00    +0.005 C 
ATOM     33  C   UNL     1      -1.178   0.742  -1.533  0.00  0.00    +0.015 C 
ENDBRANCH  31  33
ENDBRANCH  27  31
ENDBRANCH   1  28
TORSDOF 5
