REMARK  Name = ZINC62876035
REMARK  5 active torsions:
REMARK  status: ('A' for Active; 'I' for Inactive)
REMARK    1  A    between atoms: C_1  and  C_2
REMARK    2  A    between atoms: C_2  and  C_20
REMARK    3  A    between atoms: N_10  and  C_11
REMARK    4  A    between atoms: C_11  and  C_12
REMARK    5  A    between atoms: N_17  and  C_19
REMARK                            x       y       z     vdW  Elec       q    Type
REMARK                         _______ _______ _______ _____ _____    ______ ____
ROOT
ATOM      1  C   UNL     1      -0.026   1.522   0.018  0.00  0.00    +0.024 C 
ATOM      2  C   UNL     1      -0.001  -0.008   0.006  0.00  0.00    +0.085 C 
ATOM      3  C   UNL     1       0.718  -0.497  -1.253  0.00  0.00    +0.021 C 
ATOM      4  C   UNL     1       2.141   0.064  -1.281  0.00  0.00    +0.020 C 
ATOM      5  C   UNL     1       2.910  -0.443  -0.057  0.00  0.00    +0.109 C 
ATOM      6  N   UNL     1       2.151  -0.102   1.153  0.00  0.00    -0.285 N 
ATOM      7  C   UNL     1       0.744  -0.516   1.245  0.00  0.00    +0.127 C 
ATOM      8  C   UNL     1       2.734   0.576   2.161  0.00  0.00    +0.302 C 
ATOM      9  O   UNL     1       2.072   0.935   3.116  0.00  0.00    -0.253 OA
ATOM     10  N   UNL     1       4.051   0.857   2.111  0.00  0.00    -0.299 N 
ATOM     11  H   UNL     1       4.565   0.635   1.319  0.00  0.00    +0.150 HD
ENDROOT
BRANCH   2  12
ATOM     12  C   UNL     1      -1.413  -0.534   0.017  0.00  0.00    +0.363 C 
ATOM     13  O   UNL     1      -2.353   0.242   0.033  0.00  0.00    -0.246 OA
ATOM     14  O   UNL     1      -1.615  -1.736   0.011  0.00  0.00    -0.246 OA
ENDBRANCH   2  12
BRANCH  10  15
ATOM     15  C   UNL     1       4.707   1.498   3.254  0.00  0.00    +0.107 C 
BRANCH  15  16
ATOM     16  C   UNL     1       6.191   1.704   2.940  0.00  0.00    -0.011 C 
ATOM     17  C   UNL     1       6.336   2.697   1.784  0.00  0.00    +0.001 C 
ATOM     18  C   UNL     1       7.824   2.956   1.530  0.00  0.00    -0.018 C 
ATOM     19  C   UNL     1       8.474   3.467   2.817  0.00  0.00    -0.079 C 
ATOM     20  N   UNL     1       8.324   2.462   3.877  0.00  0.00    +0.378 N 
ATOM     21  C   UNL     1       6.902   2.260   4.176  0.00  0.00    -0.074 C 
ATOM     22  C   UNL     1       9.017   2.923   5.088  0.00  0.00    -0.096 C 
ATOM     23  H   UNL     1       8.729   1.590   3.571  0.00  0.00    -0.082 HD
ENDBRANCH  15  16
ENDBRANCH  10  15
TORSDOF 3
