REMARK  Name = ZINC09477756
REMARK  2 active torsions:
REMARK  status: ('A' for Active; 'I' for Inactive)
REMARK    1  A    between atoms: C_6  and  C_7
REMARK    2  A    between atoms: N_13  and  C_14
REMARK                            x       y       z     vdW  Elec       q    Type
REMARK                         _______ _______ _______ _____ _____    ______ ____
ROOT
ATOM      1  C   UNL     1       8.667   0.700  -1.319  0.00  0.00    +0.013 A 
ATOM      2  C   UNL     1       9.983   0.426  -1.006  0.00  0.00    +0.048 A 
ATOM      3  C   UNL     1      10.296  -0.212   0.183  0.00  0.00    +0.142 A 
ATOM      4  C   UNL     1       9.281  -0.580   1.070  0.00  0.00    +0.076 A 
ATOM      5  C   UNL     1       7.962  -0.304   0.767  0.00  0.00    +0.036 A 
ATOM      6  C   UNL     1       7.646   0.335  -0.436  0.00  0.00    +0.001 A 
ATOM      7  N   UNL     1       9.619  -1.226   2.268  0.00  0.00    -0.280 N 
ATOM      8  C   UNL     1      10.902  -1.196   2.689  0.00  0.00    +0.255 C 
ATOM      9  O   UNL     1      11.223  -1.772   3.707  0.00  0.00    -0.272 OA
ATOM     10  C   UNL     1      11.934  -0.442   1.888  0.00  0.00    +0.325 C 
ATOM     11  O   UNL     1      11.590  -0.484   0.501  0.00  0.00    -0.481 OA
ATOM     12  H   UNL     1       8.942  -1.687   2.787  0.00  0.00    +0.155 HD
ENDROOT
BRANCH   6  13
ATOM     13  C   UNL     1       6.243   0.629  -0.770  0.00  0.00    +0.081 C 
ATOM     14  N   UNL     1       5.317   0.283   0.060  0.00  0.00    -0.151 NA
ATOM     15  N   UNL     1       4.064   0.440  -0.078  0.00  0.00    -0.127 NA
ATOM     16  C   UNL     1       3.448   0.622  -1.222  0.00  0.00    +0.176 C 
ATOM     17  S   UNL     1       4.379   0.635  -2.723  0.00  0.00    -0.083 S 
ATOM     18  C   UNL     1       5.930   1.326  -2.072  0.00  0.00    +0.135 C 
ATOM     19  N   UNL     1       2.086   0.796  -1.253  0.00  0.00    -0.320 N 
ATOM     20  H   UNL     1       1.633   0.931  -2.100  0.00  0.00    +0.148 HD
BRANCH  19  21
ATOM     21  C   UNL     1       1.317   0.779  -0.006  0.00  0.00    +0.072 C 
ATOM     22  C   UNL     1      -0.019   1.526   0.010  0.00  0.00    +0.024 C 
ATOM     23  C   UNL     1       0.002  -0.004   0.002  0.00  0.00    +0.024 C 
ENDBRANCH  19  21
ENDBRANCH   6  13
TORSDOF 2
