REMARK  Name = ZINC05677156
REMARK  2 active torsions:
REMARK  status: ('A' for Active; 'I' for Inactive)
REMARK    1  A    between atoms: C_5  and  C_6
REMARK    2  A    between atoms: N_8  and  N_9
REMARK                            x       y       z     vdW  Elec       q    Type
REMARK                         _______ _______ _______ _____ _____    ______ ____
ROOT
ATOM      1  C   UNL     1       1.435   4.425   0.011  0.00  0.00    +0.299 C 
ATOM      2  O   UNL     1       2.651   4.351   0.000  0.00  0.00    -0.265 OA
ATOM      3  N   UNL     1       0.835   5.632   0.023  0.00  0.00    -0.200 N 
ATOM      4  H   UNL     1      -0.133   5.692   0.032  0.00  0.00    +0.178 HD
ENDROOT
BRANCH   3   5
ATOM      5  N   UNL     1       1.609   6.800   0.022  0.00  0.00    -0.189 NA
ATOM      6  C   UNL     1       1.038   7.946   0.033  0.00  0.00    +0.037 C 
ATOM      7  C   UNL     1      -0.469   8.050   0.040  0.00  0.00    +0.052 C 
ATOM      8  C   UNL     1      -0.991   7.561   1.388  0.00  0.00    +0.006 C 
ATOM      9  C   UNL     1      -0.663   8.607   2.470  0.00  0.00    +0.000 C 
ATOM     10  C   UNL     1       0.805   8.483   2.862  0.00  0.00    +0.000 C 
ATOM     11  C   UNL     1       1.594   9.742   2.458  0.00  0.00    +0.000 C 
ATOM     12  C   UNL     1       1.223  10.170   1.040  0.00  0.00    +0.006 C 
ATOM     13  C   UNL     1       1.855   9.198   0.032  0.00  0.00    +0.052 C 
ENDBRANCH   3   5
BRANCH   1  18
ATOM     14  C   UNL     1       1.104   1.924   0.002  0.00  0.00    +0.056 A 
ATOM     15  C   UNL     1      -0.013   1.076   0.008  0.00  0.00    +0.058 A 
ATOM     16  C   UNL     1      -1.112   1.865   0.017  0.00  0.00    +0.171 A 
ATOM     17  O   UNL     1      -0.722   3.146   0.025  0.00  0.00    -0.444 OA
ATOM     18  C   UNL     1       0.626   3.204   0.013  0.00  0.00    +0.192 A 
ATOM     19 BR   UNL     1      -2.903   1.258   0.021  0.00  0.00    -0.008 Br
ENDBRANCH   1  18
TORSDOF 2
