REMARK  Name = ZINC26421809
REMARK  4 active torsions:
REMARK  status: ('A' for Active; 'I' for Inactive)
REMARK    1  A    between atoms: C_1  and  C_2
REMARK    2  A    between atoms: C_2  and  C_3
REMARK    3  A    between atoms: C_2  and  C_4
REMARK    4  A    between atoms: N_12  and  N_13
REMARK                            x       y       z     vdW  Elec       q    Type
REMARK                         _______ _______ _______ _____ _____    ______ ____
ROOT
ATOM      1  C   UNL     1      -0.749   3.086   1.275  0.00  0.00    +0.053 A 
ATOM      2  C   UNL     1      -0.163   3.770   2.300  0.00  0.00    +0.093 A 
ATOM      3  C   UNL     1      -0.189   5.176   2.283  0.00  0.00    +0.253 A 
ATOM      4  O   UNL     1       0.330   5.819   3.180  0.00  0.00    -0.268 OA
ATOM      5  N   UNL     1      -0.805   5.800   1.256  0.00  0.00    -0.294 N 
ATOM      6  H   UNL     1      -0.843   6.899   1.224  0.00  0.00    +0.172 HD
ATOM      7  C   UNL     1      -1.379   5.066   0.265  0.00  0.00    +0.210 A 
ATOM      8  N   UNL     1      -1.344   3.748   0.285  0.00  0.00    -0.220 NA
ATOM      9  N   UNL     1      -2.002   5.706  -0.772  0.00  0.00    -0.253 N 
ATOM     10  H   UNL     1      -2.036   6.805  -0.799  0.00  0.00    +0.169 HD
ENDROOT
BRANCH   1  12
ATOM     11  C   UNL     1      -0.013   1.086   0.008  0.00  0.00    +0.014 C 
ATOM     12  C   UNL     1      -0.729   1.579   1.267  0.00  0.00    +0.032 C 
ATOM     13  C   UNL     1      -2.164   1.050   1.278  0.00  0.00    +0.014 C 
ENDBRANCH   1  12
BRANCH   9  14
ATOM     14  N   UNL     1      -2.581   4.980  -1.774  0.00  0.00    -0.254 NA
ATOM     15  H   UNL     1      -3.027   5.664  -2.511  0.00  0.00    +0.140 HD
ATOM     16  H   UNL     1      -1.817   4.359  -2.266  0.00  0.00    +0.140 HD
ENDBRANCH   9  14
TORSDOF 2
