REMARK  Name = ZINC37950934
REMARK  7 active torsions:
REMARK  status: ('A' for Active; 'I' for Inactive)
REMARK    1  A    between atoms: C_1  and  C_2
REMARK    2  A    between atoms: C_5  and  C_9
REMARK    3  A    between atoms: C_6  and  C_8
REMARK    4  A    between atoms: C_9  and  C_10
REMARK    5  A    between atoms: C_9  and  C_11
REMARK    6  A    between atoms: C_9  and  N_14
REMARK    7  A    between atoms: N_14  and  C_15
REMARK                            x       y       z     vdW  Elec       q    Type
REMARK                         _______ _______ _______ _____ _____    ______ ____
ROOT
ATOM      1  C   UNL     1      -0.309  -4.183  -0.026  0.00  0.00    +0.131 C 
ATOM      2  C   UNL     1      -1.656  -4.633   0.542  0.00  0.00    +0.047 C 
ENDROOT
BRANCH   1   7
ATOM      3  C   UNL     1       0.038   1.582   0.171  0.00  0.00    +0.044 C 
ATOM      4  C   UNL     1      -0.053   0.078   0.120  0.00  0.00    -0.050 A 
ATOM      5  C   UNL     1       0.875  -0.694   0.795  0.00  0.00    +0.004 A 
ATOM      6  C   UNL     1       0.791  -2.072   0.748  0.00  0.00    +0.007 A 
ATOM      7  C   UNL     1      -0.219  -2.680   0.026  0.00  0.00    -0.013 A 
ATOM      8  C   UNL     1      -1.147  -1.908  -0.648  0.00  0.00    -0.045 A 
ATOM      9  C   UNL     1      -1.066  -0.529  -0.598  0.00  0.00    +0.007 A 
ATOM     10  C   UNL     1      -2.248  -2.570  -1.436  0.00  0.00    +0.044 C 
ENDBRANCH   1   7
BRANCH   1  11
ATOM     11  C   UNL     1       0.806  -4.782   0.791  0.00  0.00    +0.238 C 
ATOM     12  O   UNL     1       0.610  -5.099   1.945  0.00  0.00    -0.273 OA
ATOM     13  N   UNL     1       2.023  -4.965   0.240  0.00  0.00    -0.327 N 
ATOM     14  H   UNL     1       2.180  -4.711  -0.683  0.00  0.00    +0.145 HD
ATOM     15  H   UNL     1       2.741  -5.350   0.766  0.00  0.00    +0.145 HD
ENDBRANCH   1  11
BRANCH   1  16
ATOM     16  N   UNL     1      -0.191  -4.631  -1.416  0.00  0.00    -0.326 N 
ATOM     17  H   UNL     1      -0.106  -3.980  -2.130  0.00  0.00    +0.147 HD
BRANCH  16  18
ATOM     18  C   UNL     1      -0.202  -5.997  -1.713  0.00  0.00    +0.042 A 
ATOM     19  C   UNL     1      -0.195  -6.932  -0.687  0.00  0.00    +0.024 A 
ATOM     20  C   UNL     1      -0.206  -8.281  -0.984  0.00  0.00    +0.002 A 
ATOM     21  C   UNL     1      -0.223  -8.701  -2.301  0.00  0.00    +0.001 A 
ATOM     22  C   UNL     1      -0.230  -7.773  -3.326  0.00  0.00    +0.017 A 
ATOM     23  C   UNL     1      -0.224  -6.421  -3.036  0.00  0.00    +0.039 A 
ATOM     24 BR   UNL     1      -0.240  -5.152  -4.438  0.00  0.00    -0.048 Br
ENDBRANCH  16  18
ENDBRANCH   1  16
TORSDOF 4
