REMARK  Name = ZINC42184201
REMARK  13 active torsions:
REMARK  status: ('A' for Active; 'I' for Inactive)
REMARK    1  A    between atoms: C_1  and  C_2
REMARK    2  A    between atoms: C_5  and  C_28
REMARK    3  A    between atoms: C_6  and  N_8
REMARK    4  A    between atoms: C_9  and  C_11
REMARK    5  A    between atoms: C_11  and  C_13
REMARK    6  A    between atoms: C_11  and  N_14
REMARK    7  A    between atoms: N_14  and  C_15
REMARK    8  A    between atoms: C_15  and  C_17
REMARK    9  A    between atoms: C_15  and  C_18
REMARK   10  A    between atoms: C_21  and  O_26
REMARK   11  A    between atoms: C_23  and  O_24
REMARK   12  A    between atoms: O_24  and  C_25
REMARK   13  A    between atoms: O_26  and  C_27
REMARK                            x       y       z     vdW  Elec       q    Type
REMARK                         _______ _______ _______ _____ _____    ______ ____
ROOT
ATOM      1  N   UNL     1       0.419  -1.987   5.967  0.00  0.00    +0.391 N 
ATOM      2  H   UNL     1       1.255  -1.423   5.949  0.00  0.00    -0.084 HD
ATOM      3  H   UNL     1      -0.392  -1.389   5.913  0.00  0.00    -0.084 HD
ENDROOT
BRANCH   1   4
ATOM      4  C   UNL     1       0.425  -2.909   4.823  0.00  0.00    +0.014 C 
ATOM      5  C   UNL     1       1.732  -3.704   4.817  0.00  0.00    -0.004 C 
BRANCH   4   7
ATOM      6  N   UNL     1       0.294  -2.763   2.358  0.00  0.00    -0.287 N 
ATOM      7  C   UNL     1       0.309  -2.122   3.543  0.00  0.00    +0.203 C 
ATOM      8  O   UNL     1       0.229  -0.913   3.580  0.00  0.00    -0.277 OA
ATOM      9  H   UNL     1       0.280  -3.732   2.330  0.00  0.00    +0.155 HD
BRANCH   6  15
ATOM     10  C   UNL     1       1.344   1.395  -0.047  0.00  0.00    +0.044 C 
ATOM     11  C   UNL     1       0.803  -0.011  -0.028  0.00  0.00    -0.049 A 
ATOM     12  C   UNL     1       0.312  -0.578  -1.190  0.00  0.00    +0.004 A 
ATOM     13  C   UNL     1      -0.185  -1.868  -1.177  0.00  0.00    +0.005 A 
ATOM     14  C   UNL     1      -0.192  -2.595  -0.002  0.00  0.00    -0.029 A 
ATOM     15  C   UNL     1       0.301  -2.029   1.166  0.00  0.00    +0.036 A 
ATOM     16  C   UNL     1       0.804  -0.735   1.148  0.00  0.00    +0.027 A 
ATOM     17  C   UNL     1      -0.734  -4.001   0.011  0.00  0.00    +0.045 C 
ENDBRANCH   6  15
ENDBRANCH   4   7
ENDBRANCH   1   4
BRANCH   1  18
ATOM     18  C   UNL     1       0.376  -2.758   7.217  0.00  0.00    -0.039 C 
ATOM     19  C   UNL     1       0.520  -1.808   8.407  0.00  0.00    -0.009 C 
BRANCH  18  20
ATOM     20  C   UNL     1      -0.940  -3.487   7.313  0.00  0.00    -0.020 A 
ATOM     21  C   UNL     1      -2.018  -3.069   6.555  0.00  0.00    +0.009 A 
ATOM     22  C   UNL     1      -3.225  -3.735   6.640  0.00  0.00    +0.046 A 
ATOM     23  C   UNL     1      -3.358  -4.826   7.488  0.00  0.00    +0.124 A 
ATOM     24  C   UNL     1      -2.279  -5.248   8.249  0.00  0.00    +0.091 A 
ATOM     25  C   UNL     1      -1.067  -4.581   8.157  0.00  0.00    +0.125 A 
BRANCH  25  26
ATOM     26  O   UNL     1      -0.005  -4.995   8.897  0.00  0.00    -0.495 OA
ATOM     27  C   UNL     1      -0.207  -6.128   9.745  0.00  0.00    +0.277 C 
ENDBRANCH  25  26
BRANCH  23  28
ATOM     28  O   UNL     1      -4.546  -5.481   7.572  0.00  0.00    -0.495 OA
ATOM     29  C   UNL     1      -5.615  -4.992   6.759  0.00  0.00    +0.277 C 
ENDBRANCH  23  28
ENDBRANCH  18  20
ENDBRANCH   1  18
TORSDOF 7
