REMARK  Name = ZINC52010582
REMARK  6 active torsions:
REMARK  status: ('A' for Active; 'I' for Inactive)
REMARK    1  A    between atoms: C_1  and  C_2
REMARK    2  A    between atoms: C_3  and  C_21
REMARK    3  A    between atoms: C_7  and  C_8
REMARK    4  A    between atoms: C_8  and  N_10
REMARK    5  A    between atoms: N_11  and  C_12
REMARK    6  A    between atoms: C_18  and  O_20
REMARK                            x       y       z     vdW  Elec       q    Type
REMARK                         _______ _______ _______ _____ _____    ______ ____
ROOT
ATOM      1  C   UNL     1      -0.490   1.448   0.020  0.00  0.00    +0.046 C 
ATOM      2  C   UNL     1      -0.255  -0.040   0.010  0.00  0.00    -0.015 A 
ATOM      3  C   UNL     1      -0.250  -0.754  -1.177  0.00  0.00    +0.064 A 
ATOM      4  N   UNL     1      -0.042  -2.056  -1.166  0.00  0.00    -0.152 NA
ATOM      5  N   UNL     1       0.162  -2.716  -0.085  0.00  0.00    -0.133 NA
ATOM      6  C   UNL     1       0.178  -2.134   1.106  0.00  0.00    +0.151 A 
ATOM      7  C   UNL     1      -0.028  -0.744   1.199  0.00  0.00    +0.049 A 
ATOM      8  N   UNL     1       0.401  -2.885   2.247  0.00  0.00    -0.322 N 
ATOM      9  C   UNL     1      -0.483  -0.041  -2.484  0.00  0.00    +0.068 C 
ATOM     10  H   UNL     1       0.424  -2.453   3.115  0.00  0.00    +0.148 HD
ENDROOT
BRANCH   8  11
ATOM     11  C   UNL     1       0.603  -4.332   2.143  0.00  0.00    +0.100 C 
ATOM     12  C   UNL     1      -0.755  -5.036   2.122  0.00  0.00    +0.025 C 
ATOM     13  C   UNL     1      -1.515  -4.718   3.412  0.00  0.00    +0.002 C 
ATOM     14  C   UNL     1      -0.705  -5.207   4.614  0.00  0.00    +0.003 C 
ATOM     15  C   UNL     1       0.653  -4.503   4.635  0.00  0.00    +0.033 C 
ATOM     16  C   UNL     1       1.413  -4.822   3.345  0.00  0.00    +0.135 C 
BRANCH  16  17
ATOM     17  O   UNL     1       2.681  -4.164   3.365  0.00  0.00    -0.390 OA
ATOM     18  H   UNL     1       3.249  -4.426   4.102  0.00  0.00    +0.210 HD
ENDBRANCH  16  17
ENDBRANCH   8  11
BRANCH   7  19
ATOM     19  C   UNL     1      -0.011  -0.056   2.503  0.00  0.00    +0.081 C 
ATOM     20  S   UNL     1       1.441   0.639   3.086  0.00  0.00    -0.035 S 
BRANCH  19  21
ATOM     21  N   UNL     1      -1.139   0.027   3.237  0.00  0.00    -0.352 N 
ATOM     22  H   UNL     1      -1.978  -0.300   2.875  0.00  0.00    +0.143 HD
ATOM     23  H   UNL     1      -1.113   0.413   4.126  0.00  0.00    +0.143 HD
ENDBRANCH  19  21
ENDBRANCH   7  19
TORSDOF 4
