REMARK  Name = ZINC16901782
REMARK  5 active torsions:
REMARK  status: ('A' for Active; 'I' for Inactive)
REMARK    1  A    between atoms: C_1  and  C_2
REMARK    2  A    between atoms: C_4  and  O_24
REMARK    3  A    between atoms: C_7  and  N_8
REMARK    4  A    between atoms: C_12  and  N_16
REMARK    5  A    between atoms: N_16  and  C_17
REMARK                            x       y       z     vdW  Elec       q    Type
REMARK                         _______ _______ _______ _____ _____    ______ ____
ROOT
ATOM      1  N   UNL     1       0.025  -0.010   2.419  0.00  0.00    -0.209 N 
ATOM      2  C   UNL     1      -1.099   0.329   3.062  0.00  0.00    +0.228 C 
ATOM      3  O   UNL     1      -2.225   0.085   2.684  0.00  0.00    -0.275 OA
ATOM      4  C   UNL     1      -0.743   1.063   4.336  0.00  0.00    +0.128 C 
ATOM      5  C   UNL     1       0.799   1.091   4.318  0.00  0.00    +0.166 C 
ATOM      6  C   UNL     1       1.152   0.364   3.038  0.00  0.00    +0.247 C 
ATOM      7  O   UNL     1       2.276   0.156   2.636  0.00  0.00    -0.273 OA
ENDROOT
BRANCH   1  14
ATOM      8  C   UNL     1      -0.018   1.503   0.010  0.00  0.00    +0.046 C 
ATOM      9  C   UNL     1       0.002  -0.004   0.002  0.00  0.00    -0.025 A 
ATOM     10  C   UNL     1       0.006  -0.688  -1.198  0.00  0.00    +0.050 A 
ATOM     11  C   UNL     1       0.025  -2.075  -1.205  0.00  0.00    +0.117 A 
ATOM     12  C   UNL     1       0.040  -2.776  -0.008  0.00  0.00    +0.047 A 
ATOM     13  C   UNL     1       0.036  -2.093   1.192  0.00  0.00    +0.028 A 
ATOM     14  C   UNL     1       0.023  -0.705   1.200  0.00  0.00    +0.047 A 
BRANCH  11  15
ATOM     15  O   UNL     1       0.027  -2.748  -2.387  0.00  0.00    -0.507 OA
ATOM     16  H   UNL     1       0.911  -2.931  -2.733  0.00  0.00    +0.292 HD
ENDBRANCH  11  15
ENDBRANCH   1  14
BRANCH   5  17
ATOM     17  N   UNL     1       1.290   2.471   4.288  0.00  0.00    -0.332 N 
ATOM     18  H   UNL     1       0.731   3.177   3.927  0.00  0.00    +0.147 HD
BRANCH  17  19
ATOM     19  C   UNL     1       2.563   2.771   4.779  0.00  0.00    +0.042 A 
ATOM     20  C   UNL     1       3.367   1.761   5.291  0.00  0.00    +0.024 A 
ATOM     21  C   UNL     1       4.625   2.061   5.776  0.00  0.00    +0.002 A 
ATOM     22  C   UNL     1       5.085   3.365   5.752  0.00  0.00    +0.001 A 
ATOM     23  C   UNL     1       4.288   4.373   5.243  0.00  0.00    +0.017 A 
ATOM     24  C   UNL     1       3.030   4.080   4.751  0.00  0.00    +0.039 A 
ATOM     25 BR   UNL     1       1.942   5.458   4.049  0.00  0.00    -0.048 Br
ENDBRANCH  17  19
ENDBRANCH   5  17
TORSDOF 4
