REMARK  Name = ZINC07601535
REMARK  4 active torsions:
REMARK  status: ('A' for Active; 'I' for Inactive)
REMARK    1  A    between atoms: C_4  and  C_7
REMARK    2  A    between atoms: N_13  and  N_14
REMARK    3  A    between atoms: N_14  and  C_15
REMARK    4  A    between atoms: C_15  and  C_16
REMARK                            x       y       z     vdW  Elec       q    Type
REMARK                         _______ _______ _______ _____ _____    ______ ____
ROOT
ATOM      1  C   UNL     1       3.696  -0.686  -0.037  0.00  0.00    +0.180 A 
ATOM      2  N   UNL     1       4.876  -0.131  -0.040  0.00  0.00    -0.152 NA
ATOM      3  N   UNL     1       5.836  -1.152  -0.057  0.00  0.00    -0.253 N 
ATOM      4  H   UNL     1       6.798  -1.034  -0.062  0.00  0.00    +0.191 HD
ATOM      5  C   UNL     1       5.176  -2.329  -0.064  0.00  0.00    +0.193 A 
ATOM      6  S   UNL     1       5.888  -3.886  -0.084  0.00  0.00    -0.010 S 
ATOM      7  N   UNL     1       3.856  -2.057  -0.046  0.00  0.00    -0.222 N 
ENDROOT
BRANCH   1  11
ATOM      8  C   UNL     1      -0.017   1.379   0.010  0.00  0.00    +0.000 A 
ATOM      9  C   UNL     1       1.168   2.093   0.002  0.00  0.00    +0.001 A 
ATOM     10  C   UNL     1       2.377   1.428  -0.013  0.00  0.00    +0.011 A 
ATOM     11  C   UNL     1       2.403   0.033  -0.021  0.00  0.00    +0.021 A 
ATOM     12  C   UNL     1       1.204  -0.680  -0.013  0.00  0.00    +0.011 A 
ATOM     13  C   UNL     1       0.002  -0.004   0.002  0.00  0.00    +0.001 A 
ENDBRANCH   1  11
BRANCH   7  14
ATOM     14  N   UNL     1       2.849  -2.981  -0.041  0.00  0.00    -0.277 N 
ATOM     15  H   UNL     1       3.008  -3.685   0.664  0.00  0.00    +0.167 HD
BRANCH  14  16
ATOM     16  C   UNL     1       2.688  -3.591  -1.367  0.00  0.00    +0.156 C 
BRANCH  16  17
ATOM     17  C   UNL     1       1.571  -4.601  -1.323  0.00  0.00    -0.027 A 
ATOM     18  C   UNL     1       1.842  -5.918  -0.999  0.00  0.00    +0.007 A 
ATOM     19  C   UNL     1       0.819  -6.846  -0.958  0.00  0.00    +0.022 A 
ATOM     20  C   UNL     1      -0.478  -6.457  -1.240  0.00  0.00    +0.059 A 
ATOM     21  C   UNL     1      -0.751  -5.139  -1.564  0.00  0.00    +0.060 A 
ATOM     22  C   UNL     1       0.274  -4.211  -1.599  0.00  0.00    +0.026 A 
ATOM     23 CL   UNL     1      -2.378  -4.650  -1.919  0.00  0.00    -0.082 Cl
ATOM     24 CL   UNL     1      -1.764  -7.623  -1.190  0.00  0.00    -0.082 Cl
ENDBRANCH  16  17
ENDBRANCH  14  16
ENDBRANCH   7  14
TORSDOF 4
