REMARK  Name = ZINC38103772
REMARK  5 active torsions:
REMARK  status: ('A' for Active; 'I' for Inactive)
REMARK    1  A    between atoms: C_1  and  C_2
REMARK    2  A    between atoms: C_2  and  C_4
REMARK    3  A    between atoms: C_2  and  N_10
REMARK    4  A    between atoms: N_8  and  C_9
REMARK    5  A    between atoms: C_11  and  C_13
REMARK                            x       y       z     vdW  Elec       q    Type
REMARK                         _______ _______ _______ _____ _____    ______ ____
ROOT
ATOM      1  N   UNL     1       0.711  -0.489   1.189  0.00  0.00    -0.302 N 
ATOM      2  C   UNL     1       2.054  -0.600   1.174  0.00  0.00    +0.245 C 
ATOM      3  O   UNL     1       2.677  -0.297   0.175  0.00  0.00    -0.270 OA
ATOM      4  H   UNL     1       0.213  -0.731   1.986  0.00  0.00    +0.150 HD
ENDROOT
BRANCH   2   5
ATOM      5  C   UNL     1       2.770  -1.091   2.374  0.00  0.00    +0.042 A 
ATOM      6  C   UNL     1       2.072  -1.450   3.530  0.00  0.00    +0.053 A 
ATOM      7  C   UNL     1       2.780  -1.904   4.628  0.00  0.00    +0.132 A 
ATOM      8  N   UNL     1       4.095  -1.999   4.593  0.00  0.00    -0.224 NA
ATOM      9  C   UNL     1       4.792  -1.670   3.522  0.00  0.00    +0.132 A 
ATOM     10  C   UNL     1       4.163  -1.212   2.379  0.00  0.00    +0.053 A 
ATOM     11 CL   UNL     1       6.521  -1.821   3.546  0.00  0.00    -0.062 Cl
ATOM     12 CL   UNL     1       1.927  -2.353   6.072  0.00  0.00    -0.062 Cl
ENDBRANCH   2   5
BRANCH   1  14
ATOM     13  C   UNL     1      -0.019   1.526   0.010  0.00  0.00    +0.036 C 
ATOM     14  C   UNL     1       0.002  -0.004   0.002  0.00  0.00    +0.138 C 
BRANCH  14  15
ATOM     15  C   UNL     1      -1.412  -0.526   0.013  0.00  0.00    +0.153 A 
ATOM     16  N   UNL     1      -2.224  -0.538   1.034  0.00  0.00    -0.133 NA
ATOM     17  N   UNL     1      -3.349  -1.054   0.686  0.00  0.00    -0.138 NA
ATOM     18  C   UNL     1      -3.307  -1.393  -0.573  0.00  0.00    +0.224 A 
ATOM     19  N   UNL     1      -2.077  -1.063  -1.038  0.00  0.00    -0.319 N 
ATOM     20  C   UNL     1      -1.570  -1.252  -2.399  0.00  0.00    +0.151 C 
ENDBRANCH  14  15
ENDBRANCH   1  14
TORSDOF 3
