REMARK  Name = ZINC36142454
REMARK  7 active torsions:
REMARK  status: ('A' for Active; 'I' for Inactive)
REMARK    1  A    between atoms: C_1  and  C_2
REMARK    2  A    between atoms: C_2  and  C_20
REMARK    3  A    between atoms: C_4  and  C_15
REMARK    4  A    between atoms: C_4  and  N_19
REMARK    5  A    between atoms: C_7  and  N_12
REMARK    6  A    between atoms: C_15  and  O_17
REMARK    7  A    between atoms: O_17  and  C_18
REMARK                            x       y       z     vdW  Elec       q    Type
REMARK                         _______ _______ _______ _____ _____    ______ ____
ROOT
ATOM      1  C   UNL     1      -0.046   1.512  -0.041  0.00  0.00    +0.055 C 
ATOM      2  C   UNL     1      -0.031  -0.018  -0.043  0.00  0.00    +0.108 C 
ATOM      3  C   UNL     1      -1.457  -0.549   0.155  0.00  0.00    +0.085 C 
ATOM      4  C   UNL     1      -2.025   0.066   1.436  0.00  0.00    +0.147 C 
ATOM      5  C   UNL     1      -1.023  -0.073   2.554  0.00  0.00    +0.027 A 
ATOM      6  C   UNL     1      -1.459   0.067   3.861  0.00  0.00    +0.042 A 
ATOM      7  C   UNL     1      -0.568  -0.051   4.910  0.00  0.00    +0.127 A 
ATOM      8  C   UNL     1       0.767  -0.310   4.657  0.00  0.00    +0.036 A 
ATOM      9  C   UNL     1       1.207  -0.452   3.357  0.00  0.00    +0.048 A 
ATOM     10  C   UNL     1       0.311  -0.336   2.298  0.00  0.00    +0.127 A 
ATOM     11  O   UNL     1       0.780  -0.492   1.032  0.00  0.00    -0.486 OA
ATOM     12  C   UNL     1       0.528  -0.526  -1.373  0.00  0.00    +0.055 C 
ENDROOT
BRANCH   7  13
ATOM     13  N   UNL     1      -1.041   0.100   6.304  0.00  0.00    +0.056 N 
ATOM     14  O   UNL     1      -2.208   0.326   6.525  0.00  0.00    -0.126 OA
ATOM     15  O   UNL     1      -0.261  -0.004   7.222  0.00  0.00    -0.126 OA
ENDBRANCH   7  13
BRANCH   4  16
ATOM     16  N   UNL     1      -2.311   1.489   1.211  0.00  0.00    -0.312 NA
ATOM     17  H   UNL     1      -3.026   1.608   0.509  0.00  0.00    +0.120 HD
ATOM     18  H   UNL     1      -2.569   1.947   2.072  0.00  0.00    +0.120 HD
ENDBRANCH   4  16
BRANCH   4  19
ATOM     19  C   UNL     1      -3.299  -0.646   1.813  0.00  0.00    +0.332 C 
ATOM     20  O   UNL     1      -3.486  -1.783   1.447  0.00  0.00    -0.248 OA
BRANCH  19  21
ATOM     21  O   UNL     1      -4.225  -0.019   2.554  0.00  0.00    -0.466 OA
ATOM     22  C   UNL     1      -5.407  -0.754   2.874  0.00  0.00    +0.280 C 
ENDBRANCH  19  21
ENDBRANCH   4  19
TORSDOF 4
