REMARK  Name = ZINC39956789
REMARK  4 active torsions:
REMARK  status: ('A' for Active; 'I' for Inactive)
REMARK    1  A    between atoms: C_3  and  C_6
REMARK    2  A    between atoms: C_6  and  N_7
REMARK    3  A    between atoms: C_9  and  N_18
REMARK    4  A    between atoms: C_11  and  C_14
REMARK                            x       y       z     vdW  Elec       q    Type
REMARK                         _______ _______ _______ _____ _____    ______ ____
ROOT
ATOM      1  N   UNL     1       4.109   0.745   1.339  0.00  0.00    -0.320 N 
ATOM      2  C   UNL     1       5.473   0.643   1.583  0.00  0.00    +0.150 A 
ATOM      3  C   UNL     1       5.942   0.656   2.893  0.00  0.00    +0.166 A 
ATOM      4  C   UNL     1       7.302   0.552   3.122  0.00  0.00    +0.050 A 
ATOM      5  C   UNL     1       8.152   0.439   2.029  0.00  0.00    +0.075 A 
ATOM      6  C   UNL     1       7.618   0.433   0.756  0.00  0.00    +0.125 A 
ATOM      7  N   UNL     1       6.315   0.528   0.568  0.00  0.00    -0.238 NA
ATOM      8  H   UNL     1       3.495   0.905   2.073  0.00  0.00    +0.148 HD
ENDROOT
BRANCH   5   9
ATOM      9  C   UNL     1       9.640   0.325   2.231  0.00  0.00    +0.419 C 
ATOM     10  F   UNL     1       9.993  -1.024   2.345  0.00  0.00    -0.166 F 
ATOM     11  F   UNL     1      10.304   0.889   1.136  0.00  0.00    -0.166 F 
ATOM     12  F   UNL     1      10.007   1.004   3.398  0.00  0.00    -0.166 F 
ENDBRANCH   5   9
BRANCH   3  13
ATOM     13  N   UNL     1       5.078   0.768   3.931  0.00  0.00    +0.060 N 
ATOM     14  O   UNL     1       5.375   1.434   4.895  0.00  0.00    -0.126 OA
ATOM     15  O   UNL     1       4.010   0.203   3.892  0.00  0.00    -0.126 OA
ENDBRANCH   3  13
BRANCH   1  16
ATOM     16  C   UNL     1       3.598   0.611  -0.028  0.00  0.00    +0.177 C 
BRANCH  16  19
ATOM     17  C   UNL     1       0.047   1.596  -0.093  0.00  0.00    +0.041 A 
ATOM     18  C   UNL     1       1.422   1.915  -0.161  0.00  0.00    +0.046 A 
ATOM     19  C   UNL     1       2.098   0.761  -0.019  0.00  0.00    +0.122 A 
ATOM     20  O   UNL     1       1.210  -0.235   0.129  0.00  0.00    -0.466 OA
ATOM     21  C   UNL     1      -0.036   0.265   0.086  0.00  0.00    +0.195 A 
ENDBRANCH  16  19
ENDBRANCH   1  16
TORSDOF 4
