REMARK  Name = ZINC18493709
REMARK  5 active torsions:
REMARK  status: ('A' for Active; 'I' for Inactive)
REMARK    1  A    between atoms: C_1  and  C_2
REMARK    2  A    between atoms: C_2  and  C_4
REMARK    3  A    between atoms: C_2  and  N_14
REMARK    4  A    between atoms: C_15  and  C_17
REMARK    5  A    between atoms: C_17  and  N_18
REMARK                            x       y       z     vdW  Elec       q    Type
REMARK                         _______ _______ _______ _____ _____    ______ ____
ROOT
ATOM      1  C   UNL     1       1.395  -2.043   0.029  0.00  0.00    +0.213 C 
ENDROOT
BRANCH   1   2
ATOM      2  N   UNL     1       1.015  -0.629   0.072  0.00  0.00    -0.215 N 
ATOM      3  C   UNL     1       1.896   0.392   0.121  0.00  0.00    +0.252 C 
ATOM      4  O   UNL     1       3.106   0.317   0.134  0.00  0.00    -0.272 OA
ATOM      5  C   UNL     1       1.056   1.647   0.153  0.00  0.00    +0.144 C 
ATOM      6  C   UNL     1       1.348   2.513  -1.069  0.00  0.00    +0.081 C 
ATOM      7  C   UNL     1       2.703   3.203  -0.858  0.00  0.00    +0.232 C 
ATOM      8  O   UNL     1       2.596   4.074   0.269  0.00  0.00    -0.492 OA
ATOM      9  C   UNL     1       2.063   3.577   1.415  0.00  0.00    +0.126 A 
ATOM     10  C   UNL     1       1.309   2.414   1.421  0.00  0.00    +0.027 A 
ATOM     11  C   UNL     1       0.778   1.945   2.610  0.00  0.00    +0.010 A 
ATOM     12  C   UNL     1       0.999   2.628   3.790  0.00  0.00    +0.001 A 
ATOM     13  C   UNL     1       1.755   3.785   3.788  0.00  0.00    +0.004 A 
ATOM     14  C   UNL     1       2.286   4.259   2.606  0.00  0.00    +0.046 A 
ATOM     15  N   UNL     1      -0.326   1.154   0.116  0.00  0.00    -0.281 N 
ATOM     16  C   UNL     1      -0.249  -0.190   0.070  0.00  0.00    +0.310 C 
ATOM     17  O   UNL     1      -1.219  -0.921   0.030  0.00  0.00    -0.252 OA
ATOM     18  H   UNL     1      -1.135   1.690   0.120  0.00  0.00    +0.152 HD
ENDBRANCH   1   2
BRANCH   1  20
ATOM     19  N   UNL     1       1.893  -3.749  -1.692  0.00  0.00    -0.307 N 
ATOM     20  C   UNL     1       1.546  -2.479  -1.406  0.00  0.00    +0.231 C 
ATOM     21  O   UNL     1       1.355  -1.686  -2.304  0.00  0.00    -0.274 OA
ATOM     22  H   UNL     1       2.046  -4.383  -0.974  0.00  0.00    +0.149 HD
BRANCH  19  24
ATOM     23  C   UNL     1       0.683  -4.629  -3.627  0.00  0.00    +0.033 C 
ATOM     24  C   UNL     1       2.040  -4.173  -3.087  0.00  0.00    +0.101 C 
BRANCH  24  25
ATOM     25  C   UNL     1       3.021  -5.314  -3.165  0.00  0.00    -0.020 A 
ATOM     26  C   UNL     1       3.196  -6.140  -2.098  0.00  0.00    +0.006 A 
ATOM     27  C   UNL     1       4.099  -7.200  -2.152  0.00  0.00    +0.001 A 
ATOM     28  C   UNL     1       4.832  -7.440  -3.273  0.00  0.00    +0.008 A 
ATOM     29  C   UNL     1       4.678  -6.609  -4.396  0.00  0.00    -0.018 A 
ATOM     30  C   UNL     1       3.756  -5.533  -4.343  0.00  0.00    -0.013 A 
ATOM     31  C   UNL     1       3.605  -4.699  -5.463  0.00  0.00    +0.009 A 
ATOM     32  C   UNL     1       4.339  -4.939  -6.585  0.00  0.00    +0.001 A 
ATOM     33  C   UNL     1       5.242  -5.999  -6.638  0.00  0.00    +0.001 A 
ATOM     34  C   UNL     1       5.417  -6.825  -5.571  0.00  0.00    +0.008 A 
ENDBRANCH  24  25
ENDBRANCH  19  24
ENDBRANCH   1  20
TORSDOF 4
