REMARK  Name = ZINC53304038
REMARK  15 active torsions:
REMARK  status: ('A' for Active; 'I' for Inactive)
REMARK    1  A    between atoms: C_1  and  C_2
REMARK    2  A    between atoms: C_4  and  C_25
REMARK    3  A    between atoms: N_6  and  C_8
REMARK    4  A    between atoms: C_8  and  C_9
REMARK    5  A    between atoms: C_8  and  C_10
REMARK    6  A    between atoms: C_8  and  C_11
REMARK    7  A    between atoms: C_11  and  N_12
REMARK    8  A    between atoms: C_13  and  C_15
REMARK    9  A    between atoms: C_15  and  C_16
REMARK   10  A    between atoms: C_16  and  C_17
REMARK   11  A    between atoms: C_17  and  N_18
REMARK   12  A    between atoms: C_19  and  C_21
REMARK   13  A    between atoms: C_21  and  C_22
REMARK   14  A    between atoms: C_21  and  C_23
REMARK   15  A    between atoms: C_21  and  C_24
REMARK                            x       y       z     vdW  Elec       q    Type
REMARK                         _______ _______ _______ _____ _____    ______ ____
ROOT
ATOM      1  N   UNL     1       2.806  -0.371   2.299  0.00  0.00    -0.317 N 
ATOM      2  C   UNL     1       3.888   0.404   2.081  0.00  0.00    +0.213 C 
ATOM      3  O   UNL     1       4.958  -0.107   1.825  0.00  0.00    -0.276 OA
ATOM      4  H   UNL     1       1.950   0.037   2.503  0.00  0.00    +0.149 HD
ENDROOT
BRANCH   1   5
ATOM      5  C   UNL     1       2.923  -1.829   2.226  0.00  0.00    +0.092 C 
BRANCH   5   6
ATOM      6  C   UNL     1       1.595  -2.469   2.635  0.00  0.00    -0.055 C 
ATOM      7  C   UNL     1       1.743  -3.992   2.642  0.00  0.00    -0.008 C 
ATOM      8  C   UNL     1       0.506  -2.067   1.639  0.00  0.00    -0.008 C 
BRANCH   6  14
ATOM      9  C   UNL     1       3.045  -2.192   7.303  0.00  0.00    +0.005 C 
ATOM     10  C   UNL     1       1.940  -1.815   6.315  0.00  0.00    -0.031 C 
ATOM     11  C   UNL     1       0.611  -2.417   6.781  0.00  0.00    +0.003 C 
ATOM     12  C   UNL     1      -0.473  -2.100   5.746  0.00  0.00    -0.031 C 
ATOM     13  C   UNL     1      -0.039  -2.639   4.381  0.00  0.00    -0.075 C 
ATOM     14  N   UNL     1       1.223  -2.007   3.979  0.00  0.00    +0.384 N 
ATOM     15  C   UNL     1       2.284  -2.365   4.929  0.00  0.00    -0.075 C 
ATOM     16  C   UNL     1      -0.668  -0.586   5.658  0.00  0.00    +0.005 C 
ATOM     17  H   UNL     1       1.107  -1.005   3.968  0.00  0.00    -0.081 HD
ENDBRANCH   6  14
ENDBRANCH   5   6
ENDBRANCH   1   5
BRANCH   2  18
ATOM     18  C   UNL     1       3.767   1.904   2.156  0.00  0.00    +0.097 C 
BRANCH  18  19
ATOM     19  C   UNL     1       5.129   2.540   1.871  0.00  0.00    +0.028 C 
BRANCH  19  20
ATOM     20  C   UNL     1       5.007   4.063   1.948  0.00  0.00    +0.104 C 
BRANCH  20  21
ATOM     21  N   UNL     1       6.311   4.672   1.675  0.00  0.00    -0.315 N 
ATOM     22  C   UNL     1       6.445   6.013   1.688  0.00  0.00    +0.218 C 
ATOM     23  O   UNL     1       5.486   6.715   1.925  0.00  0.00    -0.275 OA
ATOM     24  H   UNL     1       7.079   4.110   1.485  0.00  0.00    +0.149 HD
BRANCH  22  25
ATOM     25  C   UNL     1       7.787   6.639   1.408  0.00  0.00    +0.039 C 
ATOM     26  C   UNL     1       7.664   8.162   1.484  0.00  0.00    +0.020 C 
ATOM     27  C   UNL     1       8.802   6.157   2.446  0.00  0.00    +0.020 C 
ATOM     28  C   UNL     1       8.256   6.234   0.009  0.00  0.00    +0.020 C 
ENDBRANCH  22  25
ENDBRANCH  20  21
ENDBRANCH  19  20
ENDBRANCH  18  19
ENDBRANCH   2  18
TORSDOF 8
