REMARK  Name = ZINC37902127
REMARK  4 active torsions:
REMARK  status: ('A' for Active; 'I' for Inactive)
REMARK    1  A    between atoms: C_3  and  O_9
REMARK    2  A    between atoms: O_9  and  C_10
REMARK    3  A    between atoms: C_10  and  C_11
REMARK    4  A    between atoms: C_16  and  N_17
REMARK                            x       y       z     vdW  Elec       q    Type
REMARK                         _______ _______ _______ _____ _____    ______ ____
ROOT
ATOM      1  C   UNL     1       4.839   4.129  -0.023  0.00  0.00    +0.014 A 
ATOM      2  C   UNL     1       5.946   3.302  -0.044  0.00  0.00    +0.058 A 
ATOM      3  C   UNL     1       7.221   3.845  -0.054  0.00  0.00    +0.163 A 
ATOM      4  C   UNL     1       7.388   5.225  -0.046  0.00  0.00    +0.164 A 
ATOM      5  C   UNL     1       6.277   6.055  -0.024  0.00  0.00    +0.072 A 
ATOM      6  C   UNL     1       5.002   5.507  -0.018  0.00  0.00    +0.035 A 
ATOM      7  O   UNL     1       8.632   5.777  -0.064  0.00  0.00    -0.485 OA
ATOM      8  C   UNL     1       9.722   4.919   0.290  0.00  0.00    +0.270 C 
ATOM      9  C   UNL     1       9.552   3.591  -0.460  0.00  0.00    +0.270 C 
ATOM     10  O   UNL     1       8.300   3.013  -0.071  0.00  0.00    -0.485 OA
ENDROOT
BRANCH   6  11
ATOM     11  N   UNL     1       3.881   6.345  -0.001  0.00  0.00    -0.358 N 
ATOM     12  H   UNL     1       2.990   5.962   0.007  0.00  0.00    +0.142 HD
ATOM     13  H   UNL     1       3.995   7.308   0.003  0.00  0.00    +0.142 HD
ENDBRANCH   6  11
BRANCH   1  14
ATOM     14  C   UNL     1       3.454   3.534  -0.013  0.00  0.00    +0.266 C 
BRANCH  14  15
ATOM     15  O   UNL     1       3.548   2.108  -0.021  0.00  0.00    -0.486 OA
BRANCH  15  18
ATOM     16  C   UNL     1      -0.017   1.380   0.010  0.00  0.00    +0.042 A 
ATOM     17  C   UNL     1       1.170   2.088   0.002  0.00  0.00    +0.050 A 
ATOM     18  C   UNL     1       2.380   1.412  -0.013  0.00  0.00    +0.139 A 
ATOM     19  C   UNL     1       2.398   0.024  -0.021  0.00  0.00    +0.085 A 
ATOM     20  C   UNL     1       1.210  -0.681  -0.013  0.00  0.00    +0.062 A 
ATOM     21  C   UNL     1       0.002  -0.004   0.002  0.00  0.00    +0.125 A 
ATOM     22  F   UNL     1      -1.159  -0.695   0.010  0.00  0.00    -0.205 F 
ATOM     23 CL   UNL     1       3.912  -0.825  -0.040  0.00  0.00    -0.080 Cl
ENDBRANCH  15  18
ENDBRANCH  14  15
ENDBRANCH   1  14
TORSDOF 4
