REMARK  Name = ZINC41599568
REMARK  7 active torsions:
REMARK  status: ('A' for Active; 'I' for Inactive)
REMARK    1  A    between atoms: C_1  and  C_2
REMARK    2  A    between atoms: C_2  and  C_3
REMARK    3  A    between atoms: C_2  and  C_4
REMARK    4  A    between atoms: C_2  and  C_5
REMARK    5  A    between atoms: C_8  and  C_11
REMARK    6  A    between atoms: C_11  and  N_12
REMARK    7  A    between atoms: C_13  and  O_24
REMARK                            x       y       z     vdW  Elec       q    Type
REMARK                         _______ _______ _______ _____ _____    ______ ____
ROOT
ATOM      1  N   UNL     1       2.520  -0.898  -5.833  0.00  0.00    -0.254 N 
ATOM      2  C   UNL     1       1.412  -0.902  -6.802  0.00  0.00    +0.230 C 
ATOM      3  C   UNL     1       1.704   0.314  -7.694  0.00  0.00    +0.075 C 
ATOM      4  C   UNL     1       1.911  -0.128  -9.140  0.00  0.00    +0.011 C 
ATOM      5  C   UNL     1       2.146   1.105 -10.017  0.00  0.00    -0.080 C 
ATOM      6  N   UNL     1       0.990   2.005  -9.920  0.00  0.00    +0.379 N 
ATOM      7  C   UNL     1       0.854   2.498  -8.544  0.00  0.00    -0.080 C 
ATOM      8  C   UNL     1       0.564   1.323  -7.605  0.00  0.00    +0.011 C 
ATOM      9  N   UNL     1       2.940   0.879  -7.144  0.00  0.00    -0.290 N 
ATOM     10  C   UNL     1       3.328   0.139  -6.095  0.00  0.00    +0.305 C 
ATOM     11  O   UNL     1       4.324   0.385  -5.443  0.00  0.00    -0.253 OA
ATOM     12  H   UNL     1       1.120   2.786 -10.544  0.00  0.00    -0.086 HD
ATOM     13  H   UNL     1       3.400   1.663  -7.482  0.00  0.00    +0.151 HD
ATOM     14  H   UNL     1       0.154   1.504 -10.181  0.00  0.00    -0.086 HD
ENDROOT
BRANCH   2  15
ATOM     15  O   UNL     1       1.421  -2.107  -7.570  0.00  0.00    -0.372 OA
ATOM     16  H   UNL     1       1.305  -2.910  -7.044  0.00  0.00    +0.212 HD
ENDBRANCH   2  15
BRANCH   1  17
ATOM     17  C   UNL     1       2.707  -1.868  -4.752  0.00  0.00    +0.147 C 
BRANCH  17  21
ATOM     18  C   UNL     1       0.707  -0.490  -1.238  0.00  0.00    -0.042 A 
ATOM     19  C   UNL     1       0.036  -1.284  -2.148  0.00  0.00    +0.004 A 
ATOM     20  C   UNL     1       0.683  -1.730  -3.286  0.00  0.00    +0.005 A 
ATOM     21  C   UNL     1       2.001  -1.381  -3.513  0.00  0.00    -0.030 A 
ATOM     22  C   UNL     1       2.672  -0.586  -2.603  0.00  0.00    +0.005 A 
ATOM     23  C   UNL     1       2.024  -0.137  -1.467  0.00  0.00    +0.004 A 
BRANCH  18  25
ATOM     24  C   UNL     1      -0.019   1.526   0.010  0.00  0.00    +0.015 C 
ATOM     25  C   UNL     1       0.002  -0.004   0.002  0.00  0.00    -0.013 C 
ATOM     26  C   UNL     1       0.742  -0.511   1.242  0.00  0.00    +0.015 C 
ATOM     27  C   UNL     1      -1.433  -0.534   0.013  0.00  0.00    +0.015 C 
ENDBRANCH  18  25
ENDBRANCH  17  21
ENDBRANCH   1  17
TORSDOF 4
