REMARK  Name = ZINC64871195
REMARK  5 active torsions:
REMARK  status: ('A' for Active; 'I' for Inactive)
REMARK    1  A    between atoms: C_1  and  C_2
REMARK    2  A    between atoms: C_5  and  C_8
REMARK    3  A    between atoms: C_11  and  C_15
REMARK    4  A    between atoms: N_25  and  C_28
REMARK    5  A    between atoms: C_28  and  C_29
REMARK                            x       y       z     vdW  Elec       q    Type
REMARK                         _______ _______ _______ _____ _____    ______ ____
ROOT
ATOM      1  C   UNL     1      -0.962  -7.220   1.440  0.00  0.00    -0.000 A 
ATOM      2  C   UNL     1       0.334  -7.292   1.927  0.00  0.00    +0.008 A 
ATOM      3  C   UNL     1       0.757  -8.403   2.625  0.00  0.00    +0.016 A 
ATOM      4  C   UNL     1      -0.128  -9.457   2.839  0.00  0.00    +0.063 A 
ATOM      5  C   UNL     1      -1.442  -9.383   2.345  0.00  0.00    +0.056 A 
ATOM      6  C   UNL     1      -1.851  -8.256   1.650  0.00  0.00    +0.034 A 
ATOM      7  N   UNL     1      -2.302 -10.448   2.573  0.00  0.00    -0.307 N 
ATOM      8  H   UNL     1      -3.211 -10.411   2.238  0.00  0.00    +0.170 HD
ATOM      9  C   UNL     1      -1.887 -11.530   3.255  0.00  0.00    +0.330 A 
ATOM     10  O   UNL     1      -2.672 -12.441   3.433  0.00  0.00    -0.246 OA
ATOM     11  N   UNL     1      -0.644 -11.647   3.746  0.00  0.00    -0.256 N 
ATOM     12  C   UNL     1       0.272 -10.668   3.579  0.00  0.00    +0.265 A 
ATOM     13  O   UNL     1       1.396 -10.781   4.028  0.00  0.00    -0.267 OA
ENDROOT
BRANCH   1  16
ATOM     14  C   UNL     1       0.059  -4.275  -0.021  0.00  0.00    +0.180 C 
ATOM     15  N   UNL     1      -0.665  -4.813   1.154  0.00  0.00    -0.265 NA
ATOM     16  C   UNL     1      -1.406  -5.998   0.679  0.00  0.00    +0.242 C 
ATOM     17  O   UNL     1      -1.108  -6.153  -0.721  0.00  0.00    -0.274 OA
ATOM     18  N   UNL     1      -0.709  -4.802  -1.181  0.00  0.00    -0.177 NA
ATOM     19  H   UNL     1      -0.023  -5.060   1.893  0.00  0.00    +0.127 HD
ATOM     20  H   UNL     1      -0.130  -4.855  -2.005  0.00  0.00    +0.156 HD
BRANCH  14  25
ATOM     21  C   UNL     1      -0.018   1.503   0.010  0.00  0.00    +0.044 C 
ATOM     22  C   UNL     1       0.002  -0.004   0.002  0.00  0.00    -0.050 A 
ATOM     23  C   UNL     1       0.006  -0.689  -1.199  0.00  0.00    +0.004 A 
ATOM     24  C   UNL     1       0.025  -2.071  -1.206  0.00  0.00    +0.007 A 
ATOM     25  C   UNL     1       0.040  -2.768  -0.013  0.00  0.00    -0.014 A 
ATOM     26  C   UNL     1       0.037  -2.084   1.188  0.00  0.00    +0.007 A 
ATOM     27  C   UNL     1       0.023  -0.702   1.195  0.00  0.00    +0.004 A 
ENDBRANCH  14  25
ENDBRANCH   1  16
BRANCH  11  28
ATOM     28  C   UNL     1      -0.272 -12.860   4.478  0.00  0.00    +0.165 C 
BRANCH  28  29
ATOM     29  C   UNL     1       0.279 -13.879   3.514  0.00  0.00    -0.027 A 
ATOM     30  C   UNL     1      -0.571 -14.781   2.901  0.00  0.00    +0.007 A 
ATOM     31  C   UNL     1      -0.067 -15.716   2.017  0.00  0.00    +0.020 A 
ATOM     32  C   UNL     1       1.290 -15.749   1.745  0.00  0.00    +0.041 A 
ATOM     33  C   UNL     1       2.140 -14.847   2.359  0.00  0.00    +0.020 A 
ATOM     34  C   UNL     1       1.633 -13.909   3.239  0.00  0.00    +0.007 A 
ATOM     35 CL   UNL     1       1.924 -16.923   0.635  0.00  0.00    -0.084 Cl
ENDBRANCH  28  29
ENDBRANCH  11  28
TORSDOF 4
