REMARK  Name = ZINC03262925
REMARK  10 active torsions:
REMARK  status: ('A' for Active; 'I' for Inactive)
REMARK    1  A    between atoms: C_1  and  C_2
REMARK    2  A    between atoms: C_5  and  N_9
REMARK    3  A    between atoms: C_7  and  C_8
REMARK    4  A    between atoms: C_19  and  S_20
REMARK    5  A    between atoms: S_20  and  C_21
REMARK    6  A    between atoms: C_21  and  C_22
REMARK    7  A    between atoms: C_22  and  C_24
REMARK    8  A    between atoms: C_25  and  N_34
REMARK    9  A    between atoms: N_26  and  C_33
REMARK   10  A    between atoms: N_29  and  C_32
REMARK                            x       y       z     vdW  Elec       q    Type
REMARK                         _______ _______ _______ _____ _____    ______ ____
ROOT
ATOM      1  N   UNL     1       0.199  -2.839  -2.442  0.00  0.00    -0.255 N 
ATOM      2  C   UNL     1       1.343  -2.125  -2.336  0.00  0.00    +0.267 A 
ATOM      3  O   UNL     1       2.430  -2.672  -2.326  0.00  0.00    -0.267 OA
ATOM      4  C   UNL     1       1.225  -0.664  -2.235  0.00  0.00    +0.065 A 
ATOM      5  C   UNL     1       2.344   0.159  -2.123  0.00  0.00    +0.015 A 
ATOM      6  C   UNL     1       2.178   1.514  -2.032  0.00  0.00    +0.001 A 
ATOM      7  C   UNL     1       0.908   2.076  -2.051  0.00  0.00    +0.002 A 
ATOM      8  C   UNL     1      -0.206   1.293  -2.160  0.00  0.00    +0.028 A 
ATOM      9  C   UNL     1      -0.069  -0.096  -2.255  0.00  0.00    +0.079 A 
ATOM     10  N   UNL     1      -1.146  -0.909  -2.365  0.00  0.00    -0.223 NA
ATOM     11  C   UNL     1      -1.015  -2.209  -2.453  0.00  0.00    +0.177 A 
ENDROOT
BRANCH   1  16
ATOM     12  C   UNL     1       0.439  -8.495  -2.846  0.00  0.00    +0.044 C 
ATOM     13  C   UNL     1       0.375  -6.993  -2.739  0.00  0.00    -0.047 A 
ATOM     14  C   UNL     1       0.223  -6.395  -1.501  0.00  0.00    +0.005 A 
ATOM     15  C   UNL     1       0.170  -5.019  -1.399  0.00  0.00    +0.026 A 
ATOM     16  C   UNL     1       0.258  -4.235  -2.542  0.00  0.00    +0.052 A 
ATOM     17  C   UNL     1       0.411  -4.838  -3.783  0.00  0.00    +0.030 A 
ATOM     18  C   UNL     1       0.469  -6.215  -3.878  0.00  0.00    -0.046 A 
ATOM     19  C   UNL     1       0.634  -6.870  -5.225  0.00  0.00    +0.044 C 
ENDBRANCH   1  16
BRANCH  11  20
ATOM     20  S   UNL     1      -2.471  -3.192  -2.593  0.00  0.00    -0.079 S 
BRANCH  20  21
ATOM     21  C   UNL     1      -3.732  -1.894  -2.558  0.00  0.00    +0.157 C 
BRANCH  21  22
ATOM     22  C   UNL     1      -5.099  -2.518  -2.667  0.00  0.00    +0.182 C 
ATOM     23  O   UNL     1      -5.210  -3.724  -2.760  0.00  0.00    -0.291 OA
BRANCH  22  24
ATOM     24  C   UNL     1      -6.250  -1.701  -2.662  0.00  0.00    +0.120 A 
ATOM     25  C   UNL     1      -7.538  -2.264  -2.650  0.00  0.00    +0.116 A 
ATOM     26  N   UNL     1      -8.622  -1.432  -2.639  0.00  0.00    -0.284 N 
ATOM     27  C   UNL     1      -8.477  -0.098  -2.652  0.00  0.00    +0.333 A 
ATOM     28  O   UNL     1      -9.473   0.599  -2.647  0.00  0.00    -0.246 OA
ATOM     29  N   UNL     1      -7.273   0.496  -2.668  0.00  0.00    -0.263 N 
ATOM     30  C   UNL     1      -6.140  -0.237  -2.675  0.00  0.00    +0.269 A 
ATOM     31  O   UNL     1      -5.050   0.304  -2.691  0.00  0.00    -0.267 OA
ATOM     32  C   UNL     1      -7.188   1.958  -2.681  0.00  0.00    +0.157 C 
ATOM     33  C   UNL     1      -9.968  -2.008  -2.622  0.00  0.00    +0.155 C 
BRANCH  25  34
ATOM     34  N   UNL     1      -7.703  -3.614  -2.643  0.00  0.00    -0.344 N 
ATOM     35  H   UNL     1      -6.995  -4.187  -2.309  0.00  0.00    +0.144 HD
ATOM     36  H   UNL     1      -8.528  -4.003  -2.972  0.00  0.00    +0.144 HD
ENDBRANCH  25  34
ENDBRANCH  22  24
ENDBRANCH  21  22
ENDBRANCH  20  21
ENDBRANCH  11  20
TORSDOF 6
