REMARK  Name = ZINC12282893
REMARK  5 active torsions:
REMARK  status: ('A' for Active; 'I' for Inactive)
REMARK    1  A    between atoms: C_1  and  C_2
REMARK    2  A    between atoms: C_6  and  C_27
REMARK    3  A    between atoms: C_16  and  N_58
REMARK    4  A    between atoms: C_20  and  C_21
REMARK    5  A    between atoms: C_20  and  N_58
REMARK                            x       y       z     vdW  Elec       q    Type
REMARK                         _______ _______ _______ _____ _____    ______ ____
ROOT
ATOM      1  C   UNL     1      -1.559  -0.219   8.173  0.00  0.00    +0.044 C 
ATOM      2  C   UNL     1      -0.986  -0.490   6.805  0.00  0.00    -0.048 A 
ATOM      3  C   UNL     1      -0.199  -1.622   6.604  0.00  0.00    +0.004 A 
ATOM      4  C   UNL     1       0.335  -1.896   5.381  0.00  0.00    +0.012 A 
ATOM      5  C   UNL     1       0.088  -1.026   4.309  0.00  0.00    +0.022 A 
ATOM      6  C   UNL     1       0.612  -1.257   3.023  0.00  0.00    +0.051 A 
ATOM      7  N   UNL     1       0.336  -0.394   2.068  0.00  0.00    -0.219 NA
ATOM      8  C   UNL     1      -0.420   0.678   2.295  0.00  0.00    +0.219 A 
ATOM      9  N   UNL     1      -0.934   0.949   3.479  0.00  0.00    -0.214 NA
ATOM     10  C   UNL     1      -0.714   0.127   4.513  0.00  0.00    +0.077 A 
ATOM     11  C   UNL     1      -1.246   0.376   5.786  0.00  0.00    +0.032 A 
ATOM     12  N   UNL     1      -0.672   1.546   1.248  0.00  0.00    -0.300 N 
ATOM     13  C   UNL     1      -0.221   2.881   1.564  0.00  0.00    +0.108 C 
ATOM     14  C   UNL     1      -1.202   3.954   1.055  0.00  0.00    +0.017 C 
ATOM     15  C   UNL     1      -1.750   3.628  -0.350  0.00  0.00    -0.014 C 
ATOM     16  C   UNL     1      -0.696   3.096  -1.283  0.00  0.00    -0.070 C 
ATOM     17  C   UNL     1      -0.687   1.553  -1.198  0.00  0.00    +0.003 C 
ATOM     18  C   UNL     1      -0.013   1.086   0.008  0.00  0.00    +0.106 C 
ATOM     19  C   UNL     1       1.470  -2.465   2.747  0.00  0.00    +0.066 C 
ENDROOT
BRANCH  16  20
ATOM     20  N   UNL     1      -1.011   3.514  -2.662  0.00  0.00    +0.381 N 
ATOM     21  H   UNL     1      -1.425   4.454  -2.645  0.00  0.00    -0.086 HD
ATOM     22  H   UNL     1      -1.681   2.852  -3.072  0.00  0.00    -0.086 HD
BRANCH  20  23
ATOM     23  C   UNL     1       0.214   3.537  -3.483  0.00  0.00    -0.079 C 
BRANCH  23  24
ATOM     24  C   UNL     1      -0.143   3.974  -4.905  0.00  0.00    -0.024 C 
ATOM     25  C   UNL     1      -1.039   2.915  -5.556  0.00  0.00    +0.030 C 
ATOM     26  C   UNL     1      -1.326   3.322  -7.003  0.00  0.00    +0.160 C 
ATOM     27  O   UNL     1      -0.093   3.472  -7.709  0.00  0.00    -0.380 OA
ATOM     28  C   UNL     1       0.766   4.481  -7.173  0.00  0.00    +0.160 C 
ATOM     29  C   UNL     1       1.138   4.122  -5.733  0.00  0.00    +0.030 C 
ENDBRANCH  23  24
ENDBRANCH  20  23
ENDBRANCH  16  20
TORSDOF 3
