REMARK  Name = ZINC06660330
REMARK  5 active torsions:
REMARK  status: ('A' for Active; 'I' for Inactive)
REMARK    1  A    between atoms: C_4  and  C_7
REMARK    2  A    between atoms: C_7  and  N_8
REMARK    3  A    between atoms: C_13  and  N_17
REMARK    4  A    between atoms: N_17  and  C_18
REMARK    5  A    between atoms: C_27  and  N_28
REMARK                            x       y       z     vdW  Elec       q    Type
REMARK                         _______ _______ _______ _____ _____    ______ ____
ROOT
ATOM      1  N   UNL     1      -3.629   0.334   1.193  0.00  0.00    -0.242 N 
ATOM      2  C   UNL     1      -4.235   1.244   2.007  0.00  0.00    +0.164 A 
ATOM      3  C   UNL     1      -4.218   0.695   3.304  0.00  0.00    +0.079 A 
ATOM      4  C   UNL     1      -3.583  -0.562   3.213  0.00  0.00    +0.148 A 
ATOM      5  N   UNL     1      -3.247  -0.765   1.971  0.00  0.00    -0.177 NA
ATOM      6  C   UNL     1      -4.791   1.442   4.352  0.00  0.00    +0.137 A 
ATOM      7  N   UNL     1      -5.318   2.628   4.067  0.00  0.00    -0.220 NA
ATOM      8  C   UNL     1      -5.309   3.102   2.835  0.00  0.00    +0.225 A 
ATOM      9  N   UNL     1      -4.787   2.442   1.824  0.00  0.00    -0.216 NA
ENDROOT
BRANCH   6  10
ATOM     10  N   UNL     1      -4.804   0.953   5.645  0.00  0.00    -0.298 N 
ATOM     11  H   UNL     1      -4.334   0.131   5.857  0.00  0.00    +0.154 HD
BRANCH  10  12
ATOM     12  C   UNL     1      -5.492   1.642   6.644  0.00  0.00    +0.040 A 
ATOM     13  C   UNL     1      -6.560   2.452   6.322  0.00  0.00    +0.024 A 
ATOM     14  C   UNL     1      -7.255   3.139   7.311  0.00  0.00    +0.002 A 
ATOM     15  C   UNL     1      -6.895   3.039   8.621  0.00  0.00    +0.010 A 
ATOM     16  C   UNL     1      -5.810   2.229   8.991  0.00  0.00    +0.005 A 
ATOM     17  C   UNL     1      -5.096   1.521   7.994  0.00  0.00    +0.005 A 
ATOM     18  C   UNL     1      -4.010   0.712   8.363  0.00  0.00    +0.010 A 
ATOM     19  C   UNL     1      -3.649   0.613   9.673  0.00  0.00    +0.002 A 
ATOM     20  C   UNL     1      -4.342   1.304  10.662  0.00  0.00    +0.023 A 
ATOM     21  C   UNL     1      -5.414   2.108  10.341  0.00  0.00    +0.032 A 
BRANCH  21  22
ATOM     22  N   UNL     1      -6.102   2.796  11.339  0.00  0.00    -0.357 N 
ATOM     23  H   UNL     1      -5.826   2.711  12.265  0.00  0.00    +0.142 HD
ATOM     24  H   UNL     1      -6.856   3.361  11.108  0.00  0.00    +0.142 HD
ENDBRANCH  21  22
ENDBRANCH  10  12
ENDBRANCH   6  10
BRANCH   1  25
ATOM     25  C   UNL     1      -3.419   0.479  -0.250  0.00  0.00    +0.181 C 
BRANCH  25  29
ATOM     26  C   UNL     1       0.344   2.369  -0.965  0.00  0.00    +0.000 A 
ATOM     27  C   UNL     1       0.268   0.992  -0.880  0.00  0.00    +0.000 A 
ATOM     28  C   UNL     1      -0.949   0.380  -0.645  0.00  0.00    +0.005 A 
ATOM     29  C   UNL     1      -2.091   1.146  -0.500  0.00  0.00    -0.026 A 
ATOM     30  C   UNL     1      -2.014   2.524  -0.580  0.00  0.00    +0.005 A 
ATOM     31  C   UNL     1      -0.796   3.136  -0.814  0.00  0.00    +0.000 A 
ENDBRANCH  25  29
ENDBRANCH   1  25
TORSDOF 5
