REMARK  Name = ZINC54526161
REMARK  6 active torsions:
REMARK  status: ('A' for Active; 'I' for Inactive)
REMARK    1  A    between atoms: C_1  and  C_2
REMARK    2  A    between atoms: C_2  and  C_3
REMARK    3  A    between atoms: C_2  and  C_4
REMARK    4  A    between atoms: C_4  and  N_5
REMARK    5  A    between atoms: C_9  and  C_10
REMARK    6  A    between atoms: C_12  and  N_17
REMARK                            x       y       z     vdW  Elec       q    Type
REMARK                         _______ _______ _______ _____ _____    ______ ____
ROOT
ATOM      1  C   UNL     1      -1.164  -1.937  -2.775  0.00  0.00    +0.056 A 
ATOM      2  C   UNL     1      -1.242  -3.083  -1.984  0.00  0.00    +0.037 A 
ATOM      3  C   UNL     1      -0.462  -4.187  -2.293  0.00  0.00    +0.025 A 
ATOM      4  C   UNL     1       0.394  -4.150  -3.388  0.00  0.00    +0.025 A 
ATOM      5  C   UNL     1       0.472  -3.015  -4.172  0.00  0.00    +0.041 A 
ATOM      6  C   UNL     1      -0.305  -1.911  -3.876  0.00  0.00    +0.134 A 
ATOM      7  F   UNL     1      -0.230  -0.805  -4.649  0.00  0.00    -0.205 F 
ENDROOT
BRANCH   1  12
ATOM      8  N   UNL     1      -2.135  -0.171  -1.222  0.00  0.00    -0.313 N 
ATOM      9  C   UNL     1      -2.982   0.878  -1.406  0.00  0.00    +0.225 A 
ATOM     10  N   UNL     1      -3.316   0.895  -2.669  0.00  0.00    -0.138 NA
ATOM     11  N   UNL     1      -2.738  -0.069  -3.291  0.00  0.00    -0.129 NA
ATOM     12  C   UNL     1      -1.994  -0.755  -2.452  0.00  0.00    +0.167 A 
BRANCH   8  13
ATOM     13  C   UNL     1      -1.500  -0.586   0.031  0.00  0.00    +0.127 C 
BRANCH  13  15
ATOM     14  C   UNL     1      -0.059   1.454   0.099  0.00  0.00    +0.009 C 
ATOM     15  C   UNL     1      -0.058  -0.076   0.066  0.00  0.00    +0.003 C 
ATOM     16  C   UNL     1       0.643  -0.613   1.316  0.00  0.00    +0.009 C 
ENDBRANCH  13  15
ENDBRANCH   8  13
ENDBRANCH   1  12
BRANCH   3  17
ATOM     17  N   UNL     1      -0.536  -5.338  -1.502  0.00  0.00    -0.358 N 
ATOM     18  H   UNL     1      -1.133  -5.364  -0.738  0.00  0.00    +0.142 HD
ATOM     19  H   UNL     1       0.009  -6.110  -1.718  0.00  0.00    +0.142 HD
ENDBRANCH   3  17
TORSDOF 4
