REMARK  Name = ZINC39324710
REMARK  7 active torsions:
REMARK  status: ('A' for Active; 'I' for Inactive)
REMARK    1  A    between atoms: C_4  and  O_31
REMARK    2  A    between atoms: C_5  and  C_7
REMARK    3  A    between atoms: C_10  and  C_21
REMARK    4  A    between atoms: C_16  and  N_20
REMARK    5  A    between atoms: C_17  and  C_18
REMARK    6  A    between atoms: O_31  and  C_32
REMARK    7  A    between atoms: C_32  and  C_33
REMARK                            x       y       z     vdW  Elec       q    Type
REMARK                         _______ _______ _______ _____ _____    ______ ____
ROOT
ATOM      1  C   UNL     1       1.388  -2.677   0.104  0.00  0.00    +0.105 C 
ATOM      2  C   UNL     1       0.698  -2.899  -1.218  0.00  0.00    +0.050 A 
ATOM      3  C   UNL     1       1.145  -2.681  -2.464  0.00  0.00    +0.050 A 
ATOM      4  N   UNL     1       0.158  -3.033  -3.321  0.00  0.00    -0.277 N 
ATOM      5  H   UNL     1       0.200  -2.981  -4.289  0.00  0.00    +0.189 HD
ATOM      6  N   UNL     1      -0.935  -3.485  -2.566  0.00  0.00    -0.135 NA
ATOM      7  C   UNL     1      -0.617  -3.408  -1.306  0.00  0.00    +0.245 A 
ATOM      8  O   UNL     1      -1.340  -3.732  -0.201  0.00  0.00    -0.421 OA
ATOM      9  C   UNL     1      -0.680  -3.812   0.971  0.00  0.00    +0.201 C 
ATOM     10  C   UNL     1       0.573  -3.351   1.179  0.00  0.00    +0.098 C 
ENDROOT
BRANCH   3  11
ATOM     11  C   UNL     1       2.500  -2.141  -2.841  0.00  0.00    +0.014 C 
ATOM     12  C   UNL     1       3.589  -2.989  -2.181  0.00  0.00    +0.016 C 
ATOM     13  C   UNL     1       4.965  -2.442  -2.563  0.00  0.00    -0.010 C 
ATOM     14  C   UNL     1       5.130  -2.494  -4.084  0.00  0.00    +0.007 C 
ATOM     15  C   UNL     1       4.042  -1.646  -4.744  0.00  0.00    -0.010 C 
ATOM     16  C   UNL     1       2.665  -2.194  -4.362  0.00  0.00    +0.016 C 
ATOM     17  C   UNL     1       4.164  -0.197  -4.268  0.00  0.00    +0.007 C 
ATOM     18  C   UNL     1       3.999  -0.145  -2.748  0.00  0.00    -0.010 C 
ATOM     19  C   UNL     1       5.088  -0.993  -2.087  0.00  0.00    +0.007 C 
ATOM     20  C   UNL     1       2.623  -0.693  -2.365  0.00  0.00    +0.016 C 
ENDBRANCH   3  11
BRANCH   1  25
ATOM     21  C   UNL     1       2.721   0.682   1.197  0.00  0.00    +0.001 A 
ATOM     22  C   UNL     1       1.655   1.513   0.908  0.00  0.00    +0.004 A 
ATOM     23  C   UNL     1       0.500   0.991   0.359  0.00  0.00    +0.046 A 
ATOM     24  C   UNL     1       0.410  -0.368   0.096  0.00  0.00    +0.125 A 
ATOM     25  C   UNL     1       1.482  -1.200   0.387  0.00  0.00    +0.007 A 
ATOM     26  C   UNL     1       2.635  -0.673   0.936  0.00  0.00    +0.008 A 
BRANCH  24  27
ATOM     27  O   UNL     1      -0.725  -0.884  -0.443  0.00  0.00    -0.487 OA
BRANCH  27  28
ATOM     28  C   UNL     1      -1.832   0.006  -0.599  0.00  0.00    +0.264 C 
BRANCH  28  29
ATOM     29  C   UNL     1      -2.969  -0.719  -1.272  0.00  0.00    -0.010 A 
ATOM     30  C   UNL     1      -3.022  -0.793  -2.651  0.00  0.00    +0.008 A 
ATOM     31  C   UNL     1      -4.065  -1.458  -3.268  0.00  0.00    +0.020 A 
ATOM     32  C   UNL     1      -5.056  -2.049  -2.505  0.00  0.00    +0.041 A 
ATOM     33  C   UNL     1      -5.003  -1.974  -1.125  0.00  0.00    +0.020 A 
ATOM     34  C   UNL     1      -3.957  -1.314  -0.508  0.00  0.00    +0.008 A 
ATOM     35 CL   UNL     1      -6.366  -2.884  -3.280  0.00  0.00    -0.084 Cl
ENDBRANCH  28  29
ENDBRANCH  27  28
ENDBRANCH  24  27
ENDBRANCH   1  25
BRANCH   9  36
ATOM     36  N   UNL     1      -1.325  -4.403   2.029  0.00  0.00    -0.328 N 
ATOM     37  H   UNL     1      -2.225  -4.746   1.917  0.00  0.00    +0.145 HD
ATOM     38  H   UNL     1      -0.881  -4.478   2.888  0.00  0.00    +0.145 HD
ENDBRANCH   9  36
BRANCH  10  39
ATOM     39  C   UNL     1       1.154  -3.509   2.478  0.00  0.00    +0.101 C 
ATOM     40  N   UNL     1       1.615  -3.634   3.509  0.00  0.00    -0.191 NA
ENDBRANCH  10  39
TORSDOF 7
