REMARK  Name = ZINC35287253
REMARK  7 active torsions:
REMARK  status: ('A' for Active; 'I' for Inactive)
REMARK    1  A    between atoms: C_1  and  C_2
REMARK    2  A    between atoms: C_2  and  C_3
REMARK    3  A    between atoms: C_2  and  O_4
REMARK    4  A    between atoms: O_4  and  C_5
REMARK    5  A    between atoms: C_14  and  C_15
REMARK    6  A    between atoms: C_15  and  N_16
REMARK    7  A    between atoms: N_16  and  N_17
REMARK                            x       y       z     vdW  Elec       q    Type
REMARK                         _______ _______ _______ _____ _____    ______ ____
ROOT
ATOM      1  C   UNL     1       2.026  -0.553  -1.118  0.00  0.00    +0.126 A 
ATOM      2  C   UNL     1       2.684  -0.304   0.091  0.00  0.00    +0.046 A 
ATOM      3  C   UNL     1       4.039  -0.385   0.178  0.00  0.00    +0.012 A 
ATOM      4  C   UNL     1       4.792  -0.722  -0.960  0.00  0.00    -0.017 A 
ATOM      5  C   UNL     1       6.193  -0.814  -0.905  0.00  0.00    +0.008 A 
ATOM      6  C   UNL     1       6.891  -1.144  -2.026  0.00  0.00    +0.001 A 
ATOM      7  C   UNL     1       6.238  -1.392  -3.231  0.00  0.00    +0.001 A 
ATOM      8  C   UNL     1       4.882  -1.313  -3.322  0.00  0.00    +0.009 A 
ATOM      9  C   UNL     1       4.127  -0.975  -2.186  0.00  0.00    -0.010 A 
ATOM     10  C   UNL     1       2.726  -0.888  -2.241  0.00  0.00    +0.020 A 
ENDROOT
BRANCH   1  11
ATOM     11  O   UNL     1       0.671  -0.465  -1.174  0.00  0.00    -0.489 OA
BRANCH  11  13
ATOM     12  C   UNL     1      -0.046   1.265   0.354  0.00  0.00    +0.051 C 
ATOM     13  C   UNL     1      -0.016  -0.236   0.058  0.00  0.00    +0.167 C 
ATOM     14  C   UNL     1      -1.448  -0.764  -0.050  0.00  0.00    +0.051 C 
ENDBRANCH  11  13
ENDBRANCH   1  11
BRANCH  10  15
ATOM     15  C   UNL     1       2.001  -1.159  -3.534  0.00  0.00    +0.161 C 
BRANCH  15  16
ATOM     16  N   UNL     1       1.866   0.093  -4.291  0.00  0.00    -0.260 N 
ATOM     17  H   UNL     1       1.402   0.800  -3.741  0.00  0.00    +0.168 HD
BRANCH  16  18
ATOM     18  N   UNL     1       1.211  -0.117  -5.471  0.00  0.00    -0.129 N 
ATOM     19  C   UNL     1       0.915   0.800  -6.421  0.00  0.00    +0.251 A 
ATOM     20  N   UNL     1       0.283   0.169  -7.386  0.00  0.00    -0.091 NA
ATOM     21  N   UNL     1       0.165  -1.079  -7.105  0.00  0.00    -0.020 NA
ATOM     22  N   UNL     1       0.707  -1.334  -5.963  0.00  0.00    -0.024 NA
ATOM     23  N   UNL     1       1.218   2.150  -6.383  0.00  0.00    -0.325 N 
ATOM     24  H   UNL     1       1.690   2.520  -5.620  0.00  0.00    +0.145 HD
ATOM     25  H   UNL     1       0.960   2.726  -7.119  0.00  0.00    +0.145 HD
ENDBRANCH  16  18
ENDBRANCH  15  16
ENDBRANCH  10  15
TORSDOF 5
