REMARK  Name = ZINC67139302
REMARK  11 active torsions:
REMARK  status: ('A' for Active; 'I' for Inactive)
REMARK    1  A    between atoms: C_1  and  C_2
REMARK    2  A    between atoms: C_2  and  C_4
REMARK    3  A    between atoms: C_2  and  N_18
REMARK    4  A    between atoms: N_6  and  C_7
REMARK    5  A    between atoms: N_6  and  C_15
REMARK    6  A    between atoms: C_7  and  C_8
REMARK    7  A    between atoms: C_19  and  O_21
REMARK    8  A    between atoms: O_21  and  C_22
REMARK    9  A    between atoms: C_22  and  C_23
REMARK   10  A    between atoms: C_22  and  C_24
REMARK   11  A    between atoms: C_22  and  C_25
REMARK                            x       y       z     vdW  Elec       q    Type
REMARK                         _______ _______ _______ _____ _____    ______ ____
ROOT
ATOM      1  C   UNL     1       0.257  -0.858  -1.379  0.00  0.00    +0.236 C 
ATOM      2  O   UNL     1       0.864  -1.903  -1.471  0.00  0.00    -0.274 OA
ATOM      3  N   UNL     1       0.076  -0.085  -2.469  0.00  0.00    -0.293 N 
ENDROOT
BRANCH   3   4
ATOM      4  C   UNL     1      -0.995   0.913  -2.490  0.00  0.00    +0.077 C 
ATOM      5  C   UNL     1      -1.422   1.520  -1.151  0.00  0.00    +0.024 C 
ATOM      6  C   UNL     1      -2.337   0.523  -1.866  0.00  0.00    +0.024 C 
ENDBRANCH   3   4
BRANCH   1   8
ATOM      7  C   UNL     1       0.470   0.810   0.444  0.00  0.00    +0.038 C 
ATOM      8  C   UNL     1      -0.295  -0.421  -0.047  0.00  0.00    +0.159 C 
BRANCH   8   9
ATOM      9  N   UNL     1      -0.144  -1.508   0.924  0.00  0.00    -0.270 N 
ATOM     10  C   UNL     1      -0.968  -1.581   1.988  0.00  0.00    +0.401 C 
ATOM     11  O   UNL     1      -1.836  -0.744   2.142  0.00  0.00    -0.226 OA
ATOM     12  H   UNL     1       0.548  -2.176   0.800  0.00  0.00    +0.153 HD
BRANCH  10  13
ATOM     13  O   UNL     1      -0.830  -2.580   2.880  0.00  0.00    -0.445 OA
BRANCH  13  14
ATOM     14  C   UNL     1      -1.738  -2.595   3.983  0.00  0.00    +0.107 C 
ATOM     15  C   UNL     1      -3.172  -2.704   3.462  0.00  0.00    +0.055 C 
ATOM     16  C   UNL     1      -1.429  -3.794   4.882  0.00  0.00    +0.055 C 
ATOM     17  C   UNL     1      -1.584  -1.302   4.787  0.00  0.00    +0.055 C 
ENDBRANCH  13  14
ENDBRANCH  10  13
ENDBRANCH   8   9
ENDBRANCH   1   8
BRANCH   3  18
ATOM     18  C   UNL     1       0.952  -0.244  -3.633  0.00  0.00    +0.143 C 
BRANCH  18  19
ATOM     19  C   UNL     1       0.361  -1.266  -4.570  0.00  0.00    -0.030 A 
ATOM     20  C   UNL     1       0.684  -2.603  -4.427  0.00  0.00    +0.008 A 
ATOM     21  C   UNL     1       0.142  -3.541  -5.285  0.00  0.00    +0.038 A 
ATOM     22  C   UNL     1      -0.725  -3.142  -6.288  0.00  0.00    +0.123 A 
ATOM     23  C   UNL     1      -1.048  -1.803  -6.431  0.00  0.00    +0.038 A 
ATOM     24  C   UNL     1      -0.509  -0.867  -5.568  0.00  0.00    +0.008 A 
ATOM     25  F   UNL     1      -1.254  -4.058  -7.128  0.00  0.00    -0.205 F 
ENDBRANCH  18  19
ENDBRANCH   3  18
TORSDOF 7
