REMARK  Name = ZINC16478834
REMARK  5 active torsions:
REMARK  status: ('A' for Active; 'I' for Inactive)
REMARK    1  A    between atoms: C_1  and  C_2
REMARK    2  A    between atoms: C_9  and  C_11
REMARK    3  A    between atoms: N_13  and  N_14
REMARK    4  A    between atoms: C_15  and  C_17
REMARK    5  A    between atoms: C_23  and  C_25
REMARK                            x       y       z     vdW  Elec       q    Type
REMARK                         _______ _______ _______ _____ _____    ______ ____
ROOT
ATOM      1  C   UNL     1      -2.560   1.827  -4.903  0.00  0.00    +0.267 C 
ATOM      2  O   UNL     1      -3.566   2.446  -5.197  0.00  0.00    -0.268 OA
ATOM      3  N   UNL     1      -1.821   1.243  -5.867  0.00  0.00    -0.230 N 
ATOM      4  H   UNL     1      -1.019   0.750  -5.632  0.00  0.00    +0.173 HD
ENDROOT
BRANCH   1  12
ATOM      5  C   UNL     1      -2.277   2.831   2.600  0.00  0.00    +0.008 C 
ATOM      6  C   UNL     1      -1.666   2.478   1.243  0.00  0.00    -0.009 C 
ATOM      7  C   UNL     1      -1.047   1.079   1.312  0.00  0.00    +0.009 C 
ATOM      8  C   UNL     1      -0.209   0.847   0.047  0.00  0.00    +0.043 C 
ATOM      9  C   UNL     1      -1.028   1.248  -1.142  0.00  0.00    -0.006 A 
ATOM     10  C   UNL     1      -2.174   1.991  -1.140  0.00  0.00    -0.036 A 
ATOM     11  C   UNL     1      -2.760   2.236  -2.371  0.00  0.00    +0.024 A 
ATOM     12  C   UNL     1      -2.152   1.718  -3.499  0.00  0.00    +0.076 A 
ATOM     13  S   UNL     1      -0.739   0.880  -2.800  0.00  0.00    -0.088 S 
ATOM     14  C   UNL     1      -2.756   2.514   0.171  0.00  0.00    +0.039 C 
ENDBRANCH   1  12
BRANCH   3  15
ATOM     15  N   UNL     1      -2.211   1.348  -7.208  0.00  0.00    -0.234 N 
ATOM     16  C   UNL     1      -1.473   0.764  -8.173  0.00  0.00    +0.233 C 
ATOM     17  O   UNL     1      -0.470   0.148  -7.879  0.00  0.00    -0.274 OA
ATOM     18  H   UNL     1      -3.013   1.841  -7.443  0.00  0.00    +0.173 HD
BRANCH  16  19
ATOM     19  C   UNL     1      -1.892   0.877  -9.616  0.00  0.00    +0.094 C 
ATOM     20  C   UNL     1      -1.635  -0.451 -10.331  0.00  0.00    +0.040 C 
ATOM     21  C   UNL     1      -0.160  -0.675 -10.491  0.00  0.00    -0.030 C 
ATOM     22  C   UNL     1       0.732   0.257 -10.376  0.00  0.00    -0.030 C 
ATOM     23  C   UNL     1       0.415   1.688 -10.057  0.00  0.00    +0.042 C 
ATOM     24  C   UNL     1      -1.072   1.973 -10.307  0.00  0.00    +0.118 C 
BRANCH  24  25
ATOM     25  C   UNL     1      -1.441   3.318  -9.737  0.00  0.00    +0.360 C 
ATOM     26  O   UNL     1      -2.275   3.397  -8.866  0.00  0.00    -0.246 OA
ATOM     27  O   UNL     1      -0.843   4.429 -10.196  0.00  0.00    -0.246 OA
ENDBRANCH  24  25
ENDBRANCH  16  19
ENDBRANCH   3  15
TORSDOF 4
