REMARK  Name = ZINC39639177
REMARK  15 active torsions:
REMARK  status: ('A' for Active; 'I' for Inactive)
REMARK    1  A    between atoms: C_1  and  C_2
REMARK    2  A    between atoms: C_2  and  C_3
REMARK    3  A    between atoms: C_2  and  C_4
REMARK    4  A    between atoms: C_4  and  C_6
REMARK    5  A    between atoms: C_4  and  O_35
REMARK    6  A    between atoms: C_10  and  C_19
REMARK    7  A    between atoms: N_21  and  C_22
REMARK    8  A    between atoms: C_22  and  C_23
REMARK    9  A    between atoms: C_24  and  O_33
REMARK   10  A    between atoms: C_26  and  O_31
REMARK   11  A    between atoms: C_28  and  O_29
REMARK   12  A    between atoms: O_29  and  C_30
REMARK   13  A    between atoms: O_31  and  C_32
REMARK   14  A    between atoms: O_33  and  C_34
REMARK   15  A    between atoms: O_35  and  C_36
REMARK                            x       y       z     vdW  Elec       q    Type
REMARK                         _______ _______ _______ _____ _____    ______ ____
ROOT
ATOM      1  C   UNL     1      -1.537  -1.954  -0.069  0.00  0.00    +0.257 C 
ATOM      2  O   UNL     1      -2.016  -2.582   0.851  0.00  0.00    -0.272 OA
ATOM      3  N   UNL     1      -1.029  -2.604  -1.136  0.00  0.00    -0.297 N 
ATOM      4  C   UNL     1      -0.482  -2.016  -2.381  0.00  0.00    +0.121 C 
ATOM      5  C   UNL     1       0.744  -2.893  -2.721  0.00  0.00    +0.100 C 
ATOM      6  C   UNL     1       0.468  -4.239  -2.028  0.00  0.00    -0.004 C 
ATOM      7  C   UNL     1      -0.886  -4.067  -1.325  0.00  0.00    +0.115 C 
ATOM      8  C   UNL     1       0.390  -5.359  -3.061  0.00  0.00    -0.010 C 
ATOM      9  C   UNL     1       0.173  -6.694  -2.344  0.00  0.00    -0.082 C 
ATOM     10  N   UNL     1       1.280  -6.937  -1.412  0.00  0.00    +0.379 N 
ATOM     11  C   UNL     1       1.291  -5.906  -0.367  0.00  0.00    -0.082 C 
ATOM     12  C   UNL     1       1.556  -4.537  -1.001  0.00  0.00    -0.010 C 
ATOM     13  H   UNL     1       1.167  -7.844  -0.986  0.00  0.00    -0.086 HD
ATOM     14  H   UNL     1       2.154  -6.912  -1.916  0.00  0.00    -0.086 HD
ENDROOT
BRANCH   5  15
ATOM     15  C   UNL     1       0.858  -3.082  -4.212  0.00  0.00    +0.218 C 
ATOM     16  O   UNL     1      -0.130  -2.997  -4.910  0.00  0.00    -0.275 OA
ATOM     17  N   UNL     1       2.057  -3.344  -4.768  0.00  0.00    -0.311 N 
ATOM     18  H   UNL     1       2.847  -3.412  -4.209  0.00  0.00    +0.149 HD
BRANCH  17  19
ATOM     19  C   UNL     1       2.167  -3.527  -6.217  0.00  0.00    +0.147 C 
BRANCH  19  20
ATOM     20  C   UNL     1       3.603  -3.807  -6.580  0.00  0.00    +0.053 A 
ATOM     21  C   UNL     1       4.461  -2.758  -6.875  0.00  0.00    +0.132 A 
ATOM     22  C   UNL     1       5.782  -3.016  -7.209  0.00  0.00    +0.091 A 
ATOM     23  C   UNL     1       6.245  -4.323  -7.248  0.00  0.00    +0.127 A 
ATOM     24  C   UNL     1       5.388  -5.371  -6.952  0.00  0.00    +0.091 A 
ATOM     25  C   UNL     1       4.068  -5.114  -6.614  0.00  0.00    +0.132 A 
BRANCH  25  26
ATOM     26  O   UNL     1       3.228  -6.141  -6.319  0.00  0.00    -0.495 OA
ATOM     27  C   UNL     1       3.774  -7.460  -6.373  0.00  0.00    +0.277 C 
ENDBRANCH  25  26
BRANCH  23  28
ATOM     28  O   UNL     1       7.539  -4.575  -7.576  0.00  0.00    -0.495 OA
ATOM     29  C   UNL     1       7.948  -5.944  -7.596  0.00  0.00    +0.277 C 
ENDBRANCH  23  28
BRANCH  21  30
ATOM     30  O   UNL     1       4.007  -1.478  -6.838  0.00  0.00    -0.495 OA
ATOM     31  C   UNL     1       4.945  -0.448  -7.153  0.00  0.00    +0.277 C 
ENDBRANCH  21  30
ENDBRANCH  19  20
ENDBRANCH  17  19
ENDBRANCH   5  15
BRANCH   1  32
ATOM     32  C   UNL     1      -1.509  -0.448  -0.021  0.00  0.00    +0.261 C 
BRANCH  32  34
ATOM     33  C   UNL     1      -0.022   1.559   0.007  0.00  0.00    +0.011 C 
ATOM     34  C   UNL     1      -0.061   0.032   0.090  0.00  0.00    +0.033 C 
ATOM     35  C   UNL     1       0.525  -0.421   1.429  0.00  0.00    +0.011 C 
ENDBRANCH  32  34
BRANCH  32  36
ATOM     36  O   UNL     1      -2.250   0.006   1.113  0.00  0.00    -0.479 OA
BRANCH  36  37
ATOM     37  C   UNL     1      -2.927   1.177   0.980  0.00  0.00    +0.122 A 
ATOM     38  C   UNL     1      -2.955   1.827  -0.245  0.00  0.00    +0.045 A 
ATOM     39  C   UNL     1      -3.644   3.017  -0.378  0.00  0.00    +0.004 A 
ATOM     40  C   UNL     1      -4.304   3.561   0.709  0.00  0.00    +0.000 A 
ATOM     41  C   UNL     1      -4.277   2.915   1.931  0.00  0.00    +0.004 A 
ATOM     42  C   UNL     1      -3.594   1.721   2.067  0.00  0.00    +0.045 A 
ENDBRANCH  36  37
ENDBRANCH  32  36
ENDBRANCH   1  32
TORSDOF 10
