REMARK  Name = ZINC62960011
REMARK  2 active torsions:
REMARK  status: ('A' for Active; 'I' for Inactive)
REMARK    1  A    between atoms: C_14  and  C_16
REMARK    2  A    between atoms: C_17  and  C_18
REMARK                            x       y       z     vdW  Elec       q    Type
REMARK                         _______ _______ _______ _____ _____    ______ ____
ROOT
ATOM      1  C   UNL     1      -0.006   1.542   0.015  0.00  0.00    +0.001 C 
ATOM      2  C   UNL     1       1.491   1.940   0.002  0.00  0.00    +0.001 C 
ATOM      3  C   UNL     1       2.138   0.868   0.915  0.00  0.00    +0.007 C 
ATOM      4  C   UNL     1       1.372  -0.425   0.578  0.00  0.00    -0.026 C 
ATOM      5  C   UNL     1       0.012  -0.001   0.005  0.00  0.00    +0.007 C 
ATOM      6  C   UNL     1       2.149  -1.228  -0.463  0.00  0.00    +0.026 C 
ATOM      7  C   UNL     1       1.363  -2.494  -0.819  0.00  0.00    +0.110 C 
ATOM      8  N   UNL     1       1.058  -3.225   0.418  0.00  0.00    -0.285 N 
ATOM      9  C   UNL     1       0.376  -2.517   1.509  0.00  0.00    +0.110 C 
ATOM     10  C   UNL     1       1.170  -1.250   1.847  0.00  0.00    +0.026 C 
ATOM     11  C   UNL     1       1.399  -4.523   0.550  0.00  0.00    +0.309 C 
ATOM     12  O   UNL     1       1.879  -5.124  -0.391  0.00  0.00    -0.252 OA
ATOM     13  N   UNL     1       1.206  -5.154   1.725  0.00  0.00    -0.236 N 
ATOM     14  C   UNL     1       1.641  -6.419   1.890  0.00  0.00    +0.244 C 
ATOM     15  O   UNL     1       2.206  -6.991   0.979  0.00  0.00    -0.270 OA
ATOM     16  H   UNL     1       0.755  -4.698   2.452  0.00  0.00    +0.159 HD
ENDROOT
BRANCH  14  17
ATOM     17  C   UNL     1       1.429  -7.111   3.178  0.00  0.00    +0.075 C 
ATOM     18  C   UNL     1       1.862  -8.372   3.342  0.00  0.00    +0.101 C 
BRANCH  18  19
ATOM     19  C   UNL     1       1.651  -9.063   4.628  0.00  0.00    +0.380 C 
ATOM     20  O   UNL     1       1.082  -8.487   5.545  0.00  0.00    -0.241 OA
ATOM     21  O   UNL     1       2.046 -10.210   4.777  0.00  0.00    -0.241 OA
ENDBRANCH  18  19
ENDBRANCH  14  17
TORSDOF 2
