REMARK  Name = ZINC39654447
REMARK  10 active torsions:
REMARK  status: ('A' for Active; 'I' for Inactive)
REMARK    1  A    between atoms: C_1  and  C_2
REMARK    2  A    between atoms: C_2  and  C_3
REMARK    3  A    between atoms: C_6  and  C_9
REMARK    4  A    between atoms: C_9  and  C_10
REMARK    5  A    between atoms: C_10  and  N_11
REMARK    6  A    between atoms: C_12  and  C_14
REMARK    7  A    between atoms: C_25  and  C_27
REMARK    8  A    between atoms: C_27  and  C_29
REMARK    9  A    between atoms: C_27  and  C_31
REMARK   10  A    between atoms: C_29  and  C_30
REMARK                            x       y       z     vdW  Elec       q    Type
REMARK                         _______ _______ _______ _____ _____    ______ ____
ROOT
ATOM      1  C   UNL     1       5.261  -0.694   8.839  0.00  0.00    +0.100 C 
ATOM      2  C   UNL     1       6.471  -1.579   8.469  0.00  0.00    +0.121 C 
ATOM      3  N   UNL     1       7.603  -0.632   8.341  0.00  0.00    -0.300 N 
ATOM      4  C   UNL     1       7.397   0.340   9.442  0.00  0.00    +0.115 C 
ATOM      5  C   UNL     1       5.872   0.563   9.481  0.00  0.00    -0.004 C 
ATOM      6  C   UNL     1       5.396   0.705  10.924  0.00  0.00    -0.010 C 
ATOM      7  C   UNL     1       5.970   1.992  11.522  0.00  0.00    -0.082 C 
ATOM      8  N   UNL     1       5.530   3.143  10.725  0.00  0.00    +0.379 N 
ATOM      9  C   UNL     1       6.071   3.046   9.363  0.00  0.00    -0.082 C 
ATOM     10  C   UNL     1       5.500   1.803   8.674  0.00  0.00    -0.010 C 
ATOM     11  C   UNL     1       8.596  -0.649   7.430  0.00  0.00    +0.223 C 
ATOM     12  O   UNL     1       9.506   0.149   7.509  0.00  0.00    -0.275 OA
ATOM     13  H   UNL     1       4.522   3.158  10.685  0.00  0.00    -0.086 HD
ATOM     14  H   UNL     1       5.859   3.995  11.155  0.00  0.00    -0.086 HD
ENDROOT
BRANCH   1  16
ATOM     15  N   UNL     1       3.152  -0.117   7.680  0.00  0.00    -0.315 N 
ATOM     16  C   UNL     1       4.482  -0.325   7.603  0.00  0.00    +0.218 C 
ATOM     17  O   UNL     1       5.051  -0.216   6.538  0.00  0.00    -0.275 OA
ATOM     18  H   UNL     1       2.697  -0.205   8.532  0.00  0.00    +0.149 HD
BRANCH  15  19
ATOM     19  C   UNL     1       2.396   0.241   6.478  0.00  0.00    +0.109 C 
BRANCH  19  20
ATOM     20  C   UNL     1       0.919   0.419   6.839  0.00  0.00    +0.054 C 
BRANCH  20  24
ATOM     21  C   UNL     1      -1.289   1.463   3.335  0.00  0.00    -0.048 A 
ATOM     22  C   UNL     1      -1.126   0.134   3.679  0.00  0.00    +0.004 A 
ATOM     23  C   UNL     1      -0.411  -0.204   4.812  0.00  0.00    +0.004 A 
ATOM     24  C   UNL     1       0.141   0.787   5.603  0.00  0.00    -0.046 A 
ATOM     25  C   UNL     1      -0.022   2.116   5.259  0.00  0.00    +0.004 A 
ATOM     26  C   UNL     1      -0.734   2.454   4.123  0.00  0.00    +0.004 A 
BRANCH  21  28
ATOM     27  C   UNL     1      -1.121   1.898   0.900  0.00  0.00    +0.009 C 
ATOM     28  C   UNL     1      -2.069   1.832   2.099  0.00  0.00    +0.032 C 
ENDBRANCH  21  28
ENDBRANCH  20  24
ENDBRANCH  19  20
ENDBRANCH  15  19
ENDBRANCH   1  16
BRANCH  11  29
ATOM     29  C   UNL     1       8.576  -1.661   6.313  0.00  0.00    +0.105 C 
BRANCH  29  30
ATOM     30  C   UNL     1       7.957  -1.042   5.086  0.00  0.00    -0.036 A 
ATOM     31  C   UNL     1       8.534   0.074   4.509  0.00  0.00    +0.004 A 
ATOM     32  C   UNL     1       7.966   0.642   3.384  0.00  0.00    +0.000 A 
ATOM     33  C   UNL     1       6.822   0.092   2.835  0.00  0.00    +0.000 A 
ATOM     34  C   UNL     1       6.247  -1.024   3.411  0.00  0.00    +0.000 A 
ATOM     35  C   UNL     1       6.817  -1.594   4.534  0.00  0.00    +0.004 A 
ENDBRANCH  29  30
BRANCH  29  36
ATOM     36  C   UNL     1      10.008  -2.099   5.997  0.00  0.00    +0.014 C 
ATOM     37  C   UNL     1      10.586  -2.855   7.194  0.00  0.00    +0.005 C 
ENDBRANCH  29  36
ENDBRANCH  11  29
TORSDOF 8
