REMARK  Name = ZINC10537541
REMARK  4 active torsions:
REMARK  status: ('A' for Active; 'I' for Inactive)
REMARK    1  A    between atoms: C_1  and  C_2
REMARK    2  A    between atoms: C_10  and  C_12
REMARK    3  A    between atoms: C_12  and  N_13
REMARK    4  A    between atoms: C_21  and  C_23
REMARK                            x       y       z     vdW  Elec       q    Type
REMARK                         _______ _______ _______ _____ _____    ______ ____
ROOT
ATOM      1  N   UNL     1      -2.974   7.252   2.585  0.00  0.00    -0.218 N 
ATOM      2  C   UNL     1      -3.659   7.708   1.517  0.00  0.00    +0.247 C 
ATOM      3  O   UNL     1      -3.218   7.964   0.417  0.00  0.00    -0.273 OA
ATOM      4  C   UNL     1      -5.093   7.830   1.979  0.00  0.00    +0.115 C 
ATOM      5  C   UNL     1      -5.559   9.279   1.879  0.00  0.00    +0.035 C 
ATOM      6  C   UNL     1      -6.999   9.389   2.386  0.00  0.00    +0.003 C 
ATOM      7  C   UNL     1      -7.904   8.485   1.547  0.00  0.00    +0.000 C 
ATOM      8  C   UNL     1      -7.438   7.034   1.674  0.00  0.00    +0.006 C 
ATOM      9  C   UNL     1      -6.000   6.915   1.164  0.00  0.00    +0.018 C 
ATOM     10  C   UNL     1      -5.526   5.467   1.309  0.00  0.00    +0.010 C 
ATOM     11  N   UNL     1      -5.054   7.399   3.382  0.00  0.00    -0.285 N 
ATOM     12  C   UNL     1      -3.772   7.080   3.646  0.00  0.00    +0.310 C 
ATOM     13  O   UNL     1      -3.384   6.681   4.727  0.00  0.00    -0.252 OA
ATOM     14  H   UNL     1      -5.802   7.353   3.997  0.00  0.00    +0.151 HD
ENDROOT
BRANCH   1  15
ATOM     15  C   UNL     1      -1.534   6.983   2.587  0.00  0.00    +0.173 C 
BRANCH  15  25
ATOM     16  C   UNL     1      -0.013   1.086   0.008  0.00  0.00    +0.064 C 
ATOM     17  C   UNL     1      -0.718   1.572   1.248  0.00  0.00    +0.033 A 
ATOM     18  C   UNL     1      -1.200   0.685   2.118  0.00  0.00    +0.070 A 
ATOM     19  S   UNL     1      -1.915   1.746   3.364  0.00  0.00    -0.057 S 
ATOM     20  C   UNL     1      -1.504   3.303   2.606  0.00  0.00    +0.180 A 
ATOM     21  N   UNL     1      -0.849   2.922   1.465  0.00  0.00    -0.259 N 
ATOM     22  C   UNL     1      -0.407   3.928   0.652  0.00  0.00    +0.259 A 
ATOM     23  O   UNL     1       0.181   3.662  -0.384  0.00  0.00    -0.267 OA
ATOM     24  C   UNL     1      -0.624   5.259   1.010  0.00  0.00    +0.095 A 
ATOM     25  C   UNL     1      -1.289   5.552   2.182  0.00  0.00    +0.067 A 
ATOM     26  N   UNL     1      -1.711   4.550   2.949  0.00  0.00    -0.226 NA
ENDBRANCH  15  25
ENDBRANCH   1  15
TORSDOF 2
