REMARK  Name = ZINC12131386
REMARK  7 active torsions:
REMARK  status: ('A' for Active; 'I' for Inactive)
REMARK    1  A    between atoms: C_1  and  O_2
REMARK    2  A    between atoms: O_2  and  C_3
REMARK    3  A    between atoms: C_3  and  C_5
REMARK    4  A    between atoms: C_5  and  N_6
REMARK    5  A    between atoms: C_14  and  C_17
REMARK    6  A    between atoms: C_17  and  N_55
REMARK    7  A    between atoms: C_18  and  N_55
REMARK                            x       y       z     vdW  Elec       q    Type
REMARK                         _______ _______ _______ _____ _____    ______ ____
ROOT
ATOM      1  N   UNL     1      -2.430   0.973   0.019  0.00  0.00    -0.297 N 
ATOM      2  C   UNL     1      -2.935   0.518   1.218  0.00  0.00    +0.054 A 
ATOM      3  C   UNL     1      -2.414   0.963   2.429  0.00  0.00    +0.046 A 
ATOM      4  C   UNL     1      -2.939   0.492   3.614  0.00  0.00    +0.043 A 
ATOM      5  C   UNL     1      -3.983  -0.425   3.612  0.00  0.00    +0.021 A 
ATOM      6  C   UNL     1      -4.509  -0.876   2.435  0.00  0.00    +0.011 A 
ATOM      7  C   UNL     1      -3.993  -0.411   1.221  0.00  0.00    -0.001 A 
ATOM      8  C   UNL     1      -4.533  -0.874  -0.058  0.00  0.00    +0.017 A 
ATOM      9  C   UNL     1      -3.993  -0.389  -1.204  0.00  0.00    +0.001 A 
ATOM     10  C   UNL     1      -2.937   0.546  -1.151  0.00  0.00    +0.254 A 
ATOM     11  O   UNL     1      -2.469   0.973  -2.192  0.00  0.00    -0.267 OA
ATOM     12 CL   UNL     1      -2.288   1.050   5.124  0.00  0.00    -0.083 Cl
ENDROOT
BRANCH   1  13
ATOM     13  C   UNL     1      -1.329   1.940   0.019  0.00  0.00    +0.245 C 
BRANCH  13  14
ATOM     14  C   UNL     1      -0.014   1.204   0.009  0.00  0.00    +0.327 C 
ATOM     15  O   UNL     1       0.002  -0.004   0.002  0.00  0.00    -0.249 OA
BRANCH  14  17
ATOM     16  C   UNL     1       2.367   1.117  -0.015  0.00  0.00    +0.280 C 
ATOM     17  O   UNL     1       1.139   1.891   0.001  0.00  0.00    -0.467 OA
ENDBRANCH  14  17
ENDBRANCH  13  14
ENDBRANCH   1  13
BRANCH   9  18
ATOM     18  C   UNL     1      -4.526  -0.845  -2.537  0.00  0.00    -0.041 C 
BRANCH  18  19
ATOM     19  N   UNL     1      -5.533   0.124  -3.012  0.00  0.00    +0.386 N 
ATOM     20  H   UNL     1      -5.095   1.047  -3.109  0.00  0.00    -0.085 HD
ATOM     21  H   UNL     1      -6.298   0.178  -2.330  0.00  0.00    -0.085 HD
BRANCH  19  22
ATOM     22  C   UNL     1      -6.073  -0.298  -4.318  0.00  0.00    -0.067 C 
ATOM     23  C   UNL     1      -6.733  -1.672  -4.182  0.00  0.00    -0.009 C 
ATOM     24  C   UNL     1      -7.299  -2.102  -5.537  0.00  0.00    -0.012 C 
ATOM     25  C   UNL     1      -8.338  -1.081  -6.003  0.00  0.00    +0.007 C 
ATOM     26  C   UNL     1      -7.678   0.293  -6.139  0.00  0.00    -0.012 C 
ATOM     27  C   UNL     1      -7.112   0.723  -4.784  0.00  0.00    -0.009 C 
ATOM     28  C   UNL     1      -6.545   0.215  -7.163  0.00  0.00    +0.007 C 
ATOM     29  C   UNL     1      -5.505  -0.806  -6.697  0.00  0.00    -0.012 C 
ATOM     30  C   UNL     1      -6.165  -2.180  -6.562  0.00  0.00    +0.007 C 
ATOM     31  C   UNL     1      -4.939  -0.376  -5.343  0.00  0.00    -0.009 C 
ENDBRANCH  19  22
ENDBRANCH  18  19
ENDBRANCH   9  18
TORSDOF 6
