REMARK  Name = ZINC03496022
REMARK  7 active torsions:
REMARK  status: ('A' for Active; 'I' for Inactive)
REMARK    1  A    between atoms: C_1  and  C_2
REMARK    2  A    between atoms: C_2  and  N_3
REMARK    3  A    between atoms: C_7  and  C_9
REMARK    4  A    between atoms: C_9  and  C_11
REMARK    5  A    between atoms: C_9  and  S_12
REMARK    6  A    between atoms: S_12  and  C_13
REMARK    7  A    between atoms: C_24  and  C_26
REMARK                            x       y       z     vdW  Elec       q    Type
REMARK                         _______ _______ _______ _____ _____    ______ ____
ROOT
ATOM      1  C   UNL     1      -2.379  -4.556   0.628  0.00  0.00    +0.197 A 
ATOM      2  N   UNL     1      -1.245  -5.131   0.292  0.00  0.00    -0.122 NA
ATOM      3  N   UNL     1      -1.334  -6.406   0.432  0.00  0.00    -0.129 NA
ATOM      4  C   UNL     1      -2.538  -6.725   0.870  0.00  0.00    +0.162 A 
ATOM      5  N   UNL     1      -3.236  -5.546   1.011  0.00  0.00    -0.270 N 
ATOM      6  C   UNL     1      -4.548  -5.547   1.451  0.00  0.00    +0.058 A 
ATOM      7  C   UNL     1      -5.255  -4.360   1.589  0.00  0.00    +0.027 A 
ATOM      8  C   UNL     1      -6.560  -4.383   2.035  0.00  0.00    +0.002 A 
ATOM      9  C   UNL     1      -7.178  -5.585   2.348  0.00  0.00    +0.001 A 
ATOM     10  C   UNL     1      -6.495  -6.774   2.219  0.00  0.00    +0.010 A 
ATOM     11  C   UNL     1      -5.171  -6.766   1.769  0.00  0.00    +0.002 A 
ATOM     12  C   UNL     1      -4.419  -8.016   1.621  0.00  0.00    -0.038 A 
ATOM     13  C   UNL     1      -3.141  -7.967   1.182  0.00  0.00    +0.052 A 
ATOM     14  C   UNL     1      -5.061  -9.338   1.954  0.00  0.00    +0.044 C 
ENDROOT
BRANCH   1  15
ATOM     15  S   UNL     1      -2.725  -2.829   0.597  0.00  0.00    -0.073 S 
BRANCH  15  16
ATOM     16  C   UNL     1      -1.135  -2.201   0.001  0.00  0.00    +0.137 C 
ATOM     17  C   UNL     1      -0.892  -2.700  -1.425  0.00  0.00    +0.029 C 
BRANCH  16  22
ATOM     18  N   UNL     1       1.142   2.033   0.002  0.00  0.00    -0.299 N 
ATOM     19  C   UNL     1      -0.016   1.344   0.009  0.00  0.00    +0.306 C 
ATOM     20  O   UNL     1      -1.077   1.937   0.018  0.00  0.00    -0.252 OA
ATOM     21  N   UNL     1       0.002  -0.004   0.002  0.00  0.00    -0.239 N 
ATOM     22  C   UNL     1      -1.156  -0.694   0.009  0.00  0.00    +0.233 C 
ATOM     23  O   UNL     1      -2.214  -0.102   0.023  0.00  0.00    -0.274 OA
ATOM     24  H   UNL     1       1.988   1.560  -0.009  0.00  0.00    +0.150 HD
ATOM     25  H   UNL     1       0.849  -0.478  -0.009  0.00  0.00    +0.159 HD
BRANCH  18  27
ATOM     26  C   UNL     1       2.557   4.028  -0.001  0.00  0.00    +0.024 C 
ATOM     27  C   UNL     1       1.122   3.498   0.010  0.00  0.00    +0.102 C 
ENDBRANCH  18  27
ENDBRANCH  16  22
ENDBRANCH  15  16
ENDBRANCH   1  15
TORSDOF 4
