REMARK  Name = ZINC45821474
REMARK  5 active torsions:
REMARK  status: ('A' for Active; 'I' for Inactive)
REMARK    1  A    between atoms: C_1  and  C_2
REMARK    2  A    between atoms: C_3  and  O_10
REMARK    3  A    between atoms: C_4  and  C_8
REMARK    4  A    between atoms: C_4  and  C_9
REMARK    5  A    between atoms: O_10  and  C_11
REMARK                            x       y       z     vdW  Elec       q    Type
REMARK                         _______ _______ _______ _____ _____    ______ ____
ROOT
ATOM      1  C   UNL     1      -0.018   1.503   0.010  0.00  0.00    +0.073 C 
ATOM      2  C   UNL     1       0.002  -0.004   0.002  0.00  0.00    +0.120 C 
ATOM      3  C   UNL     1      -1.095  -0.784   0.003  0.00  0.00    +0.150 C 
ATOM      4  C   UNL     1      -0.533  -2.196  -0.007  0.00  0.00    +0.137 C 
ATOM      5  N   UNL     1       0.922  -1.969  -0.013  0.00  0.00    -0.156 NA
ATOM      6  N   UNL     1       1.116  -0.751  -0.013  0.00  0.00    -0.052 N 
ATOM      7  O   UNL     1       2.414  -0.185  -0.023  0.00  0.00    -0.145 OA
ATOM      8  C   UNL     1      -0.970  -2.943  -1.269  0.00  0.00    +0.046 C 
ATOM      9  C   UNL     1      -0.958  -2.957   1.250  0.00  0.00    +0.046 C 
ENDROOT
BRANCH   3  10
ATOM     10  O   UNL     1      -2.391  -0.402   0.012  0.00  0.00    -0.495 OA
ATOM     11  C   UNL     1      -2.652   1.003   0.020  0.00  0.00    +0.276 C 
ENDBRANCH   3  10
TORSDOF 1
