REMARK  Name = ZINC26540782
REMARK  13 active torsions:
REMARK  status: ('A' for Active; 'I' for Inactive)
REMARK    1  A    between atoms: C_1  and  C_2
REMARK    2  A    between atoms: C_2  and  C_3
REMARK    3  A    between atoms: C_3  and  N_4
REMARK    4  A    between atoms: N_4  and  C_5
REMARK    5  A    between atoms: C_8  and  S_25
REMARK    6  A    between atoms: C_10  and  N_11
REMARK    7  A    between atoms: N_11  and  S_12
REMARK    8  A    between atoms: S_12  and  C_15
REMARK    9  A    between atoms: C_16  and  C_24
REMARK   10  A    between atoms: C_17  and  C_23
REMARK   11  A    between atoms: C_19  and  C_22
REMARK   12  A    between atoms: C_20  and  C_21
REMARK   13  A    between atoms: S_25  and  N_28
REMARK                            x       y       z     vdW  Elec       q    Type
REMARK                         _______ _______ _______ _____ _____    ______ ____
ROOT
ATOM      1  C   UNL     1      -2.146  -2.371  -1.800  0.00  0.00    +0.050 A 
ATOM      2  C   UNL     1      -3.189  -1.515  -2.122  0.00  0.00    +0.027 A 
ATOM      3  C   UNL     1      -4.299  -1.438  -1.302  0.00  0.00    +0.030 A 
ATOM      4  C   UNL     1      -4.374  -2.212  -0.159  0.00  0.00    +0.107 A 
ATOM      5  C   UNL     1      -3.339  -3.068   0.171  0.00  0.00    +0.054 A 
ATOM      6  C   UNL     1      -2.224  -3.156  -0.650  0.00  0.00    +0.071 A 
ENDROOT
BRANCH   4   7
ATOM      7  S   UNL     1      -5.792  -2.107   0.882  0.00  0.00    +0.056 S 
ATOM      8  O   UNL     1      -5.378  -2.527   2.175  0.00  0.00    -0.153 OA
ATOM      9  O   UNL     1      -6.375  -0.833   0.646  0.00  0.00    -0.153 OA
BRANCH   7  10
ATOM     10  N   UNL     1      -6.879  -3.233   0.343  0.00  0.00    -0.204 NA
ATOM     11  H   UNL     1      -7.494  -3.651   0.966  0.00  0.00    +0.144 HD
ATOM     12  H   UNL     1      -6.901  -3.476  -0.596  0.00  0.00    +0.144 HD
ENDBRANCH   7  10
ENDBRANCH   4   7
BRANCH   1  13
ATOM     13  N   UNL     1      -1.022  -2.451  -2.630  0.00  0.00    -0.342 N 
ATOM     14  H   UNL     1      -0.295  -3.053  -2.405  0.00  0.00    +0.146 HD
BRANCH  13  15
ATOM     15  C   UNL     1      -0.942  -1.626  -3.837  0.00  0.00    +0.101 C 
BRANCH  15  17
ATOM     16  C   UNL     1       0.462  -1.041  -5.820  0.00  0.00    +0.005 C 
ATOM     17  C   UNL     1       0.379  -1.903  -4.559  0.00  0.00    +0.015 C 
ENDBRANCH  15  17
ENDBRANCH  13  15
ENDBRANCH   1  13
BRANCH   6  18
ATOM     18  N   UNL     1      -1.178  -4.026  -0.321  0.00  0.00    -0.214 N 
ATOM     19  H   UNL     1      -0.390  -3.687   0.133  0.00  0.00    +0.174 HD
BRANCH  18  20
ATOM     20  S   UNL     1      -1.285  -5.633  -0.707  0.00  0.00    +0.073 S 
ATOM     21  O   UNL     1      -0.035  -6.216  -0.366  0.00  0.00    -0.150 OA
ATOM     22  O   UNL     1      -2.515  -6.098  -0.170  0.00  0.00    -0.150 OA
BRANCH  20  23
ATOM     23  C   UNL     1      -1.429  -5.739  -2.460  0.00  0.00    +0.115 A 
ATOM     24  C   UNL     1      -0.311  -5.574  -3.257  0.00  0.00    -0.021 A 
ATOM     25  C   UNL     1      -0.424  -5.658  -4.632  0.00  0.00    -0.045 A 
ATOM     26  C   UNL     1      -1.655  -5.906  -5.210  0.00  0.00    +0.007 A 
ATOM     27  C   UNL     1      -2.772  -6.071  -4.414  0.00  0.00    -0.045 A 
ATOM     28  C   UNL     1      -2.658  -5.992  -3.038  0.00  0.00    -0.021 A 
ATOM     29  C   UNL     1      -3.876  -6.178  -2.170  0.00  0.00    +0.046 C 
ATOM     30  C   UNL     1      -4.114  -6.341  -5.044  0.00  0.00    +0.044 C 
ATOM     31  C   UNL     1       0.794  -5.477  -5.500  0.00  0.00    +0.044 C 
ATOM     32  C   UNL     1       1.031  -5.304  -2.626  0.00  0.00    +0.046 C 
ENDBRANCH  20  23
ENDBRANCH  18  20
ENDBRANCH   6  18
TORSDOF 8
