REMARK  Name = ZINC09723196
REMARK  7 active torsions:
REMARK  status: ('A' for Active; 'I' for Inactive)
REMARK    1  A    between atoms: C_1  and  C_2
REMARK    2  A    between atoms: C_2  and  C_3
REMARK    3  A    between atoms: C_3  and  N_4
REMARK    4  A    between atoms: C_10  and  S_11
REMARK    5  A    between atoms: S_11  and  C_12
REMARK    6  A    between atoms: C_12  and  C_14
REMARK    7  A    between atoms: C_12  and  C_15
REMARK                            x       y       z     vdW  Elec       q    Type
REMARK                         _______ _______ _______ _____ _____    ______ ____
ROOT
ATOM      1  C   UNL     1       4.025  -3.698  -0.688  0.00  0.00    +0.137 C 
ATOM      2  C   UNL     1       4.493  -4.456   0.556  0.00  0.00    +0.029 C 
ENDROOT
BRANCH   1   3
ATOM      3  C   UNL     1       5.218  -3.341  -1.537  0.00  0.00    +0.229 C 
ATOM      4  O   UNL     1       5.738  -2.251  -1.424  0.00  0.00    -0.274 OA
ATOM      5  N   UNL     1       5.706  -4.232  -2.422  0.00  0.00    -0.296 N 
ATOM      6  C   UNL     1       6.874  -3.916  -3.262  0.00  0.00    +0.113 C 
ATOM      7  C   UNL     1       8.003  -4.869  -2.873  0.00  0.00    +0.054 C 
ATOM      8  C   UNL     1       7.506  -6.288  -2.801  0.00  0.00    -0.041 A 
ATOM      9  C   UNL     1       8.449  -7.306  -2.886  0.00  0.00    +0.004 A 
ATOM     10  C   UNL     1       8.062  -8.628  -2.817  0.00  0.00    +0.000 A 
ATOM     11  C   UNL     1       6.726  -8.947  -2.661  0.00  0.00    +0.000 A 
ATOM     12  C   UNL     1       5.787  -7.938  -2.580  0.00  0.00    +0.005 A 
ATOM     13  C   UNL     1       6.175  -6.607  -2.655  0.00  0.00    -0.027 A 
ATOM     14  C   UNL     1       5.100  -5.558  -2.583  0.00  0.00    +0.143 C 
ENDBRANCH   1   3
BRANCH   1  15
ATOM     15  S   UNL     1       3.165  -2.182  -0.185  0.00  0.00    -0.074 S 
BRANCH  15  22
ATOM     16  N   UNL     1       0.762  -1.976   1.234  0.00  0.00    -0.271 N 
ATOM     17  C   UNL     1      -0.171  -2.780   1.779  0.00  0.00    +0.345 A 
ATOM     18  O   UNL     1      -1.178  -2.422   2.365  0.00  0.00    -0.245 OA
ATOM     19  N   UNL     1       0.211  -4.055   1.560  0.00  0.00    -0.226 N 
ATOM     20  H   UNL     1      -0.264  -4.854   1.838  0.00  0.00    +0.194 HD
ATOM     21  N   UNL     1       1.421  -4.014   0.854  0.00  0.00    -0.145 NA
ATOM     22  C   UNL     1       1.734  -2.765   0.662  0.00  0.00    +0.193 A 
BRANCH  16  23
ATOM     23  C   UNL     1       0.742  -0.511   1.242  0.00  0.00    +0.129 C 
BRANCH  23  25
ATOM     24  C   UNL     1      -0.019   1.526   0.010  0.00  0.00    +0.005 C 
ATOM     25  C   UNL     1       0.002  -0.004   0.002  0.00  0.00    +0.018 C 
ENDBRANCH  23  25
ENDBRANCH  16  23
ENDBRANCH  15  22
ENDBRANCH   1  15
TORSDOF 5
