REMARK  Name = ZINC20496958
REMARK  6 active torsions:
REMARK  status: ('A' for Active; 'I' for Inactive)
REMARK    1  A    between atoms: C_1  and  C_2
REMARK    2  A    between atoms: C_4  and  C_11
REMARK    3  A    between atoms: C_7  and  N_8
REMARK    4  A    between atoms: N_13  and  C_14
REMARK    5  A    between atoms: C_19  and  N_20
REMARK    6  A    between atoms: C_26  and  C_28
REMARK                            x       y       z     vdW  Elec       q    Type
REMARK                         _______ _______ _______ _____ _____    ______ ____
ROOT
ATOM      1  C   UNL     1       1.127   1.963   0.043  0.00  0.00    +0.056 A 
ATOM      2  C   UNL     1       1.062   3.325   0.297  0.00  0.00    +0.045 A 
ATOM      3  C   UNL     1       2.227   4.065   0.399  0.00  0.00    +0.043 A 
ATOM      4  C   UNL     1       3.457   3.451   0.240  0.00  0.00    +0.022 A 
ATOM      5  C   UNL     1       3.529   2.095  -0.018  0.00  0.00    +0.026 A 
ATOM      6  C   UNL     1       2.367   1.345  -0.117  0.00  0.00    +0.051 A 
ATOM      7 CL   UNL     1       2.144   5.769   0.722  0.00  0.00    -0.083 Cl
ENDROOT
BRANCH   6   8
ATOM      8  N   UNL     1       2.438  -0.028  -0.377  0.00  0.00    -0.325 N 
ATOM      9  C   UNL     1       3.102  -0.739   0.723  0.00  0.00    +0.124 C 
ATOM     10  C   UNL     1       2.999  -2.250   0.487  0.00  0.00    +0.127 C 
ATOM     11  N   UNL     1       3.525  -2.550  -0.853  0.00  0.00    -0.291 N 
ATOM     12  C   UNL     1       3.005  -1.779  -1.993  0.00  0.00    +0.127 C 
ATOM     13  C   UNL     1       3.107  -0.287  -1.659  0.00  0.00    +0.124 C 
ATOM     14  C   UNL     1       4.459  -3.505  -1.033  0.00  0.00    +0.320 C 
ATOM     15  O   UNL     1       4.881  -3.739  -2.145  0.00  0.00    -0.266 OA
BRANCH  14  16
ATOM     16  C   UNL     1       4.978  -4.283   0.149  0.00  0.00    +0.470 C 
ATOM     17  F   UNL     1       5.931  -5.210  -0.285  0.00  0.00    -0.162 F 
ATOM     18  F   UNL     1       5.566  -3.403   1.065  0.00  0.00    -0.162 F 
ATOM     19  F   UNL     1       3.918  -4.957   0.766  0.00  0.00    -0.162 F 
ENDBRANCH  14  16
ENDBRANCH   6   8
BRANCH   1  22
ATOM     20  C   UNL     1      -1.148   1.582   0.633  0.00  0.00    +0.248 C 
ATOM     21  O   UNL     1      -1.140   2.611   1.280  0.00  0.00    -0.270 OA
ATOM     22  N   UNL     1      -0.051   1.211  -0.056  0.00  0.00    -0.280 N 
ATOM     23  H   UNL     1      -0.080   0.317  -0.697  0.00  0.00    +0.155 HD
BRANCH  20  27
ATOM     24  C   UNL     1      -5.857   0.736   2.051  0.00  0.00    +0.046 C 
ATOM     25  C   UNL     1      -4.627   0.326   1.282  0.00  0.00    -0.020 A 
ATOM     26  C   UNL     1      -3.498   1.118   1.315  0.00  0.00    +0.018 A 
ATOM     27  C   UNL     1      -2.361   0.737   0.602  0.00  0.00    +0.037 A 
ATOM     28  C   UNL     1      -2.375  -0.443  -0.144  0.00  0.00    +0.015 A 
ATOM     29  C   UNL     1      -3.508  -1.229  -0.164  0.00  0.00    +0.034 A 
ATOM     30  C   UNL     1      -4.633  -0.845   0.545  0.00  0.00    +0.129 A 
BRANCH  30  31
ATOM     31  N   UNL     1      -5.847  -1.690   0.514  0.00  0.00    +0.057 N 
ATOM     32  O   UNL     1      -5.745  -2.904   0.516  0.00  0.00    -0.126 OA
ATOM     33  O   UNL     1      -6.949  -1.172   0.486  0.00  0.00    -0.126 OA
ENDBRANCH  30  31
ENDBRANCH  20  27
ENDBRANCH   1  22
TORSDOF 5
