REMARK  Name = ZINC62975597
REMARK  4 active torsions:
REMARK  status: ('A' for Active; 'I' for Inactive)
REMARK    1  A    between atoms: C_2  and  C_9
REMARK    2  A    between atoms: C_4  and  N_8
REMARK    3  A    between atoms: C_6  and  N_7
REMARK    4  A    between atoms: C_14  and  N_17
REMARK                            x       y       z     vdW  Elec       q    Type
REMARK                         _______ _______ _______ _____ _____    ______ ____
ROOT
ATOM      1  C   UNL     1       1.169   3.572   0.012  0.00  0.00    +0.247 C 
ATOM      2  O   UNL     1       0.113   4.168  -0.077  0.00  0.00    -0.270 OA
ATOM      3  N   UNL     1       2.324   4.259   0.105  0.00  0.00    -0.296 N 
ATOM      4  C   UNL     1       3.673   3.673   0.094  0.00  0.00    +0.109 C 
ATOM      5  C   UNL     1       4.680   4.838   0.196  0.00  0.00    +0.039 C 
ATOM      6  C   UNL     1       3.858   6.052  -0.311  0.00  0.00    +0.076 C 
ATOM      7  C   UNL     1       2.446   5.723   0.229  0.00  0.00    +0.127 C 
ENDROOT
BRANCH   1   9
ATOM      8  C   UNL     1      -0.014   1.381   0.077  0.00  0.00    +0.036 A 
ATOM      9  C   UNL     1       1.184   2.093   0.018  0.00  0.00    +0.040 A 
ATOM     10  C   UNL     1       2.398   1.407  -0.034  0.00  0.00    +0.036 A 
ATOM     11  C   UNL     1       2.409   0.020  -0.028  0.00  0.00    +0.027 A 
ATOM     12  C   UNL     1       1.214  -0.685   0.029  0.00  0.00    +0.045 A 
ATOM     13  C   UNL     1       0.005  -0.005   0.082  0.00  0.00    +0.027 A 
BRANCH  13  14
ATOM     14  N   UNL     1      -1.195  -0.719   0.141  0.00  0.00    -0.358 N 
ATOM     15  H   UNL     1      -2.040  -0.245   0.177  0.00  0.00    +0.142 HD
ATOM     16  H   UNL     1      -1.183  -1.689   0.145  0.00  0.00    +0.142 HD
ENDBRANCH  13  14
BRANCH  11  17
ATOM     17  N   UNL     1       3.624  -0.668  -0.081  0.00  0.00    -0.358 N 
ATOM     18  H   UNL     1       4.458  -0.176  -0.122  0.00  0.00    +0.142 HD
ATOM     19  H   UNL     1       3.632  -1.638  -0.077  0.00  0.00    +0.142 HD
ENDBRANCH  11  17
ENDBRANCH   1   9
BRANCH   6  20
ATOM     20  N   UNL     1       4.365   7.306   0.262  0.00  0.00    -0.294 NA
ATOM     21  C   UNL     1       3.469   8.429  -0.053  0.00  0.00    +0.113 C 
ATOM     22  C   UNL     1       4.002   9.701   0.611  0.00  0.00    +0.175 C 
ATOM     23  O   UNL     1       5.342   9.938   0.172  0.00  0.00    -0.377 OA
ATOM     24  C   UNL     1       6.241   8.865   0.463  0.00  0.00    +0.175 C 
ATOM     25  C   UNL     1       5.731   7.584  -0.203  0.00  0.00    +0.113 C 
ENDBRANCH   6  20
TORSDOF 4
