REMARK  Name = ZINC20547276
REMARK  6 active torsions:
REMARK  status: ('A' for Active; 'I' for Inactive)
REMARK    1  A    between atoms: C_4  and  N_7
REMARK    2  A    between atoms: C_16  and  N_20
REMARK    3  A    between atoms: N_21  and  C_22
REMARK    4  A    between atoms: C_22  and  C_23
REMARK    5  A    between atoms: C_23  and  C_24
REMARK    6  A    between atoms: C_24  and  N_25
REMARK                            x       y       z     vdW  Elec       q    Type
REMARK                         _______ _______ _______ _____ _____    ______ ____
ROOT
ATOM      1  N   UNL     1       2.841  -0.442  -2.476  0.00  0.00    +0.385 N 
ATOM      2  C   UNL     1       2.873  -1.913  -2.480  0.00  0.00    -0.073 C 
ATOM      3  C   UNL     1       3.327  -2.383  -3.863  0.00  0.00    +0.018 C 
ATOM      4  C   UNL     1       4.583  -1.658  -4.263  0.00  0.00    -0.030 A 
ATOM      5  C   UNL     1       4.992  -0.527  -3.637  0.00  0.00    -0.020 A 
ATOM      6  C   UNL     1       6.171   0.121  -4.053  0.00  0.00    +0.123 A 
ATOM      7  N   UNL     1       6.918  -0.325  -5.036  0.00  0.00    -0.211 NA
ATOM      8  C   UNL     1       6.588  -1.442  -5.707  0.00  0.00    +0.185 A 
ATOM      9  C   UNL     1       5.366  -2.164  -5.322  0.00  0.00    +0.063 A 
ATOM     10  C   UNL     1       5.274  -3.264  -6.171  0.00  0.00    +0.121 A 
ATOM     11  N   UNL     1       6.333  -3.227  -6.997  0.00  0.00    -0.262 N 
ATOM     12  N   UNL     1       7.127  -2.113  -6.706  0.00  0.00    -0.152 NA
ATOM     13  H   UNL     1       6.519  -3.877  -7.692  0.00  0.00    +0.190 HD
ATOM     14  N   UNL     1       6.559   1.279  -3.396  0.00  0.00    -0.329 N 
ATOM     15  C   UNL     1       4.216   0.065  -2.489  0.00  0.00    -0.039 C 
ATOM     16  H   UNL     1       6.022   1.627  -2.667  0.00  0.00    +0.147 HD
ATOM     17  H   UNL     1       2.352  -0.111  -3.295  0.00  0.00    -0.081 HD
ENDROOT
BRANCH   1  21
ATOM     18  C   UNL     1      -0.019   1.526   0.010  0.00  0.00    -0.000 C 
ATOM     19  C   UNL     1       1.417   2.055  -0.000  0.00  0.00    -0.002 C 
ATOM     20  C   UNL     1       2.133   1.562  -1.259  0.00  0.00    -0.015 C 
ATOM     21  C   UNL     1       2.154   0.032  -1.268  0.00  0.00    -0.068 C 
ATOM     22  C   UNL     1       0.718  -0.497  -1.257  0.00  0.00    -0.015 C 
ATOM     23  C   UNL     1       0.002  -0.004   0.002  0.00  0.00    -0.002 C 
ENDBRANCH   1  21
BRANCH  10  24
ATOM     24  N   UNL     1       4.274  -4.221  -6.164  0.00  0.00    -0.343 N 
ATOM     25  H   UNL     1       3.548  -4.159  -5.524  0.00  0.00    +0.144 HD
ATOM     26  H   UNL     1       4.300  -4.953  -6.799  0.00  0.00    +0.144 HD
ENDBRANCH  10  24
BRANCH  14  27
ATOM     27  C   UNL     1       7.780   1.978  -3.804  0.00  0.00    +0.104 C 
BRANCH  27  28
ATOM     28  C   UNL     1       7.977   3.216  -2.926  0.00  0.00    +0.034 C 
BRANCH  28  29
ATOM     29  C   UNL     1       9.253   3.945  -3.352  0.00  0.00    +0.086 C 
BRANCH  29  30
ATOM     30  N   UNL     1       9.442   5.133  -2.509  0.00  0.00    -0.298 NA
ATOM     31  C   UNL     1       8.383   6.124  -2.749  0.00  0.00    +0.112 C 
ATOM     32  C   UNL     1       8.584   7.316  -1.810  0.00  0.00    +0.175 C 
ATOM     33  O   UNL     1       9.891   7.861  -2.012  0.00  0.00    -0.377 OA
ATOM     34  C   UNL     1      10.947   6.923  -1.786  0.00  0.00    +0.175 C 
ATOM     35  C   UNL     1      10.770   5.727  -2.725  0.00  0.00    +0.112 C 
ENDBRANCH  29  30
ENDBRANCH  28  29
ENDBRANCH  27  28
ENDBRANCH  14  27
TORSDOF 6
