REMARK  Name = ZINC49549617
REMARK  2 active torsions:
REMARK  status: ('A' for Active; 'I' for Inactive)
REMARK    1  A    between atoms: C_1  and  N_2
REMARK    2  A    between atoms: C_8  and  C_14
REMARK                            x       y       z     vdW  Elec       q    Type
REMARK                         _______ _______ _______ _____ _____    ______ ____
ROOT
ATOM      1  C   UNL     1      -0.018   1.461   0.010  0.00  0.00    +0.127 C 
ATOM      2  N   UNL     1       0.002  -0.004   0.002  0.00  0.00    -0.326 N 
ATOM      3  C   UNL     1       0.602  -0.683  -1.047  0.00  0.00    +0.160 A 
ATOM      4  N   UNL     1       1.202  -0.183  -2.108  0.00  0.00    -0.210 NA
ATOM      5  C   UNL     1       1.734  -0.963  -3.041  0.00  0.00    +0.138 A 
ATOM      6  C   UNL     1       1.615  -2.304  -2.806  0.00  0.00    +0.041 A 
ATOM      7  S   UNL     1       0.745  -2.349  -1.269  0.00  0.00    -0.055 S 
ATOM      8  C   UNL     1       2.131  -3.395  -3.677  0.00  0.00    +0.069 C 
ATOM      9  C   UNL     1       2.186  -2.870  -5.119  0.00  0.00    +0.109 C 
ATOM     10  C   UNL     1       2.710  -1.462  -5.151  0.00  0.00    +0.219 C 
ATOM     11  O   UNL     1       3.441  -1.139  -6.064  0.00  0.00    -0.275 OA
ATOM     12  N   UNL     1       2.408  -0.543  -4.217  0.00  0.00    -0.270 N 
ATOM     13  H   UNL     1      -0.404  -0.499   0.731  0.00  0.00    +0.148 HD
ATOM     14  H   UNL     1       2.645   0.389  -4.345  0.00  0.00    +0.156 HD
ENDROOT
BRANCH   8  15
ATOM     15  C   UNL     1       3.513  -3.794  -3.227  0.00  0.00    -0.020 A 
ATOM     16  C   UNL     1       4.534  -2.861  -3.218  0.00  0.00    +0.008 A 
ATOM     17  C   UNL     1       5.801  -3.226  -2.806  0.00  0.00    +0.039 A 
ATOM     18  C   UNL     1       6.050  -4.527  -2.402  0.00  0.00    +0.125 A 
ATOM     19  C   UNL     1       5.028  -5.461  -2.410  0.00  0.00    +0.058 A 
ATOM     20  C   UNL     1       3.759  -5.093  -2.818  0.00  0.00    +0.047 A 
ATOM     21 CL   UNL     1       2.475  -6.262  -2.823  0.00  0.00    -0.083 Cl
ATOM     22  F   UNL     1       7.289  -4.885  -1.999  0.00  0.00    -0.205 F 
ENDBRANCH   8  15
TORSDOF 1
