REMARK  Name = ZINC11998598
REMARK  6 active torsions:
REMARK  status: ('A' for Active; 'I' for Inactive)
REMARK    1  A    between atoms: C_3  and  C_6
REMARK    2  A    between atoms: C_6  and  C_8
REMARK    3  A    between atoms: C_6  and  N_58
REMARK    4  A    between atoms: C_8  and  N_9
REMARK    5  A    between atoms: C_10  and  C_12
REMARK    6  A    between atoms: C_15  and  N_18
REMARK                            x       y       z     vdW  Elec       q    Type
REMARK                         _______ _______ _______ _____ _____    ______ ____
ROOT
ATOM      1  N   UNL     1       8.647   0.248   2.427  0.00  0.00    -0.312 N 
ATOM      2  C   UNL     1       8.134  -0.686   1.603  0.00  0.00    +0.244 C 
ATOM      3  O   UNL     1       8.814  -1.633   1.258  0.00  0.00    -0.270 OA
ATOM      4  H   UNL     1       8.104   1.004   2.702  0.00  0.00    +0.149 HD
ENDROOT
BRANCH   2   5
ATOM      5  C   UNL     1       6.746  -0.559   1.117  0.00  0.00    +0.037 A 
ATOM      6  C   UNL     1       6.212  -1.527   0.262  0.00  0.00    +0.015 A 
ATOM      7  C   UNL     1       4.917  -1.405  -0.189  0.00  0.00    +0.026 A 
ATOM      8  C   UNL     1       4.140  -0.321   0.206  0.00  0.00    +0.059 A 
ATOM      9  C   UNL     1       4.670   0.647   1.053  0.00  0.00    +0.026 A 
ATOM     10  C   UNL     1       5.962   0.529   1.512  0.00  0.00    +0.015 A 
BRANCH   8  11
ATOM     11  N   UNL     1       2.828  -0.201  -0.253  0.00  0.00    -0.144 N 
ATOM     12  C   UNL     1       2.039  -1.207  -0.659  0.00  0.00    +0.240 C 
ATOM     13  O   UNL     1       2.429  -2.355  -0.623  0.00  0.00    -0.274 OA
ATOM     14  C   UNL     1       0.664  -0.880  -1.158  0.00  0.00    +0.122 C 
ATOM     15  C   UNL     1       0.275   0.533  -0.650  0.00  0.00    +0.198 C 
ATOM     16  S   UNL     1       1.961   1.224  -0.395  0.00  0.00    +0.052 S 
ATOM     17  O   UNL     1       2.438   1.848  -1.579  0.00  0.00    -0.155 OA
ATOM     18  O   UNL     1       2.061   1.863   0.871  0.00  0.00    -0.155 OA
ENDBRANCH   8  11
ENDBRANCH   2   5
BRANCH   1  19
ATOM     19  C   UNL     1      10.025   0.123   2.909  0.00  0.00    +0.097 C 
BRANCH  19  20
ATOM     20  C   UNL     1      10.356   1.305   3.822  0.00  0.00    +0.016 C 
BRANCH  20  27
ATOM     21  C   UNL     1      10.858   2.618   1.840  0.00  0.00    -0.078 C 
ATOM     22  C   UNL     1      10.842   3.985   1.210  0.00  0.00    -0.019 C 
ATOM     23  C   UNL     1      12.099   4.752   1.673  0.00  0.00    -0.002 C 
ATOM     24  C   UNL     1      11.952   5.285   3.023  0.00  0.00    -0.002 C 
ATOM     25  C   UNL     1      11.732   4.171   4.068  0.00  0.00    -0.019 C 
ATOM     26  C   UNL     1      10.296   3.728   3.998  0.00  0.00    -0.078 C 
ATOM     27  N   UNL     1      10.044   2.549   3.101  0.00  0.00    +0.387 N 
ATOM     28  H   UNL     1       9.050   2.544   2.845  0.00  0.00    -0.081 HD
ENDBRANCH  20  27
BRANCH  20  31
ATOM     29  C   UNL     1      13.687   1.078   5.383  0.00  0.00    +0.041 A 
ATOM     30  C   UNL     1      12.276   1.083   5.470  0.00  0.00    +0.043 A 
ATOM     31  C   UNL     1      11.809   1.242   4.219  0.00  0.00    +0.093 A 
ATOM     32  O   UNL     1      12.856   1.341   3.384  0.00  0.00    -0.469 OA
ATOM     33  C   UNL     1      13.998   1.242   4.084  0.00  0.00    +0.195 A 
ENDBRANCH  20  31
ENDBRANCH  19  20
ENDBRANCH   1  19
TORSDOF 6
