REMARK  Name = ZINC20627994
REMARK  7 active torsions:
REMARK  status: ('A' for Active; 'I' for Inactive)
REMARK    1  A    between atoms: C_1  and  C_2
REMARK    2  A    between atoms: C_2  and  C_3
REMARK    3  A    between atoms: C_2  and  N_4
REMARK    4  A    between atoms: C_13  and  C_15
REMARK    5  A    between atoms: N_17  and  N_18
REMARK    6  A    between atoms: N_18  and  S_19
REMARK    7  A    between atoms: S_19  and  C_22
REMARK                            x       y       z     vdW  Elec       q    Type
REMARK                         _______ _______ _______ _____ _____    ______ ____
ROOT
ATOM      1  C   UNL     1      -1.187   1.624   0.017  0.00  0.00    +0.279 C 
ATOM      2  O   UNL     1      -1.204   2.840   0.023  0.00  0.00    -0.267 OA
ATOM      3  N   UNL     1      -0.011   0.966   0.007  0.00  0.00    -0.226 N 
ATOM      4  H   UNL     1       0.004  -0.134   0.006  0.00  0.00    +0.171 HD
ENDROOT
BRANCH   1  14
ATOM      5  N   UNL     1      -3.499  -1.170   0.013  0.00  0.00    -0.226 N 
ATOM      6  C   UNL     1      -4.752  -0.668   0.022  0.00  0.00    +0.275 A 
ATOM      7  O   UNL     1      -5.719  -1.407   0.022  0.00  0.00    -0.266 OA
ATOM      8  C   UNL     1      -4.921   0.792   0.031  0.00  0.00    +0.050 A 
ATOM      9  C   UNL     1      -6.168   1.408   0.041  0.00  0.00    +0.014 A 
ATOM     10  C   UNL     1      -6.241   2.785   0.049  0.00  0.00    +0.001 A 
ATOM     11  C   UNL     1      -5.087   3.557   0.048  0.00  0.00    +0.001 A 
ATOM     12  C   UNL     1      -3.841   2.965   0.038  0.00  0.00    +0.011 A 
ATOM     13  C   UNL     1      -3.745   1.578   0.035  0.00  0.00    +0.020 A 
ATOM     14  C   UNL     1      -2.456   0.868   0.018  0.00  0.00    +0.155 A 
ATOM     15  N   UNL     1      -2.447  -0.443   0.011  0.00  0.00    -0.163 NA
BRANCH   5  17
ATOM     16  C   UNL     1      -2.569  -3.046  -1.251  0.00  0.00    +0.032 C 
ATOM     17  C   UNL     1      -3.336  -2.626   0.004  0.00  0.00    +0.105 C 
ATOM     18  C   UNL     1      -2.557  -3.058   1.248  0.00  0.00    +0.032 C 
ENDBRANCH   5  17
ENDBRANCH   1  14
BRANCH   3  19
ATOM     19  N   UNL     1       1.193   1.683  -0.000  0.00  0.00    -0.108 NA
ATOM     20  H   UNL     1       1.356   2.349  -0.686  0.00  0.00    +0.172 HD
BRANCH  19  21
ATOM     21  S   UNL     1       2.336   1.393   1.162  0.00  0.00    +0.076 S 
ATOM     22  O   UNL     1       3.480   2.157   0.805  0.00  0.00    -0.152 OA
ATOM     23  O   UNL     1       1.685   1.538   2.417  0.00  0.00    -0.152 OA
BRANCH  21  24
ATOM     24  C   UNL     1       2.799  -0.301   1.027  0.00  0.00    +0.145 A 
ATOM     25  C   UNL     1       4.086  -0.638   0.650  0.00  0.00    +0.069 A 
ATOM     26  C   UNL     1       4.451  -1.969   0.547  0.00  0.00    +0.125 A 
ATOM     27  C   UNL     1       3.525  -2.963   0.813  0.00  0.00    +0.041 A 
ATOM     28  C   UNL     1       2.237  -2.627   1.185  0.00  0.00    +0.043 A 
ATOM     29  C   UNL     1       1.873  -1.295   1.292  0.00  0.00    +0.150 A 
ATOM     30  F   UNL     1       0.615  -0.966   1.656  0.00  0.00    -0.203 F 
ATOM     31  F   UNL     1       5.710  -2.298   0.183  0.00  0.00    -0.205 F 
ENDBRANCH  21  24
ENDBRANCH  19  21
ENDBRANCH   3  19
TORSDOF 5
