REMARK  Name = ZINC03082600
REMARK  7 active torsions:
REMARK  status: ('A' for Active; 'I' for Inactive)
REMARK    1  A    between atoms: C_1  and  C_2
REMARK    2  A    between atoms: C_2  and  C_3
REMARK    3  A    between atoms: C_2  and  C_4
REMARK    4  A    between atoms: C_2  and  N_5
REMARK    5  A    between atoms: C_6  and  C_8
REMARK    6  A    between atoms: N_10  and  N_11
REMARK    7  A    between atoms: C_12  and  C_13
REMARK                            x       y       z     vdW  Elec       q    Type
REMARK                         _______ _______ _______ _____ _____    ______ ____
ROOT
ATOM      1  C   UNL     1      -3.526   1.651   0.028  0.00  0.00    +0.318 C 
ATOM      2  O   UNL     1      -3.543   2.866   0.034  0.00  0.00    -0.263 OA
ATOM      3  N   UNL     1      -2.350   0.993   0.019  0.00  0.00    -0.199 N 
ATOM      4  H   UNL     1      -2.337   0.023   0.013  0.00  0.00    +0.178 HD
ENDROOT
BRANCH   1   6
ATOM      5  N   UNL     1      -5.984   1.546   0.039  0.00  0.00    -0.303 N 
ATOM      6  C   UNL     1      -4.808   0.888   0.030  0.00  0.00    +0.301 C 
ATOM      7  O   UNL     1      -4.792  -0.326   0.023  0.00  0.00    -0.265 OA
ATOM      8  H   UNL     1      -5.997   2.516   0.044  0.00  0.00    +0.150 HD
BRANCH   5  10
ATOM      9  C   UNL     1      -7.306  -0.091   1.286  0.00  0.00    +0.031 C 
ATOM     10  C   UNL     1      -7.243   0.796   0.041  0.00  0.00    +0.027 C 
ATOM     11  C   UNL     1      -8.419   1.774   0.052  0.00  0.00    +0.031 C 
ATOM     12  C   UNL     1      -7.318  -0.078  -1.213  0.00  0.00    +0.031 C 
ENDBRANCH   5  10
ENDBRANCH   1   6
BRANCH   3  13
ATOM     13  N   UNL     1      -1.147   1.710   0.017  0.00  0.00    -0.187 NA
ATOM     14  C   UNL     1      -0.013   1.076   0.008  0.00  0.00    +0.139 C 
BRANCH  14  15
ATOM     15  C   UNL     1       1.253   1.830  -0.000  0.00  0.00    +0.012 A 
ATOM     16  C   UNL     1       2.474   1.149  -0.010  0.00  0.00    +0.060 A 
ATOM     17  C   UNL     1       3.659   1.860  -0.023  0.00  0.00    +0.167 A 
ATOM     18  C   UNL     1       3.635   3.255  -0.015  0.00  0.00    +0.167 A 
ATOM     19  C   UNL     1       2.424   3.931   0.000  0.00  0.00    +0.065 A 
ATOM     20  C   UNL     1       1.236   3.228   0.008  0.00  0.00    +0.030 A 
ATOM     21 BR   UNL     1      -0.412   4.154   0.029  0.00  0.00    -0.050 Br
ATOM     22  O   UNL     1       4.921   3.712  -0.025  0.00  0.00    -0.453 OA
ATOM     23  C   UNL     1       5.723   2.595  -0.451  0.00  0.00    +0.466 C 
ATOM     24  O   UNL     1       4.960   1.447  -0.037  0.00  0.00    -0.453 OA
ENDBRANCH  14  15
ENDBRANCH   3  13
TORSDOF 4
