REMARK  Name = ZINC38672377
REMARK  9 active torsions:
REMARK  status: ('A' for Active; 'I' for Inactive)
REMARK    1  A    between atoms: C_1  and  N_2
REMARK    2  A    between atoms: N_5  and  C_8
REMARK    3  A    between atoms: C_8  and  C_10
REMARK    4  A    between atoms: C_8  and  C_24
REMARK    5  A    between atoms: C_10  and  N_11
REMARK    6  A    between atoms: C_12  and  C_14
REMARK    7  A    between atoms: C_14  and  C_15
REMARK    8  A    between atoms: C_18  and  N_21
REMARK    9  A    between atoms: N_32  and  C_33
REMARK                            x       y       z     vdW  Elec       q    Type
REMARK                         _______ _______ _______ _____ _____    ______ ____
ROOT
ATOM      1  C   UNL     1       1.463  -3.975  -0.029  0.00  0.00    +0.104 C 
ENDROOT
BRANCH   1   2
ATOM      2  C   UNL     1       2.191  -4.579   1.145  0.00  0.00    -0.028 A 
ATOM      3  C   UNL     1       3.377  -4.020   1.587  0.00  0.00    +0.007 A 
ATOM      4  C   UNL     1       4.045  -4.569   2.659  0.00  0.00    +0.024 A 
ATOM      5  C   UNL     1       3.532  -5.694   3.308  0.00  0.00    +0.033 A 
ATOM      6  C   UNL     1       2.343  -6.247   2.857  0.00  0.00    -0.025 A 
ATOM      7  C   UNL     1       1.674  -5.689   1.785  0.00  0.00    +0.010 A 
ATOM      8  C   UNL     1       2.010  -7.442   3.722  0.00  0.00    +0.056 C 
ATOM      9  C   UNL     1       3.161  -7.516   4.738  0.00  0.00    +0.109 C 
ATOM     10  N   UNL     1       4.045  -6.397   4.399  0.00  0.00    -0.332 N 
ATOM     11  C   UNL     1       5.287  -6.066   5.103  0.00  0.00    +0.129 C 
ENDBRANCH   1   2
BRANCH   1  16
ATOM     12  C   UNL     1       0.524   1.571   0.294  0.00  0.00    -0.096 C 
ATOM     13  N   UNL     1       0.402   0.109   0.212  0.00  0.00    +0.379 N 
ATOM     14  C   UNL     1       1.042  -0.366  -1.022  0.00  0.00    -0.064 C 
ATOM     15  C   UNL     1       0.898  -1.887  -1.117  0.00  0.00    +0.066 C 
ATOM     16  N   UNL     1       1.530  -2.510   0.054  0.00  0.00    -0.297 NA
ATOM     17  C   UNL     1       0.917  -2.024   1.298  0.00  0.00    +0.066 C 
ATOM     18  C   UNL     1       1.060  -0.503   1.374  0.00  0.00    -0.064 C 
ATOM     19  H   UNL     1      -0.574  -0.146   0.205  0.00  0.00    -0.082 HD
ENDBRANCH   1  16
BRANCH   1  20
ATOM     20  C   UNL     1       2.117  -4.443  -1.330  0.00  0.00    +0.127 C 
BRANCH  20  21
ATOM     21  N   UNL     1       1.979  -5.897  -1.451  0.00  0.00    -0.313 N 
ATOM     22  C   UNL     1       2.577  -6.548  -2.469  0.00  0.00    +0.217 C 
ATOM     23  O   UNL     1       3.229  -5.931  -3.284  0.00  0.00    -0.275 OA
ATOM     24  H   UNL     1       1.457  -6.390  -0.799  0.00  0.00    +0.149 HD
BRANCH  22  25
ATOM     25  C   UNL     1       2.435  -8.043  -2.593  0.00  0.00    +0.130 C 
BRANCH  25  26
ATOM     26  C   UNL     1       3.193  -8.520  -3.805  0.00  0.00    -0.038 A 
ATOM     27  C   UNL     1       2.563  -8.585  -5.033  0.00  0.00    +0.006 A 
ATOM     28  C   UNL     1       3.258  -9.023  -6.145  0.00  0.00    +0.033 A 
ATOM     29  C   UNL     1       4.584  -9.396  -6.028  0.00  0.00    +0.126 A 
ATOM     30  C   UNL     1       5.215  -9.330  -4.800  0.00  0.00    +0.033 A 
ATOM     31  C   UNL     1       4.521  -8.888  -3.689  0.00  0.00    +0.006 A 
BRANCH  29  32
ATOM     32  N   UNL     1       5.328  -9.866  -7.218  0.00  0.00    +0.056 N 
ATOM     33  O   UNL     1       4.777  -9.923  -8.292  0.00  0.00    -0.126 OA
ATOM     34  O   UNL     1       6.488 -10.191  -7.116  0.00  0.00    -0.126 OA
ENDBRANCH  29  32
ENDBRANCH  25  26
ENDBRANCH  22  25
ENDBRANCH  20  21
ENDBRANCH   1  20
TORSDOF 7
