REMARK  Name = ZINC66738760
REMARK  0 active torsions:
REMARK  status: ('A' for Active; 'I' for Inactive)
REMARK                            x       y       z     vdW  Elec       q    Type
REMARK                         _______ _______ _______ _____ _____    ______ ____
ROOT
ATOM      1  C   UNL     1      -0.017   1.379   0.010  0.00  0.00    +0.002 A 
ATOM      2  C   UNL     1       1.147   2.128   0.003  0.00  0.00    +0.002 A 
ATOM      3  C   UNL     1       2.401   1.538  -0.013  0.00  0.00    +0.028 A 
ATOM      4  C   UNL     1       2.448   0.149  -0.021  0.00  0.00    +0.071 A 
ATOM      5  C   UNL     1       1.258  -0.623  -0.013  0.00  0.00    +0.066 A 
ATOM      6  C   UNL     1       0.002  -0.004   0.002  0.00  0.00    +0.028 A 
ATOM      7  N   UNL     1       1.615  -1.922  -0.024  0.00  0.00    -0.324 N 
ATOM      8  C   UNL     1       2.923  -2.015  -0.028  0.00  0.00    +0.214 A 
ATOM      9  N   UNL     1       3.478  -0.744  -0.038  0.00  0.00    -0.276 N 
ATOM     10  C   UNL     1       4.926  -0.546  -0.071  0.00  0.00    +0.221 C 
ATOM     11  C   UNL     1       5.406  -0.200  -1.441  0.00  0.00    +0.030 A 
ATOM     12  C   UNL     1       5.337  -0.882  -2.638  0.00  0.00    +0.051 A 
ATOM     13  C   UNL     1       5.894  -0.264  -3.752  0.00  0.00    +0.159 A 
ATOM     14  C   UNL     1       6.491   0.982  -3.661  0.00  0.00    +0.160 A 
ATOM     15  C   UNL     1       6.564   1.673  -2.459  0.00  0.00    +0.065 A 
ATOM     16  C   UNL     1       6.007   1.061  -1.336  0.00  0.00    +0.044 A 
ATOM     17  N   UNL     1       5.940   1.518  -0.030  0.00  0.00    -0.281 N 
ATOM     18  C   UNL     1       5.320   0.637   0.783  0.00  0.00    +0.267 C 
ATOM     19  O   UNL     1       5.118   0.769   1.972  0.00  0.00    -0.271 OA
ATOM     20  F   UNL     1       7.018   1.541  -4.772  0.00  0.00    -0.202 F 
ATOM     21  F   UNL     1       5.852  -0.891  -4.948  0.00  0.00    -0.202 F 
ATOM     22  N   UNL     1       5.563  -1.769   0.429  0.00  0.00    -0.283 N 
ATOM     23  C   UNL     1       5.002  -2.990   0.157  0.00  0.00    +0.183 C 
ATOM     24  N   UNL     1       3.701  -3.122  -0.037  0.00  0.00    -0.184 NA
ATOM     25  N   UNL     1       5.806  -4.096   0.085  0.00  0.00    -0.331 N 
ATOM     26  H   UNL     1       6.297   2.370   0.266  0.00  0.00    +0.155 HD
ATOM     27  H   UNL     1       6.379  -1.714   0.951  0.00  0.00    +0.152 HD
ATOM     28  H   UNL     1       6.761  -4.010   0.226  0.00  0.00    +0.145 HD
ATOM     29  H   UNL     1       5.419  -4.964  -0.106  0.00  0.00    +0.145 HD
ATOM     30  H   UNL     1       1.000  -2.672  -0.027  0.00  0.00    +0.169 HD
ENDROOT
TORSDOF 0
