REMARK  Name = ZINC62093128
REMARK  7 active torsions:
REMARK  status: ('A' for Active; 'I' for Inactive)
REMARK    1  A    between atoms: C_1  and  C_2
REMARK    2  A    between atoms: C_5  and  N_9
REMARK    3  A    between atoms: C_7  and  C_8
REMARK    4  A    between atoms: C_12  and  C_15
REMARK    5  A    between atoms: C_15  and  N_16
REMARK    6  A    between atoms: N_19  and  C_20
REMARK    7  A    between atoms: C_20  and  C_21
REMARK                            x       y       z     vdW  Elec       q    Type
REMARK                         _______ _______ _______ _____ _____    ______ ____
ROOT
ATOM      1  C   UNL     1      -0.839  -7.343  -1.633  0.00  0.00    +0.110 C 
ENDROOT
BRANCH   1   2
ATOM      2  N   UNL     1      -0.824  -8.728  -1.154  0.00  0.00    -0.299 N 
ATOM      3  C   UNL     1      -1.548  -9.669  -1.790  0.00  0.00    +0.300 C 
ATOM      4  O   UNL     1      -2.215  -9.370  -2.761  0.00  0.00    -0.253 OA
ATOM      5  N   UNL     1      -1.534 -10.943  -1.348  0.00  0.00    -0.295 N 
ATOM      6  H   UNL     1      -0.291  -8.966  -0.379  0.00  0.00    +0.150 HD
ATOM      7  H   UNL     1      -1.002 -11.181  -0.573  0.00  0.00    +0.151 HD
BRANCH   5   8
ATOM      8  C   UNL     1      -2.322 -11.966  -2.040  0.00  0.00    +0.141 C 
BRANCH   8   9
ATOM      9  C   UNL     1      -2.134 -13.294  -1.353  0.00  0.00    -0.030 A 
ATOM     10  C   UNL     1      -1.112 -14.137  -1.746  0.00  0.00    +0.005 A 
ATOM     11  C   UNL     1      -0.939 -15.355  -1.116  0.00  0.00    +0.000 A 
ATOM     12  C   UNL     1      -1.788 -15.730  -0.092  0.00  0.00    +0.000 A 
ATOM     13  C   UNL     1      -2.810 -14.887   0.303  0.00  0.00    +0.000 A 
ATOM     14  C   UNL     1      -2.980 -13.667  -0.325  0.00  0.00    +0.005 A 
ENDBRANCH   8   9
ENDBRANCH   5   8
ENDBRANCH   1   2
BRANCH   1  18
ATOM     15  N   UNL     1       0.058  -4.167  -0.021  0.00  0.00    -0.330 N 
ATOM     16  C   UNL     1       0.069  -5.033   1.172  0.00  0.00    +0.105 C 
ATOM     17  C   UNL     1      -0.526  -6.380   0.691  0.00  0.00    +0.025 C 
ATOM     18  C   UNL     1       0.060  -6.485  -0.742  0.00  0.00    +0.025 C 
ATOM     19  C   UNL     1       0.064  -5.018  -1.220  0.00  0.00    +0.110 C 
BRANCH  15  24
ATOM     20  C   UNL     1      -0.018   1.503   0.010  0.00  0.00    +0.044 C 
ATOM     21  C   UNL     1       0.002  -0.004   0.002  0.00  0.00    -0.047 A 
ATOM     22  C   UNL     1       0.006  -0.687  -1.200  0.00  0.00    +0.005 A 
ATOM     23  C   UNL     1       0.024  -2.068  -1.212  0.00  0.00    +0.023 A 
ATOM     24  C   UNL     1       0.040  -2.771  -0.013  0.00  0.00    +0.030 A 
ATOM     25  C   UNL     1       0.036  -2.081   1.192  0.00  0.00    +0.026 A 
ATOM     26  C   UNL     1       0.023  -0.700   1.196  0.00  0.00    -0.046 A 
ATOM     27  C   UNL     1       0.025   0.049   2.504  0.00  0.00    +0.044 C 
ENDBRANCH  15  24
ENDBRANCH   1  18
TORSDOF 5
