REMARK  Name = ZINC66403003
REMARK  6 active torsions:
REMARK  status: ('A' for Active; 'I' for Inactive)
REMARK    1  A    between atoms: C_4  and  C_7
REMARK    2  A    between atoms: C_7  and  C_9
REMARK    3  A    between atoms: C_7  and  O_26
REMARK    4  A    between atoms: C_9  and  N_10
REMARK    5  A    between atoms: N_13  and  C_14
REMARK    6  A    between atoms: C_16  and  C_22
REMARK                            x       y       z     vdW  Elec       q    Type
REMARK                         _______ _______ _______ _____ _____    ______ ____
ROOT
ATOM      1  N   UNL     1       5.309  -1.944   1.365  0.00  0.00    -0.296 N 
ATOM      2  C   UNL     1       5.832  -2.442   2.503  0.00  0.00    +0.304 C 
ATOM      3  O   UNL     1       5.143  -2.527   3.502  0.00  0.00    -0.253 OA
ATOM      4  N   UNL     1       7.117  -2.845   2.534  0.00  0.00    -0.265 N 
ATOM      5  H   UNL     1       5.858  -1.876   0.568  0.00  0.00    +0.150 HD
ATOM      6  H   UNL     1       7.645  -2.846   1.720  0.00  0.00    +0.157 HD
ENDROOT
BRANCH   4   7
ATOM      7  C   UNL     1       7.692  -3.263   3.743  0.00  0.00    +0.100 A 
ATOM      8  C   UNL     1       8.219  -4.519   3.861  0.00  0.00    +0.042 A 
ATOM      9  C   UNL     1       8.789  -4.911   5.081  0.00  0.00    +0.073 A 
ATOM     10  C   UNL     1       8.812  -4.051   6.124  0.00  0.00    +0.098 A 
ATOM     11  N   UNL     1       8.288  -2.802   6.009  0.00  0.00    -0.327 N 
ATOM     12  H   UNL     1       8.315  -2.199   6.769  0.00  0.00    +0.168 HD
ATOM     13  C   UNL     1       7.739  -2.389   4.851  0.00  0.00    +0.270 A 
ATOM     14  O   UNL     1       7.277  -1.263   4.761  0.00  0.00    -0.266 OA
BRANCH   9  15
ATOM     15  C   UNL     1       9.374  -6.292   5.229  0.00  0.00    +0.419 C 
ATOM     16  F   UNL     1       9.878  -6.448   6.525  0.00  0.00    -0.166 F 
ATOM     17  F   UNL     1       8.379  -7.248   4.998  0.00  0.00    -0.166 F 
ATOM     18  F   UNL     1      10.409  -6.462   4.303  0.00  0.00    -0.166 F 
ENDBRANCH   9  15
ENDBRANCH   4   7
BRANCH   1  19
ATOM     19  C   UNL     1       3.911  -1.506   1.331  0.00  0.00    +0.141 C 
BRANCH  19  20
ATOM     20  C   UNL     1       3.573  -0.988  -0.068  0.00  0.00    +0.162 C 
BRANCH  20  24
ATOM     21  C   UNL     1      -0.389   0.610  -0.078  0.00  0.00    +0.000 A 
ATOM     22  C   UNL     1       0.698   1.459   0.013  0.00  0.00    +0.000 A 
ATOM     23  C   UNL     1       1.980   0.942   0.016  0.00  0.00    +0.006 A 
ATOM     24  C   UNL     1       2.175  -0.424  -0.071  0.00  0.00    -0.018 A 
ATOM     25  C   UNL     1       1.088  -1.273  -0.161  0.00  0.00    +0.006 A 
ATOM     26  C   UNL     1      -0.194  -0.756  -0.165  0.00  0.00    +0.000 A 
ENDBRANCH  20  24
BRANCH  20  27
ATOM     27  O   UNL     1       3.655  -2.062  -1.007  0.00  0.00    -0.386 OA
ATOM     28  H   UNL     1       3.052  -2.794  -0.821  0.00  0.00    +0.210 HD
ENDBRANCH  20  27
ENDBRANCH  19  20
ENDBRANCH   1  19
TORSDOF 6
