REMARK  Name = ZINC63766735
REMARK  5 active torsions:
REMARK  status: ('A' for Active; 'I' for Inactive)
REMARK    1  A    between atoms: C_7  and  C_10
REMARK    2  A    between atoms: C_10  and  C_11
REMARK    3  A    between atoms: C_11  and  N_12
REMARK    4  A    between atoms: C_16  and  C_19
REMARK    5  A    between atoms: C_17  and  N_18
REMARK                            x       y       z     vdW  Elec       q    Type
REMARK                         _______ _______ _______ _____ _____    ______ ____
ROOT
ATOM      1  N   UNL     1      -0.458  -4.798  -1.460  0.00  0.00    -0.310 N 
ATOM      2  C   UNL     1      -0.071  -6.212  -1.363  0.00  0.00    +0.186 C 
ATOM      3  C   UNL     1      -1.376  -6.979  -1.405  0.00  0.00    +0.187 C 
ATOM      4  O   UNL     1      -1.521  -8.184  -1.352  0.00  0.00    -0.290 OA
ATOM      5  C   UNL     1      -2.385  -6.006  -1.519  0.00  0.00    +0.096 C 
ATOM      6  C   UNL     1      -1.813  -4.737  -1.542  0.00  0.00    +0.098 C 
ENDROOT
BRANCH   5   7
ATOM      7  C   UNL     1      -3.829  -6.287  -1.595  0.00  0.00    +0.146 A 
ATOM      8  N   UNL     1      -4.392  -7.536  -1.560  0.00  0.00    -0.338 N 
ATOM      9  H   UNL     1      -3.919  -8.379  -1.482  0.00  0.00    +0.167 HD
ATOM     10  C   UNL     1      -5.763  -7.369  -1.656  0.00  0.00    +0.066 A 
ATOM     11  C   UNL     1      -6.838  -8.245  -1.675  0.00  0.00    +0.028 A 
ATOM     12  C   UNL     1      -8.122  -7.754  -1.786  0.00  0.00    +0.002 A 
ATOM     13  C   UNL     1      -8.347  -6.388  -1.877  0.00  0.00    +0.002 A 
ATOM     14  C   UNL     1      -7.293  -5.503  -1.860  0.00  0.00    +0.030 A 
ATOM     15  C   UNL     1      -5.985  -5.984  -1.749  0.00  0.00    +0.089 A 
ATOM     16  N   UNL     1      -4.771  -5.379  -1.700  0.00  0.00    -0.228 NA
ENDBRANCH   5   7
BRANCH   6  17
ATOM     17  N   UNL     1      -2.524  -3.577  -1.639  0.00  0.00    -0.346 N 
ATOM     18  H   UNL     1      -2.062  -2.724  -1.652  0.00  0.00    +0.143 HD
ATOM     19  H   UNL     1      -3.492  -3.605  -1.694  0.00  0.00    +0.143 HD
ENDBRANCH   6  17
BRANCH   1  20
ATOM     20  C   UNL     1       0.457  -3.653  -1.462  0.00  0.00    +0.111 C 
BRANCH  20  21
ATOM     21  C   UNL     1       0.691  -3.186  -0.024  0.00  0.00    +0.052 C 
BRANCH  21  28
ATOM     22  C   UNL     1      -0.016   1.348   0.009  0.00  0.00    +0.001 A 
ATOM     23  C   UNL     1       1.166   2.101   0.002  0.00  0.00    +0.002 A 
ATOM     24  C   UNL     1       2.391   1.535  -0.013  0.00  0.00    +0.026 A 
ATOM     25  C   UNL     1       2.529   0.120  -0.022  0.00  0.00    +0.043 A 
ATOM     26  N   UNL     1       3.587  -0.654  -0.037  0.00  0.00    -0.380 N 
ATOM     27  C   UNL     1       3.143  -2.053  -0.041  0.00  0.00    +0.144 C 
ATOM     28  C   UNL     1       1.631  -2.008  -0.025  0.00  0.00    -0.040 C 
ATOM     29  C   UNL     1       1.295  -0.698  -0.014  0.00  0.00    -0.001 A 
ATOM     30  C   UNL     1       0.002  -0.004   0.002  0.00  0.00    +0.010 A 
ATOM     31  H   UNL     1       4.509  -0.353  -0.045  0.00  0.00    +0.160 HD
ENDBRANCH  21  28
ENDBRANCH  20  21
ENDBRANCH   1  20
TORSDOF 5
