REMARK  Name = ZINC07963447
REMARK  11 active torsions:
REMARK  status: ('A' for Active; 'I' for Inactive)
REMARK    1  A    between atoms: C_1  and  C_2
REMARK    2  A    between atoms: C_7  and  C_8
REMARK    3  A    between atoms: N_10  and  C_11
REMARK    4  A    between atoms: C_11  and  C_12
REMARK    5  A    between atoms: C_12  and  C_13
REMARK    6  A    between atoms: N_15  and  N_16
REMARK    7  A    between atoms: N_16  and  C_17
REMARK    8  A    between atoms: C_17  and  N_19
REMARK    9  A    between atoms: N_19  and  C_20
REMARK   10  A    between atoms: C_25  and  C_30
REMARK   11  A    between atoms: C_27  and  C_29
REMARK                            x       y       z     vdW  Elec       q    Type
REMARK                         _______ _______ _______ _____ _____    ______ ____
ROOT
ATOM      1  C   UNL     1       0.945  -0.186   7.333  0.00  0.00    +0.231 C 
ATOM      2  O   UNL     1       0.838   1.022   7.355  0.00  0.00    -0.274 OA
ATOM      3  N   UNL     1       1.168  -0.864   8.477  0.00  0.00    -0.235 N 
ATOM      4  H   UNL     1       1.253  -1.830   8.460  0.00  0.00    +0.173 HD
ENDROOT
BRANCH   3   5
ATOM      5  N   UNL     1       1.276  -0.173   9.691  0.00  0.00    -0.246 N 
ATOM      6  H   UNL     1       1.190   0.793   9.708  0.00  0.00    +0.172 HD
BRANCH   5   7
ATOM      7  C   UNL     1       1.498  -0.850  10.834  0.00  0.00    +0.147 C 
ATOM      8  S   UNL     1       1.631  -0.005  12.318  0.00  0.00    -0.017 S 
BRANCH   7   9
ATOM      9  N   UNL     1       1.617  -2.192  10.810  0.00  0.00    -0.322 N 
ATOM     10  H   UNL     1       1.542  -2.671   9.970  0.00  0.00    +0.148 HD
BRANCH   9  11
ATOM     11  C   UNL     1       1.859  -2.929  12.053  0.00  0.00    +0.075 C 
ATOM     12  C   UNL     1       3.360  -2.948  12.351  0.00  0.00    +0.022 C 
ATOM     13  C   UNL     1       4.099  -3.633  11.200  0.00  0.00    +0.002 C 
ATOM     14  C   UNL     1       3.591  -5.069  11.050  0.00  0.00    +0.003 C 
ATOM     15  C   UNL     1       2.090  -5.049  10.752  0.00  0.00    -0.009 C 
ATOM     16  C   UNL     1       1.351  -4.364  11.903  0.00  0.00    +0.009 C 
ATOM     17  C   UNL     1      -0.150  -4.345  11.606  0.00  0.00    +0.009 C 
ATOM     18  C   UNL     1       1.581  -6.484  10.603  0.00  0.00    +0.008 C 
ENDBRANCH   9  11
ENDBRANCH   7   9
ENDBRANCH   5   7
ENDBRANCH   3   5
BRANCH   1  19
ATOM     19  C   UNL     1       0.829  -0.930   6.028  0.00  0.00    +0.116 C 
BRANCH  19  20
ATOM     20  C   UNL     1       0.578   0.067   4.894  0.00  0.00    +0.114 C 
BRANCH  20  23
ATOM     21  C   UNL     1       0.242   0.021   2.481  0.00  0.00    +0.244 C 
ATOM     22  O   UNL     1       0.135   1.232   2.503  0.00  0.00    -0.270 OA
ATOM     23  N   UNL     1       0.465  -0.656   3.625  0.00  0.00    -0.311 N 
ATOM     24  H   UNL     1       0.551  -1.622   3.607  0.00  0.00    +0.149 HD
BRANCH  21  31
ATOM     25  C   UNL     1      -0.511   1.452   0.082  0.00  0.00    +0.044 C 
ATOM     26  C   UNL     1      -0.234  -0.028   0.036  0.00  0.00    -0.038 A 
ATOM     27  C   UNL     1      -0.334  -0.714  -1.157  0.00  0.00    +0.004 A 
ATOM     28  C   UNL     1      -0.080  -2.073  -1.200  0.00  0.00    +0.000 A 
ATOM     29  C   UNL     1       0.275  -2.754  -0.049  0.00  0.00    +0.001 A 
ATOM     30  C   UNL     1       0.378  -2.080   1.150  0.00  0.00    +0.013 A 
ATOM     31  C   UNL     1       0.128  -0.708   1.200  0.00  0.00    +0.040 A 
ENDBRANCH  21  31
ENDBRANCH  20  23
ENDBRANCH  19  20
ENDBRANCH   1  19
TORSDOF 8
