REMARK  Name = ZINC24437523
REMARK  8 active torsions:
REMARK  status: ('A' for Active; 'I' for Inactive)
REMARK    1  A    between atoms: C_4  and  C_25
REMARK    2  A    between atoms: C_5  and  C_7
REMARK    3  A    between atoms: C_7  and  N_8
REMARK    4  A    between atoms: C_9  and  C_11
REMARK    5  A    between atoms: C_11  and  C_12
REMARK    6  A    between atoms: C_12  and  C_14
REMARK    7  A    between atoms: C_12  and  N_21
REMARK    8  A    between atoms: C_25  and  N_26
REMARK                            x       y       z     vdW  Elec       q    Type
REMARK                         _______ _______ _______ _____ _____    ______ ____
ROOT
ATOM      1  N   UNL     1       5.138   3.909   1.173  0.00  0.00    -0.311 N 
ATOM      2  C   UNL     1       6.177   3.560   0.388  0.00  0.00    +0.215 C 
ATOM      3  O   UNL     1       6.543   2.404   0.346  0.00  0.00    -0.276 OA
ATOM      4  H   UNL     1       4.806   4.957   1.211  0.00  0.00    +0.149 HD
ENDROOT
BRANCH   1   5
ATOM      5  C   UNL     1       4.452   2.894   1.975  0.00  0.00    +0.139 C 
BRANCH   5  10
ATOM      6  C   UNL     1       2.498   4.452   4.805  0.00  0.00    +0.000 A 
ATOM      7  C   UNL     1       1.289   4.719   4.191  0.00  0.00    +0.000 A 
ATOM      8  C   UNL     1       1.104   4.398   2.859  0.00  0.00    +0.006 A 
ATOM      9  C   UNL     1       2.129   3.811   2.141  0.00  0.00    -0.023 A 
ATOM     10  C   UNL     1       3.337   3.539   2.756  0.00  0.00    -0.025 A 
ATOM     11  C   UNL     1       3.523   3.864   4.087  0.00  0.00    +0.005 A 
BRANCH   9  12
ATOM     12  C   UNL     1       1.928   3.461   0.689  0.00  0.00    +0.158 C 
BRANCH  12  13
ATOM     13  N   UNL     1       1.436   2.085   0.582  0.00  0.00    -0.332 N 
ATOM     14  C   UNL     1       2.193   0.967   0.356  0.00  0.00    +0.107 A 
ATOM     15  C   UNL     1       1.346  -0.079   0.332  0.00  0.00    +0.130 A 
ATOM     16  N   UNL     1       0.105   0.388   0.536  0.00  0.00    -0.244 NA
ATOM     17  C   UNL     1       0.151   1.683   0.687  0.00  0.00    +0.199 A 
ENDBRANCH  12  13
ENDBRANCH   9  12
ENDBRANCH   5  10
ENDBRANCH   1   5
BRANCH   2  18
ATOM     18  C   UNL     1       6.883   4.605  -0.437  0.00  0.00    +0.123 C 
BRANCH  18  19
ATOM     19  C   UNL     1       8.015   3.949  -1.230  0.00  0.00    +0.115 C 
BRANCH  19  20
ATOM     20  C   UNL     1       8.798   5.010  -1.959  0.00  0.00    -0.008 A 
ATOM     21  C   UNL     1       8.260   6.272  -2.129  0.00  0.00    +0.007 A 
ATOM     22  C   UNL     1       8.979   7.247  -2.794  0.00  0.00    +0.000 A 
ATOM     23  C   UNL     1      10.233   6.958  -3.299  0.00  0.00    +0.001 A 
ATOM     24  C   UNL     1      10.770   5.695  -3.135  0.00  0.00    +0.020 A 
ATOM     25  C   UNL     1      10.053   4.720  -2.465  0.00  0.00    +0.046 A 
ATOM     26 CL   UNL     1      10.726   3.133  -2.258  0.00  0.00    -0.083 Cl
ENDBRANCH  19  20
BRANCH  19  27
ATOM     27  N   UNL     1       7.451   3.006  -2.199  0.00  0.00    -0.292 N 
ATOM     28  C   UNL     1       6.550   3.431  -3.106  0.00  0.00    +0.298 C 
ATOM     29  O   UNL     1       6.271   4.612  -3.179  0.00  0.00    -0.253 OA
ATOM     30  N   UNL     1       5.958   2.547  -3.934  0.00  0.00    -0.313 N 
ATOM     31  H   UNL     1       7.762   1.951  -2.185  0.00  0.00    +0.151 HD
ATOM     32  H   UNL     1       5.223   2.894  -4.675  0.00  0.00    +0.146 HD
ATOM     33  H   UNL     1       6.211   1.478  -3.868  0.00  0.00    +0.146 HD
ENDBRANCH  19  27
ENDBRANCH  18  19
ENDBRANCH   2  18
TORSDOF 8
