REMARK  Name = ZINC40921031
REMARK  9 active torsions:
REMARK  status: ('A' for Active; 'I' for Inactive)
REMARK    1  A    between atoms: C_1  and  C_2
REMARK    2  A    between atoms: C_7  and  C_8
REMARK    3  A    between atoms: C_8  and  O_9
REMARK    4  A    between atoms: O_9  and  C_10
REMARK    5  A    between atoms: C_13  and  C_16
REMARK    6  A    between atoms: C_18  and  C_27
REMARK    7  A    between atoms: C_19  and  C_26
REMARK    8  A    between atoms: C_27  and  O_29
REMARK    9  A    between atoms: O_29  and  C_30
REMARK                            x       y       z     vdW  Elec       q    Type
REMARK                         _______ _______ _______ _____ _____    ______ ____
ROOT
ATOM      1  C   UNL     1       0.593  -0.654   4.909  0.00  0.00    +0.121 A 
ATOM      2  C   UNL     1       0.409   0.718   5.009  0.00  0.00    +0.046 A 
ATOM      3  C   UNL     1       0.240   1.303   6.249  0.00  0.00    +0.009 A 
ATOM      4  C   UNL     1       0.253   0.522   7.390  0.00  0.00    -0.018 A 
ATOM      5  C   UNL     1       0.436  -0.845   7.294  0.00  0.00    +0.009 A 
ATOM      6  C   UNL     1       0.601  -1.435   6.055  0.00  0.00    +0.046 A 
ENDROOT
BRANCH   4   7
ATOM      7  C   UNL     1       0.068   1.163   8.742  0.00  0.00    +0.181 C 
ATOM      8  C   UNL     1      -1.151   0.583   9.410  0.00  0.00    +0.082 C 
ATOM      9  C   UNL     1      -1.084  -0.257  10.454  0.00  0.00    +0.020 C 
ATOM     10  N   UNL     1       0.110  -0.647  11.006  0.00  0.00    -0.286 N 
ATOM     11  C   UNL     1       1.248   0.049  10.623  0.00  0.00    +0.240 A 
ATOM     12  N   UNL     1       1.242   0.904   9.567  0.00  0.00    -0.201 N 
ATOM     13  N   UNL     1       2.536   1.415   9.492  0.00  0.00    -0.042 NA
ATOM     14  N   UNL     1       3.206   0.862  10.452  0.00  0.00    -0.021 NA
ATOM     15  N   UNL     1       2.452   0.056  11.119  0.00  0.00    -0.092 NA
ATOM     16  C   UNL     1      -2.366  -0.789  11.042  0.00  0.00    +0.061 C 
ATOM     17  H   UNL     1       0.157  -1.381  11.639  0.00  0.00    +0.155 HD
BRANCH   8  18
ATOM     18  C   UNL     1      -2.424   0.941   8.914  0.00  0.00    +0.339 C 
ATOM     19  O   UNL     1      -2.876   2.048   9.139  0.00  0.00    -0.245 OA
BRANCH  18  20
ATOM     20  O   UNL     1      -3.140   0.055   8.190  0.00  0.00    -0.465 OA
ATOM     21  C   UNL     1      -4.419   0.484   7.720  0.00  0.00    +0.280 C 
ENDBRANCH  18  20
ENDBRANCH   8  18
ENDBRANCH   4   7
BRANCH   1  22
ATOM     22  O   UNL     1       0.760  -1.231   3.690  0.00  0.00    -0.487 OA
BRANCH  22  23
ATOM     23  C   UNL     1       0.741  -0.365   2.554  0.00  0.00    +0.264 C 
BRANCH  23  30
ATOM     24  C   UNL     1       0.780   0.942  -0.022  0.00  0.00    +0.044 C 
ATOM     25  C   UNL     1       0.958  -0.552   0.068  0.00  0.00    -0.044 A 
ATOM     26  C   UNL     1       1.146  -1.296  -1.082  0.00  0.00    +0.004 A 
ATOM     27  C   UNL     1       1.310  -2.666  -1.000  0.00  0.00    +0.000 A 
ATOM     28  C   UNL     1       1.286  -3.292   0.233  0.00  0.00    +0.000 A 
ATOM     29  C   UNL     1       1.099  -2.548   1.382  0.00  0.00    +0.007 A 
ATOM     30  C   UNL     1       0.940  -1.177   1.300  0.00  0.00    -0.007 A 
ENDBRANCH  23  30
ENDBRANCH  22  23
ENDBRANCH   1  22
TORSDOF 6
