REMARK  Name = ZINC62319555
REMARK  9 active torsions:
REMARK  status: ('A' for Active; 'I' for Inactive)
REMARK    1  A    between atoms: C_1  and  C_2
REMARK    2  A    between atoms: C_2  and  C_3
REMARK    3  A    between atoms: C_3  and  N_4
REMARK    4  A    between atoms: C_6  and  C_16
REMARK    5  A    between atoms: C_14  and  N_15
REMARK    6  A    between atoms: N_18  and  C_19
REMARK    7  A    between atoms: C_19  and  C_20
REMARK    8  A    between atoms: C_20  and  C_22
REMARK    9  A    between atoms: C_20  and  O_23
REMARK                            x       y       z     vdW  Elec       q    Type
REMARK                         _______ _______ _______ _____ _____    ______ ____
ROOT
ATOM      1  N   UNL     1       0.797  -1.633  -1.255  0.00  0.00    -0.346 N 
ATOM      2  C   UNL     1       1.906  -2.099  -0.664  0.00  0.00    +0.103 A 
ATOM      3  C   UNL     1       2.170  -3.448  -0.559  0.00  0.00    +0.100 A 
ATOM      4  C   UNL     1       1.203  -4.408  -1.116  0.00  0.00    +0.203 A 
ATOM      5  O   UNL     1       1.391  -5.611  -1.048  0.00  0.00    -0.286 OA
ATOM      6  C   UNL     1      -0.001  -3.856  -1.756  0.00  0.00    +0.066 A 
ATOM      7  C   UNL     1      -0.163  -2.460  -1.797  0.00  0.00    +0.055 A 
ATOM      8  C   UNL     1      -1.299  -1.925  -2.396  0.00  0.00    +0.026 A 
ATOM      9  C   UNL     1      -2.256  -2.759  -2.936  0.00  0.00    +0.004 A 
ATOM     10  C   UNL     1      -2.105  -4.134  -2.893  0.00  0.00    +0.023 A 
ATOM     11  C   UNL     1      -0.976  -4.694  -2.314  0.00  0.00    +0.037 A 
ENDROOT
BRANCH   3  12
ATOM     12  C   UNL     1       3.399  -3.920   0.097  0.00  0.00    +0.249 C 
ATOM     13  O   UNL     1       4.242  -3.121   0.457  0.00  0.00    -0.270 OA
ATOM     14  N   UNL     1       3.591  -5.239   0.299  0.00  0.00    -0.309 N 
ATOM     15  H   UNL     1       2.956  -5.881  -0.054  0.00  0.00    +0.149 HD
BRANCH  14  16
ATOM     16  C   UNL     1       4.760  -5.702   1.051  0.00  0.00    +0.135 C 
BRANCH  16  17
ATOM     17  C   UNL     1       4.740  -7.230   1.135  0.00  0.00    +0.128 C 
ATOM     18  C   UNL     1       5.890  -7.707   2.025  0.00  0.00    +0.039 C 
BRANCH  17  19
ATOM     19  O   UNL     1       4.891  -7.781  -0.175  0.00  0.00    -0.391 OA
ATOM     20  H   UNL     1       5.715  -7.530  -0.615  0.00  0.00    +0.210 HD
ENDBRANCH  17  19
ENDBRANCH  16  17
ENDBRANCH  14  16
ENDBRANCH   3  12
BRANCH  11  21
ATOM     21  N   UNL     1      -0.822  -6.075  -2.270  0.00  0.00    -0.357 N 
ATOM     22  H   UNL     1      -0.080  -6.465  -1.782  0.00  0.00    +0.142 HD
ATOM     23  H   UNL     1      -1.456  -6.648  -2.728  0.00  0.00    +0.142 HD
ENDBRANCH  11  21
BRANCH   1  24
ATOM     24  C   UNL     1       0.595  -0.183  -1.323  0.00  0.00    +0.121 C 
BRANCH  24  26
ATOM     25  C   UNL     1      -0.372   1.799  -0.148  0.00  0.00    +0.005 C 
ATOM     26  C   UNL     1      -0.160   0.285  -0.078  0.00  0.00    +0.018 C 
ENDBRANCH  24  26
ENDBRANCH   1  24
TORSDOF 7
