REMARK  Name = ZINC12462315
REMARK  8 active torsions:
REMARK  status: ('A' for Active; 'I' for Inactive)
REMARK    1  A    between atoms: C_1  and  C_2
REMARK    2  A    between atoms: C_5  and  N_9
REMARK    3  A    between atoms: C_10  and  C_12
REMARK    4  A    between atoms: N_14  and  N_15
REMARK    5  A    between atoms: C_16  and  C_17
REMARK    6  A    between atoms: C_16  and  C_18
REMARK    7  A    between atoms: C_18  and  C_19
REMARK    8  A    between atoms: N_21  and  C_22
REMARK                            x       y       z     vdW  Elec       q    Type
REMARK                         _______ _______ _______ _____ _____    ______ ____
ROOT
ATOM      1  C   UNL     1      -4.908   3.842  -0.146  0.00  0.00    +0.318 C 
ATOM      2  O   UNL     1      -4.910   5.057  -0.150  0.00  0.00    -0.263 OA
ATOM      3  N   UNL     1      -6.071   3.167  -0.233  0.00  0.00    -0.199 N 
ATOM      4  H   UNL     1      -6.070   2.197  -0.231  0.00  0.00    +0.178 HD
ENDROOT
BRANCH   1   6
ATOM      5  N   UNL     1      -2.456   3.775   0.041  0.00  0.00    -0.278 N 
ATOM      6  C   UNL     1      -3.619   3.099  -0.046  0.00  0.00    +0.305 C 
ATOM      7  O   UNL     1      -3.617   1.885  -0.043  0.00  0.00    -0.265 OA
ATOM      8  H   UNL     1      -2.462   4.742   0.112  0.00  0.00    +0.155 HD
BRANCH   5  13
ATOM      9  C   UNL     1       2.471   0.966  -0.014  0.00  0.00    +0.045 C 
ATOM     10  C   UNL     1       1.162   1.712   0.000  0.00  0.00    -0.032 A 
ATOM     11  C   UNL     1       1.036   2.870   0.745  0.00  0.00    +0.006 A 
ATOM     12  C   UNL     1      -0.164   3.553   0.766  0.00  0.00    +0.023 A 
ATOM     13  C   UNL     1      -1.243   3.082   0.027  0.00  0.00    +0.035 A 
ATOM     14  C   UNL     1      -1.114   1.919  -0.720  0.00  0.00    +0.043 A 
ATOM     15  C   UNL     1       0.088   1.236  -0.732  0.00  0.00    +0.046 A 
ATOM     16 CL   UNL     1       0.251  -0.218  -1.666  0.00  0.00    -0.083 Cl
ENDBRANCH   5  13
ENDBRANCH   1   6
BRANCH   3  17
ATOM     17  N   UNL     1      -7.282   3.865  -0.327  0.00  0.00    -0.189 NA
ATOM     18  C   UNL     1      -8.386   3.223  -0.410  0.00  0.00    +0.043 C 
ATOM     19  C   UNL     1      -8.384   1.716  -0.406  0.00  0.00    +0.063 C 
BRANCH  18  20
ATOM     20  C   UNL     1      -9.689   3.974  -0.511  0.00  0.00    +0.148 C 
BRANCH  20  21
ATOM     21  C   UNL     1     -10.324   3.701  -1.850  0.00  0.00    +0.223 C 
ATOM     22  O   UNL     1      -9.773   2.968  -2.644  0.00  0.00    -0.275 OA
ATOM     23  N   UNL     1     -11.504   4.271  -2.165  0.00  0.00    -0.285 N 
ATOM     24  H   UNL     1     -11.912   4.908  -1.559  0.00  0.00    +0.155 HD
BRANCH  23  25
ATOM     25  C   UNL     1     -12.141   3.942  -3.367  0.00  0.00    +0.033 A 
ATOM     26  C   UNL     1     -11.388   3.692  -4.507  0.00  0.00    +0.024 A 
ATOM     27  C   UNL     1     -12.019   3.361  -5.691  0.00  0.00    +0.016 A 
ATOM     28  C   UNL     1     -13.400   3.292  -5.744  0.00  0.00    +0.013 A 
ATOM     29  C   UNL     1     -14.152   3.546  -4.611  0.00  0.00    +0.016 A 
ATOM     30  C   UNL     1     -13.527   3.871  -3.424  0.00  0.00    +0.024 A 
ATOM     31  I   UNL     1     -14.353   2.799  -7.543  0.00  0.00    -0.044 I 
ENDBRANCH  23  25
ENDBRANCH  20  21
ENDBRANCH  18  20
ENDBRANCH   3  17
TORSDOF 6
