REMARK  Name = ZINC20726158
REMARK  3 active torsions:
REMARK  status: ('A' for Active; 'I' for Inactive)
REMARK    1  A    between atoms: N_16  and  C_17
REMARK    2  A    between atoms: N_26  and  C_27
REMARK    3  A    between atoms: C_27  and  C_28
REMARK                            x       y       z     vdW  Elec       q    Type
REMARK                         _______ _______ _______ _____ _____    ______ ____
ROOT
ATOM      1  C   UNL     1       0.053   1.599   0.556  0.00  0.00    +0.000 A 
ATOM      2  C   UNL     1       1.250   2.285   0.535  0.00  0.00    +0.002 A 
ATOM      3  C   UNL     1       2.464   1.639   0.366  0.00  0.00    +0.024 A 
ATOM      4  C   UNL     1       2.433   0.252   0.214  0.00  0.00    +0.041 A 
ATOM      5  C   UNL     1       1.211  -0.434   0.237  0.00  0.00    -0.006 A 
ATOM      6  C   UNL     1       0.008   0.217   0.407  0.00  0.00    +0.007 A 
ATOM      7  C   UNL     1       1.541  -1.879   0.047  0.00  0.00    +0.112 C 
ATOM      8  C   UNL     1       0.894  -2.431  -1.222  0.00  0.00    +0.122 C 
ATOM      9  C   UNL     1      -0.550  -2.779  -0.991  0.00  0.00    +0.220 C 
ATOM     10  O   UNL     1      -1.353  -2.570  -1.877  0.00  0.00    -0.275 OA
ATOM     11  N   UNL     1      -0.982  -3.315   0.169  0.00  0.00    -0.270 N 
ATOM     12  C   UNL     1      -0.099  -3.365   1.246  0.00  0.00    +0.133 A 
ATOM     13  C   UNL     1       1.102  -2.702   1.226  0.00  0.00    +0.032 A 
ATOM     14  C   UNL     1       1.745  -2.948   2.430  0.00  0.00    +0.141 A 
ATOM     15  N   UNL     1       0.973  -3.717   3.162  0.00  0.00    -0.173 NA
ATOM     16  N   UNL     1      -0.201  -3.986   2.439  0.00  0.00    -0.217 N 
ATOM     17  C   UNL     1       3.048  -1.910  -0.080  0.00  0.00    +0.236 C 
ATOM     18  O   UNL     1       3.739  -2.893  -0.249  0.00  0.00    -0.274 OA
ATOM     19  N   UNL     1       3.478  -0.635   0.031  0.00  0.00    -0.261 N 
ATOM     20  H   UNL     1      -1.886  -3.658   0.252  0.00  0.00    +0.156 HD
ENDROOT
BRANCH  16  21
ATOM     21  C   UNL     1      -1.283  -4.761   2.878  0.00  0.00    +0.086 A 
ATOM     22  C   UNL     1      -1.819  -5.740   2.051  0.00  0.00    +0.029 A 
ATOM     23  C   UNL     1      -2.885  -6.502   2.486  0.00  0.00    +0.002 A 
ATOM     24  C   UNL     1      -3.420  -6.293   3.744  0.00  0.00    +0.002 A 
ATOM     25  C   UNL     1      -2.889  -5.319   4.571  0.00  0.00    +0.022 A 
ATOM     26  C   UNL     1      -1.819  -4.556   4.143  0.00  0.00    +0.066 A 
ATOM     27 CL   UNL     1      -1.149  -3.339   5.184  0.00  0.00    -0.081 Cl
ENDBRANCH  16  21
BRANCH  19  28
ATOM     28  C   UNL     1       4.887  -0.238  -0.036  0.00  0.00    +0.209 C 
BRANCH  28  29
ATOM     29  C   UNL     1       5.482  -0.261   1.348  0.00  0.00    +0.228 C 
ATOM     30  O   UNL     1       4.797  -0.579   2.297  0.00  0.00    -0.274 OA
ATOM     31  N   UNL     1       6.775   0.071   1.531  0.00  0.00    -0.328 N 
ATOM     32  H   UNL     1       7.323   0.324   0.772  0.00  0.00    +0.145 HD
ATOM     33  H   UNL     1       7.158   0.056   2.422  0.00  0.00    +0.145 HD
ENDBRANCH  28  29
ENDBRANCH  19  28
TORSDOF 3
