REMARK  Name = ZINC09516570
REMARK  8 active torsions:
REMARK  status: ('A' for Active; 'I' for Inactive)
REMARK    1  A    between atoms: C_1  and  N_2
REMARK    2  A    between atoms: N_2  and  C_3
REMARK    3  A    between atoms: N_2  and  S_4
REMARK    4  A    between atoms: S_4  and  C_7
REMARK    5  A    between atoms: C_10  and  C_12
REMARK    6  A    between atoms: C_12  and  N_13
REMARK    7  A    between atoms: C_21  and  C_22
REMARK    8  A    between atoms: C_21  and  N_51
REMARK                            x       y       z     vdW  Elec       q    Type
REMARK                         _______ _______ _______ _____ _____    ______ ____
ROOT
ATOM      1  N   UNL     1      -6.360  -3.329   1.635  0.00  0.00    -0.295 N 
ATOM      2  C   UNL     1      -7.139  -4.421   1.509  0.00  0.00    +0.302 C 
ATOM      3  O   UNL     1      -6.633  -5.525   1.448  0.00  0.00    -0.253 OA
ATOM      4  N   UNL     1      -8.479  -4.290   1.452  0.00  0.00    -0.289 N 
ATOM      5  C   UNL     1      -9.352  -5.473   1.418  0.00  0.00    +0.091 C 
ATOM      6  C   UNL     1     -10.421  -5.314   2.511  0.00  0.00    -0.059 C 
ATOM      7  C   UNL     1     -10.185  -2.901   2.502  0.00  0.00    -0.059 C 
ATOM      8  C   UNL     1      -9.107  -2.961   1.414  0.00  0.00    +0.091 C 
ATOM      9  H   UNL     1      -6.757  -2.444   1.610  0.00  0.00    +0.151 HD
ATOM     10  N   UNL     1     -11.122  -4.028   2.304  0.00  0.00    +0.384 N 
ATOM     11  H   UNL     1     -11.482  -3.997   1.343  0.00  0.00    -0.081 HD
ENDROOT
BRANCH   1  12
ATOM     12  C   UNL     1      -4.913  -3.477   1.809  0.00  0.00    +0.148 C 
BRANCH  12  16
ATOM     13  C   UNL     1      -3.103   0.298   1.662  0.00  0.00    +0.143 A 
ATOM     14  C   UNL     1      -3.446  -0.135   2.900  0.00  0.00    +0.037 A 
ATOM     15  C   UNL     1      -4.048  -1.371   3.034  0.00  0.00    +0.015 A 
ATOM     16  C   UNL     1      -4.279  -2.115   1.925  0.00  0.00    +0.009 A 
ATOM     17  S   UNL     1      -3.642  -1.058   0.634  0.00  0.00    -0.072 S 
BRANCH  13  18
ATOM     18  S   UNL     1      -2.333   1.811   1.189  0.00  0.00    +0.067 S 
ATOM     19  O   UNL     1      -2.615   2.749   2.219  0.00  0.00    -0.152 OA
ATOM     20  O   UNL     1      -2.687   2.040  -0.168  0.00  0.00    -0.152 OA
BRANCH  18  22
ATOM     21  C   UNL     1      -0.010   1.083   0.011  0.00  0.00    +0.131 C 
ATOM     22  N   UNL     1      -0.697   1.557   1.215  0.00  0.00    -0.182 NA
ATOM     23  C   UNL     1       0.063   1.806   2.442  0.00  0.00    +0.131 C 
ENDBRANCH  18  22
ENDBRANCH  13  18
ENDBRANCH  12  16
ENDBRANCH   1  12
BRANCH  10  24
ATOM     24  C   UNL     1     -12.254  -3.913   3.246  0.00  0.00    -0.042 C 
BRANCH  24  25
ATOM     25  C   UNL     1     -13.047  -5.195   3.223  0.00  0.00    -0.057 A 
ATOM     26  C   UNL     1     -14.086  -5.361   2.326  0.00  0.00    +0.009 A 
ATOM     27  C   UNL     1     -14.775  -6.528   2.328  0.00  0.00    +0.045 A 
ATOM     28  S   UNL     1     -13.964  -7.434   3.634  0.00  0.00    -0.105 S 
ATOM     29  C   UNL     1     -12.756  -6.200   4.084  0.00  0.00    +0.047 A 
ENDBRANCH  24  25
ENDBRANCH  10  24
TORSDOF 6
