REMARK  Name = ZINC40549838
REMARK  9 active torsions:
REMARK  status: ('A' for Active; 'I' for Inactive)
REMARK    1  A    between atoms: C_1  and  C_2
REMARK    2  A    between atoms: C_4  and  C_10
REMARK    3  A    between atoms: C_5  and  O_9
REMARK    4  A    between atoms: C_7  and  C_8
REMARK    5  A    between atoms: C_12  and  C_16
REMARK    6  A    between atoms: N_18  and  C_19
REMARK    7  A    between atoms: C_20  and  C_28
REMARK    8  A    between atoms: N_30  and  C_31
REMARK    9  A    between atoms: C_31  and  C_32
REMARK                            x       y       z     vdW  Elec       q    Type
REMARK                         _______ _______ _______ _____ _____    ______ ____
ROOT
ATOM      1  C   UNL     1       0.051  -5.726  -4.708  0.00  0.00    +0.266 C 
ATOM      2  O   UNL     1       0.063  -6.756  -4.062  0.00  0.00    -0.268 OA
ATOM      3  N   UNL     1       0.048  -5.775  -6.055  0.00  0.00    -0.274 N 
ATOM      4  H   UNL     1       0.038  -4.953  -6.570  0.00  0.00    +0.156 HD
ENDROOT
BRANCH   3   5
ATOM      5  C   UNL     1       0.058  -6.999  -6.703  0.00  0.00    +0.085 A 
ATOM      6  C   UNL     1       0.062  -7.240  -8.069  0.00  0.00    +0.069 A 
ATOM      7  C   UNL     1       0.074  -8.628  -8.497  0.00  0.00    -0.023 A 
ATOM      8  C   UNL     1       0.079  -9.519  -7.483  0.00  0.00    -0.004 A 
ATOM      9  S   UNL     1       0.076  -8.531  -6.016  0.00  0.00    -0.077 S 
ATOM     10  C   UNL     1       0.089 -11.012  -7.598  0.00  0.00    +0.043 C 
ATOM     11  C   UNL     1      -0.287 -11.388  -9.039  0.00  0.00    +0.005 C 
ATOM     12  C   UNL     1       0.544 -10.539 -10.005  0.00  0.00    +0.005 C 
ATOM     13  C   UNL     1       0.081  -9.082  -9.950  0.00  0.00    +0.037 C 
BRANCH   6  14
ATOM     14  C   UNL     1       0.054  -6.141  -9.039  0.00  0.00    +0.247 C 
ATOM     15  O   UNL     1       1.105  -5.676  -9.440  0.00  0.00    -0.270 OA
ATOM     16  N   UNL     1      -1.116  -5.645  -9.486  0.00  0.00    -0.309 N 
ATOM     17  H   UNL     1      -1.954  -6.016  -9.166  0.00  0.00    +0.149 HD
BRANCH  16  18
ATOM     18  C   UNL     1      -1.124  -4.547 -10.455  0.00  0.00    +0.136 C 
BRANCH  18  19
ATOM     19  C   UNL     1      -2.569  -4.176 -10.795  0.00  0.00    +0.135 C 
ATOM     20  C   UNL     1      -2.588  -3.103 -11.904  0.00  0.00    +0.035 C 
ATOM     21  C   UNL     1      -3.748  -2.177 -11.448  0.00  0.00    +0.031 C 
ATOM     22  C   UNL     1      -3.604  -2.262  -9.908  0.00  0.00    +0.160 C 
ATOM     23  O   UNL     1      -3.212  -3.620  -9.641  0.00  0.00    -0.375 OA
ENDBRANCH  18  19
ENDBRANCH  16  18
ENDBRANCH   6  14
ENDBRANCH   3   5
BRANCH   1  26
ATOM     24  C   UNL     1       0.029  -2.815  -2.496  0.00  0.00    +0.097 A 
ATOM     25  C   UNL     1       0.042  -4.213  -2.653  0.00  0.00    +0.062 A 
ATOM     26  C   UNL     1       0.040  -4.426  -4.019  0.00  0.00    +0.121 A 
ATOM     27  N   UNL     1       0.026  -3.190  -4.604  0.00  0.00    -0.272 N 
ATOM     28  H   UNL     1       0.022  -3.026  -5.559  0.00  0.00    +0.189 HD
ATOM     29  N   UNL     1       0.014  -2.279  -3.698  0.00  0.00    -0.173 NA
BRANCH  24  33
ATOM     30  C   UNL     1      -0.018   1.503   0.010  0.00  0.00    +0.044 C 
ATOM     31  C   UNL     1       0.002  -0.004   0.002  0.00  0.00    -0.047 A 
ATOM     32  C   UNL     1       0.006  -0.685  -1.199  0.00  0.00    +0.017 A 
ATOM     33  C   UNL     1       0.025  -2.077  -1.208  0.00  0.00    +0.044 A 
ATOM     34  C   UNL     1       0.041  -2.778   0.002  0.00  0.00    +0.126 A 
ATOM     35  C   UNL     1       0.037  -2.082   1.200  0.00  0.00    +0.049 A 
ATOM     36  C   UNL     1       0.023  -0.700   1.198  0.00  0.00    -0.044 A 
ATOM     37  C   UNL     1       0.025   0.053   2.503  0.00  0.00    +0.044 C 
BRANCH  34  38
ATOM     38  O   UNL     1       0.059  -4.136   0.003  0.00  0.00    -0.506 OA
ATOM     39  H   UNL     1       0.948  -4.518  -0.001  0.00  0.00    +0.292 HD
ENDBRANCH  34  38
ENDBRANCH  24  33
ENDBRANCH   1  26
TORSDOF 7
