REMARK  Name = ZINC63383556
REMARK  10 active torsions:
REMARK  status: ('A' for Active; 'I' for Inactive)
REMARK    1  A    between atoms: C_1  and  C_2
REMARK    2  A    between atoms: C_2  and  C_3
REMARK    3  A    between atoms: C_2  and  C_4
REMARK    4  A    between atoms: C_4  and  C_6
REMARK    5  A    between atoms: C_4  and  N_13
REMARK    6  A    between atoms: N_8  and  C_9
REMARK    7  A    between atoms: C_9  and  C_10
REMARK    8  A    between atoms: C_10  and  O_11
REMARK    9  A    between atoms: O_11  and  C_12
REMARK   10  A    between atoms: C_14  and  C_16
REMARK                            x       y       z     vdW  Elec       q    Type
REMARK                         _______ _______ _______ _____ _____    ______ ____
ROOT
ATOM      1  C   UNL     1       3.801   1.741   1.718  0.00  0.00    +0.167 C 
ATOM      2  C   UNL     1       4.705   0.811   2.549  0.00  0.00    +0.065 C 
ATOM      3  C   UNL     1       5.230   1.624   3.706  0.00  0.00    -0.034 C 
ATOM      4  C   UNL     1       6.474   1.802   4.142  0.00  0.00    -0.001 A 
ATOM      5  C   UNL     1       7.752   1.206   3.720  0.00  0.00    +0.010 A 
ATOM      6  C   UNL     1       8.859   1.634   4.382  0.00  0.00    +0.001 A 
ATOM      7  C   UNL     1       8.824   2.582   5.409  0.00  0.00    +0.002 A 
ATOM      8  C   UNL     1       7.692   3.175   5.866  0.00  0.00    +0.026 A 
ATOM      9  C   UNL     1       6.462   2.803   5.251  0.00  0.00    +0.043 A 
ATOM     10  N   UNL     1       5.246   3.193   5.498  0.00  0.00    -0.375 N 
ATOM     11  C   UNL     1       4.338   2.452   4.620  0.00  0.00    +0.131 C 
ATOM     12  C   UNL     1       3.514   3.381   3.731  0.00  0.00    +0.134 C 
ATOM     13  N   UNL     1       3.841   3.078   2.323  0.00  0.00    -0.276 N 
ATOM     14  C   UNL     1       4.192   4.224   1.707  0.00  0.00    +0.248 C 
ATOM     15  O   UNL     1       4.400   4.339   0.515  0.00  0.00    -0.270 OA
ATOM     16  C   UNL     1       4.286   5.310   2.685  0.00  0.00    +0.042 A 
ATOM     17  C   UNL     1       3.864   4.815   3.960  0.00  0.00    -0.013 A 
ATOM     18  C   UNL     1       3.836   5.600   5.091  0.00  0.00    +0.006 A 
ATOM     19  C   UNL     1       4.228   6.928   4.949  0.00  0.00    +0.000 A 
ATOM     20  C   UNL     1       4.625   7.443   3.731  0.00  0.00    +0.001 A 
ATOM     21  C   UNL     1       4.683   6.641   2.535  0.00  0.00    +0.013 A 
ATOM     22  H   UNL     1       4.986   3.860   6.152  0.00  0.00    +0.160 HD
ENDROOT
BRANCH   1  24
ATOM     23  N   UNL     1       2.116  -0.004   1.231  0.00  0.00    -0.302 N 
ATOM     24  C   UNL     1       2.387   1.219   1.728  0.00  0.00    +0.235 C 
ATOM     25  O   UNL     1       1.493   1.900   2.184  0.00  0.00    -0.274 OA
ATOM     26  H   UNL     1       2.832  -0.548   0.866  0.00  0.00    +0.150 HD
BRANCH  23  27
ATOM     27  C   UNL     1       0.742  -0.511   1.242  0.00  0.00    +0.161 C 
BRANCH  27  28
ATOM     28  C   UNL     1       0.762  -2.018   1.233  0.00  0.00    +0.234 C 
ATOM     29  O   UNL     1       1.821  -2.610   1.220  0.00  0.00    -0.274 OA
ATOM     30  N   UNL     1      -0.395  -2.707   1.241  0.00  0.00    -0.312 N 
ATOM     31  H   UNL     1      -1.242  -2.234   1.251  0.00  0.00    +0.149 HD
BRANCH  30  32
ATOM     32  C   UNL     1      -0.376  -4.172   1.233  0.00  0.00    +0.132 C 
BRANCH  32  33
ATOM     33  C   UNL     1      -1.811  -4.702   1.243  0.00  0.00    +0.178 C 
BRANCH  33  34
ATOM     34  O   UNL     1      -2.466  -4.326   0.031  0.00  0.00    -0.381 OA
ATOM     35  C   UNL     1      -3.820  -4.774  -0.061  0.00  0.00    +0.194 C 
ENDBRANCH  33  34
ENDBRANCH  32  33
ENDBRANCH  30  32
ENDBRANCH  27  28
BRANCH  27  37
ATOM     36  C   UNL     1      -0.019   1.526   0.010  0.00  0.00    +0.009 C 
ATOM     37  C   UNL     1       0.002  -0.004   0.002  0.00  0.00    +0.012 C 
ATOM     38  C   UNL     1       0.718  -0.497  -1.257  0.00  0.00    +0.009 C 
ENDBRANCH  27  37
ENDBRANCH  23  27
ENDBRANCH   1  24
TORSDOF 7
