REMARK  Name = ZINC13774086
REMARK  8 active torsions:
REMARK  status: ('A' for Active; 'I' for Inactive)
REMARK    1  A    between atoms: C_1  and  C_2
REMARK    2  A    between atoms: C_2  and  O_3
REMARK    3  A    between atoms: O_3  and  C_4
REMARK    4  A    between atoms: C_7  and  N_10
REMARK    5  A    between atoms: C_13  and  C_22
REMARK    6  A    between atoms: C_18  and  O_21
REMARK    7  A    between atoms: C_25  and  O_28
REMARK    8  A    between atoms: O_28  and  C_29
REMARK                            x       y       z     vdW  Elec       q    Type
REMARK                         _______ _______ _______ _____ _____    ______ ____
ROOT
ATOM      1  N   UNL     1      -1.985  -5.957  -0.011  0.00  0.00    -0.354 N 
ATOM      2  C   UNL     1      -2.788  -6.576   0.840  0.00  0.00    +0.054 A 
ATOM      3  C   UNL     1      -2.862  -7.993   0.888  0.00  0.00    +0.073 A 
ATOM      4  C   UNL     1      -3.698  -8.588   1.776  0.00  0.00    +0.138 A 
ATOM      5  O   UNL     1      -4.472  -7.887   2.624  0.00  0.00    -0.455 OA
ATOM      6  C   UNL     1      -4.473  -6.536   2.654  0.00  0.00    +0.138 A 
ATOM      7  C   UNL     1      -3.640  -5.818   1.783  0.00  0.00    +0.044 A 
ATOM      8  C   UNL     1      -3.628  -4.427   1.810  0.00  0.00    +0.059 A 
ATOM      9  C   UNL     1      -4.441  -3.755   2.707  0.00  0.00    +0.118 A 
ATOM     10  C   UNL     1      -5.261  -4.467   3.574  0.00  0.00    +0.049 A 
ATOM     11  C   UNL     1      -5.286  -5.846   3.543  0.00  0.00    +0.050 A 
ATOM     12  H   UNL     1      -1.657  -6.424  -0.796  0.00  0.00    +0.166 HD
ENDROOT
BRANCH   1  16
ATOM     13  C   UNL     1      -0.871  -2.032   0.674  0.00  0.00    +0.121 A 
ATOM     14  C   UNL     1      -0.561  -3.012   1.607  0.00  0.00    +0.047 A 
ATOM     15  C   UNL     1      -0.930  -4.322   1.384  0.00  0.00    +0.029 A 
ATOM     16  C   UNL     1      -1.617  -4.662   0.215  0.00  0.00    +0.040 A 
ATOM     17  C   UNL     1      -1.927  -3.671  -0.722  0.00  0.00    +0.029 A 
ATOM     18  C   UNL     1      -1.558  -2.364  -0.486  0.00  0.00    +0.047 A 
BRANCH  13  19
ATOM     19  O   UNL     1      -0.505  -0.742   0.899  0.00  0.00    -0.492 OA
BRANCH  19  21
ATOM     20  C   UNL     1       0.525   1.023   2.190  0.00  0.00    +0.048 C 
ATOM     21  C   UNL     1       0.200  -0.470   2.112  0.00  0.00    +0.225 C 
ENDBRANCH  19  21
ENDBRANCH  13  19
ENDBRANCH   1  16
BRANCH   4  22
ATOM     22  C   UNL     1      -3.762 -10.062   1.812  0.00  0.00    +0.018 A 
ATOM     23  C   UNL     1      -2.967 -10.819   0.948  0.00  0.00    +0.015 A 
ATOM     24  C   UNL     1      -3.030 -12.194   0.985  0.00  0.00    +0.046 A 
ATOM     25  C   UNL     1      -3.882 -12.829   1.880  0.00  0.00    +0.120 A 
ATOM     26  C   UNL     1      -4.675 -12.080   2.741  0.00  0.00    +0.046 A 
ATOM     27  C   UNL     1      -4.614 -10.704   2.715  0.00  0.00    +0.015 A 
BRANCH  25  28
ATOM     28  O   UNL     1      -3.942 -14.185   1.912  0.00  0.00    -0.495 OA
ATOM     29  C   UNL     1      -4.839 -14.773   2.856  0.00  0.00    +0.277 C 
ENDBRANCH  25  28
ENDBRANCH   4  22
BRANCH   9  30
ATOM     30  O   UNL     1      -4.436  -2.396   2.739  0.00  0.00    -0.507 OA
ATOM     31  H   UNL     1      -5.083  -1.986   2.149  0.00  0.00    +0.292 HD
ENDBRANCH   9  30
TORSDOF 6
