REMARK  Name = ZINC37799193
REMARK  7 active torsions:
REMARK  status: ('A' for Active; 'I' for Inactive)
REMARK    1  A    between atoms: C_1  and  N_2
REMARK    2  A    between atoms: N_2  and  C_3
REMARK    3  A    between atoms: C_3  and  C_4
REMARK    4  A    between atoms: C_12  and  C_14
REMARK    5  A    between atoms: C_14  and  C_16
REMARK    6  A    between atoms: C_14  and  N_20
REMARK    7  A    between atoms: C_16  and  C_17
REMARK                            x       y       z     vdW  Elec       q    Type
REMARK                         _______ _______ _______ _____ _____    ______ ____
ROOT
ATOM      1  C   UNL     1      -0.018   1.461   0.010  0.00  0.00    +0.132 C 
ATOM      2  N   UNL     1       0.002  -0.004   0.002  0.00  0.00    -0.302 N 
ATOM      3  C   UNL     1       0.000  -0.672  -1.169  0.00  0.00    +0.202 C 
ATOM      4  O   UNL     1       0.017  -1.884  -1.175  0.00  0.00    -0.277 OA
ENDROOT
BRANCH   2   5
ATOM      5  C   UNL     1       0.024  -0.743   1.267  0.00  0.00    +0.142 C 
BRANCH   5   6
ATOM      6  C   UNL     1      -1.389  -1.016   1.714  0.00  0.00    -0.029 A 
ATOM      7  C   UNL     1      -2.047  -0.105   2.519  0.00  0.00    +0.007 A 
ATOM      8  C   UNL     1      -3.343  -0.354   2.930  0.00  0.00    +0.022 A 
ATOM      9  C   UNL     1      -3.982  -1.516   2.535  0.00  0.00    +0.059 A 
ATOM     10  C   UNL     1      -3.323  -2.428   1.729  0.00  0.00    +0.060 A 
ATOM     11  C   UNL     1      -2.028  -2.175   1.314  0.00  0.00    +0.026 A 
ATOM     12 CL   UNL     1      -4.124  -3.887   1.234  0.00  0.00    -0.082 Cl
ATOM     13 CL   UNL     1      -5.610  -1.829   3.052  0.00  0.00    -0.082 Cl
ENDBRANCH   5   6
ENDBRANCH   2   5
BRANCH   3  14
ATOM     14  C   UNL     1      -0.023   0.089  -2.470  0.00  0.00    +0.022 C 
BRANCH  14  15
ATOM     15  N   UNL     1      -0.494  -0.794  -3.545  0.00  0.00    +0.386 N 
ATOM     16  H   UNL     1       0.127  -1.585  -3.628  0.00  0.00    -0.089 HD
ATOM     17  H   UNL     1      -1.425  -1.119  -3.329  0.00  0.00    -0.089 HD
ATOM     18  H   UNL     1      -0.510  -0.285  -4.416  0.00  0.00    -0.089 HD
ENDBRANCH  14  15
BRANCH  14  19
ATOM     19  C   UNL     1       1.388   0.582  -2.797  0.00  0.00    +0.088 C 
BRANCH  19  20
ATOM     20  C   UNL     1       1.345   1.445  -4.032  0.00  0.00    +0.209 C 
ATOM     21  O   UNL     1       0.290   1.646  -4.594  0.00  0.00    -0.276 OA
ATOM     22  N   UNL     1       2.479   1.993  -4.510  0.00  0.00    -0.329 N 
ATOM     23  H   UNL     1       3.324   1.833  -4.060  0.00  0.00    +0.145 HD
ATOM     24  H   UNL     1       2.452   2.549  -5.305  0.00  0.00    +0.145 HD
ENDBRANCH  19  20
ENDBRANCH  14  19
ENDBRANCH   3  14
TORSDOF 6
