REMARK  Name = ZINC51113404
REMARK  6 active torsions:
REMARK  status: ('A' for Active; 'I' for Inactive)
REMARK    1  A    between atoms: C_1  and  C_2
REMARK    2  A    between atoms: C_2  and  C_18
REMARK    3  A    between atoms: C_4  and  N_6
REMARK    4  A    between atoms: C_7  and  C_9
REMARK    5  A    between atoms: C_11  and  N_16
REMARK    6  A    between atoms: N_16  and  N_17
REMARK                            x       y       z     vdW  Elec       q    Type
REMARK                         _______ _______ _______ _____ _____    ______ ____
ROOT
ATOM      1  C   UNL     1       3.153  -3.609   1.371  0.00  0.00    +0.043 A 
ATOM      2  C   UNL     1       4.204  -4.040   2.183  0.00  0.00    +0.057 A 
ATOM      3  C   UNL     1       4.853  -5.228   1.869  0.00  0.00    +0.134 A 
ATOM      4  N   UNL     1       4.484  -5.944   0.818  0.00  0.00    -0.220 NA
ATOM      5  C   UNL     1       3.495  -5.567   0.030  0.00  0.00    +0.132 A 
ATOM      6  C   UNL     1       2.795  -4.402   0.275  0.00  0.00    +0.053 A 
ATOM      7 CL   UNL     1       3.063  -6.554  -1.332  0.00  0.00    -0.062 Cl
ENDROOT
BRANCH   1   9
ATOM      8  N   UNL     1       1.415  -1.953   0.875  0.00  0.00    -0.308 N 
ATOM      9  C   UNL     1       2.431  -2.349   1.667  0.00  0.00    +0.245 C 
ATOM     10  O   UNL     1       2.755  -1.673   2.623  0.00  0.00    -0.270 OA
ATOM     11  H   UNL     1       1.156  -2.493   0.112  0.00  0.00    +0.149 HD
BRANCH   8  15
ATOM     12  C   UNL     1      -0.019   1.526   0.010  0.00  0.00    +0.013 C 
ATOM     13  C   UNL     1       0.002  -0.004   0.002  0.00  0.00    -0.015 C 
ATOM     14  C   UNL     1      -0.825  -0.728   1.066  0.00  0.00    +0.031 C 
ATOM     15  C   UNL     1       0.701  -0.708   1.167  0.00  0.00    +0.080 C 
ATOM     16  C   UNL     1       0.102  -0.655  -1.379  0.00  0.00    +0.013 C 
ENDBRANCH   8  15
ENDBRANCH   1   9
BRANCH   3  17
ATOM     17  N   UNL     1       5.902  -5.670   2.667  0.00  0.00    -0.267 N 
ATOM     18  H   UNL     1       6.178  -5.149   3.438  0.00  0.00    +0.167 HD
BRANCH  17  19
ATOM     19  N   UNL     1       6.546  -6.837   2.366  0.00  0.00    -0.255 NA
ATOM     20  H   UNL     1       6.906  -6.818   1.423  0.00  0.00    +0.140 HD
ATOM     21  H   UNL     1       7.281  -7.027   3.030  0.00  0.00    +0.140 HD
ENDBRANCH  17  19
ENDBRANCH   3  17
TORSDOF 4
