REMARK  Name = ZINC04884142
REMARK  10 active torsions:
REMARK  status: ('A' for Active; 'I' for Inactive)
REMARK    1  A    between atoms: C_1  and  C_2
REMARK    2  A    between atoms: C_2  and  O_3
REMARK    3  A    between atoms: O_3  and  C_4
REMARK    4  A    between atoms: C_4  and  C_6
REMARK    5  A    between atoms: C_6  and  C_26
REMARK    6  A    between atoms: C_11  and  C_13
REMARK    7  A    between atoms: C_18  and  C_19
REMARK    8  A    between atoms: N_22  and  C_25
REMARK    9  A    between atoms: C_26  and  C_27
REMARK   10  A    between atoms: C_30  and  O_33
REMARK                            x       y       z     vdW  Elec       q    Type
REMARK                         _______ _______ _______ _____ _____    ______ ____
ROOT
ATOM      1  C   UNL     1      -2.053   1.948   1.485  0.00  0.00    +0.048 C 
ATOM      2  C   UNL     1      -1.259   1.975   0.163  0.00  0.00    +0.086 C 
ATOM      3  C   UNL     1      -0.643   3.399   0.100  0.00  0.00    +0.077 C 
ATOM      4  C   UNL     1      -1.118   4.098   1.390  0.00  0.00    -0.026 C 
ATOM      5  C   UNL     1       0.844   3.141   0.192  0.00  0.00    +0.224 C 
ATOM      6  O   UNL     1       1.705   3.994   0.175  0.00  0.00    -0.275 OA
ATOM      7  N   UNL     1       1.061   1.825   0.294  0.00  0.00    -0.245 N 
ATOM      8  C   UNL     1      -0.049   1.077   0.291  0.00  0.00    +0.225 C 
ATOM      9  O   UNL     1      -0.079  -0.132   0.372  0.00  0.00    -0.275 OA
ATOM     10  C   UNL     1       2.404   1.249   0.401  0.00  0.00    +0.141 C 
ATOM     11  N   UNL     1      -1.421   2.991   2.296  0.00  0.00    +0.396 N 
ATOM     12  H   UNL     1      -0.557   2.634   2.720  0.00  0.00    -0.083 HD
ATOM     13  H   UNL     1      -2.062   3.303   3.034  0.00  0.00    -0.083 HD
ENDROOT
BRANCH   4  14
ATOM     14  C   UNL     1      -0.031   4.987   1.936  0.00  0.00    -0.058 A 
ATOM     15  C   UNL     1       0.835   4.507   2.901  0.00  0.00    +0.002 A 
ATOM     16  C   UNL     1       1.836   5.320   3.398  0.00  0.00    +0.000 A 
ATOM     17  C   UNL     1       1.964   6.618   2.939  0.00  0.00    +0.000 A 
ATOM     18  C   UNL     1       1.095   7.100   1.978  0.00  0.00    +0.003 A 
ATOM     19  C   UNL     1       0.098   6.284   1.477  0.00  0.00    -0.049 A 
ATOM     20  C   UNL     1      -0.850   6.810   0.430  0.00  0.00    +0.044 C 
ENDBRANCH   4  14
BRANCH   1  21
ATOM     21  C   UNL     1      -3.500   2.289   1.235  0.00  0.00    +0.297 C 
ATOM     22  O   UNL     1      -3.987   2.095   0.147  0.00  0.00    -0.252 OA
BRANCH  21  23
ATOM     23  O   UNL     1      -4.247   2.809   2.222  0.00  0.00    -0.466 OA
BRANCH  23  25
ATOM     24  C   UNL     1      -6.318   3.692   3.149  0.00  0.00    +0.048 C 
ATOM     25  C   UNL     1      -5.632   3.112   1.910  0.00  0.00    +0.228 C 
ENDBRANCH  23  25
ENDBRANCH  21  23
ENDBRANCH   1  21
BRANCH   1  26
ATOM     26  C   UNL     1      -1.937   0.575   2.149  0.00  0.00    +0.034 C 
BRANCH  26  27
ATOM     27  C   UNL     1      -2.719   0.572   3.437  0.00  0.00    -0.048 A 
ATOM     28  C   UNL     1      -2.102   0.934   4.620  0.00  0.00    +0.007 A 
ATOM     29  C   UNL     1      -2.819   0.937   5.801  0.00  0.00    +0.045 A 
ATOM     30  C   UNL     1      -4.156   0.566   5.801  0.00  0.00    +0.117 A 
ATOM     31  C   UNL     1      -4.771   0.198   4.614  0.00  0.00    +0.045 A 
ATOM     32  C   UNL     1      -4.051   0.202   3.434  0.00  0.00    +0.007 A 
BRANCH  30  33
ATOM     33  O   UNL     1      -4.861   0.564   6.963  0.00  0.00    -0.507 OA
ATOM     34  H   UNL     1      -4.832  -0.278   7.439  0.00  0.00    +0.292 HD
ENDBRANCH  30  33
ENDBRANCH  26  27
ENDBRANCH   1  26
TORSDOF 7
