REMARK  Name = ZINC52796315
REMARK  7 active torsions:
REMARK  status: ('A' for Active; 'I' for Inactive)
REMARK    1  A    between atoms: C_1  and  C_2
REMARK    2  A    between atoms: C_7  and  N_12
REMARK    3  A    between atoms: C_9  and  C_11
REMARK    4  A    between atoms: C_13  and  C_15
REMARK    5  A    between atoms: C_15  and  N_16
REMARK    6  A    between atoms: C_19  and  C_23
REMARK    7  A    between atoms: C_19  and  C_24
REMARK                            x       y       z     vdW  Elec       q    Type
REMARK                         _______ _______ _______ _____ _____    ______ ____
ROOT
ATOM      1  N   UNL     1       1.473  -5.605   4.455  0.00  0.00    -0.215 N 
ATOM      2  C   UNL     1       0.434  -5.873   5.270  0.00  0.00    +0.254 C 
ATOM      3  O   UNL     1      -0.267  -5.072   5.851  0.00  0.00    -0.272 OA
ATOM      4  C   UNL     1       0.325  -7.384   5.311  0.00  0.00    +0.168 C 
ATOM      5  N   UNL     1       1.417  -7.834   4.431  0.00  0.00    -0.279 N 
ATOM      6  C   UNL     1       2.026  -6.725   3.975  0.00  0.00    +0.310 C 
ATOM      7  O   UNL     1       2.975  -6.738   3.216  0.00  0.00    -0.252 OA
ATOM      8  C   UNL     1       0.534  -7.901   6.736  0.00  0.00    +0.050 C 
ATOM      9  H   UNL     1       1.650  -8.752   4.219  0.00  0.00    +0.152 HD
ENDROOT
BRANCH   4  10
ATOM     10  C   UNL     1      -1.009  -7.834   4.773  0.00  0.00    +0.138 A 
ATOM     11  C   UNL     1      -1.233  -9.001   4.153  0.00  0.00    +0.056 A 
ATOM     12  C   UNL     1      -2.659  -9.013   3.806  0.00  0.00    +0.020 A 
ATOM     13  C   UNL     1      -3.498  -9.922   3.163  0.00  0.00    +0.011 A 
ATOM     14  C   UNL     1      -4.820  -9.620   2.993  0.00  0.00    +0.001 A 
ATOM     15  C   UNL     1      -5.331  -8.415   3.454  0.00  0.00    +0.004 A 
ATOM     16  C   UNL     1      -4.517  -7.504   4.092  0.00  0.00    +0.047 A 
ATOM     17  C   UNL     1      -3.170  -7.792   4.276  0.00  0.00    +0.135 A 
ATOM     18  O   UNL     1      -2.149  -7.125   4.850  0.00  0.00    -0.457 OA
ENDBRANCH   4  10
BRANCH   1  19
ATOM     19  C   UNL     1       1.936  -4.254   4.128  0.00  0.00    +0.213 C 
BRANCH  19  21
ATOM     20  N   UNL     1       1.471  -2.526   2.420  0.00  0.00    -0.311 N 
ATOM     21  C   UNL     1       1.207  -3.754   2.907  0.00  0.00    +0.231 C 
ATOM     22  O   UNL     1       0.382  -4.458   2.364  0.00  0.00    -0.274 OA
ATOM     23  H   UNL     1       2.131  -1.963   2.855  0.00  0.00    +0.149 HD
BRANCH  20  29
ATOM     24  C   UNL     1      -0.019   1.526   0.010  0.00  0.00    +0.008 C 
ATOM     25  C   UNL     1       0.002  -0.004   0.002  0.00  0.00    -0.009 C 
ATOM     26  C   UNL     1       0.718  -0.497  -1.257  0.00  0.00    +0.003 C 
ATOM     27  C   UNL     1       0.739  -2.027  -1.265  0.00  0.00    +0.002 C 
ATOM     28  C   UNL     1       1.479  -2.534  -0.026  0.00  0.00    +0.022 C 
ATOM     29  C   UNL     1       0.763  -2.041   1.233  0.00  0.00    +0.076 C 
ATOM     30  C   UNL     1       0.742  -0.511   1.242  0.00  0.00    +0.009 C 
ATOM     31  C   UNL     1       0.026  -0.018   2.500  0.00  0.00    +0.009 C 
ENDBRANCH  20  29
ENDBRANCH  19  21
ENDBRANCH   1  19
TORSDOF 4
