REMARK  Name = ZINC40824981
REMARK  5 active torsions:
REMARK  status: ('A' for Active; 'I' for Inactive)
REMARK    1  A    between atoms: C_1  and  C_2
REMARK    2  A    between atoms: C_6  and  C_7
REMARK    3  A    between atoms: C_7  and  O_9
REMARK    4  A    between atoms: O_9  and  C_10
REMARK    5  A    between atoms: N_24  and  N_25
REMARK                            x       y       z     vdW  Elec       q    Type
REMARK                         _______ _______ _______ _____ _____    ______ ____
ROOT
ATOM      1  C   UNL     1      -0.303   1.509   0.033  0.00  0.00    +0.048 C 
ATOM      2  C   UNL     1      -0.175   0.007   0.013  0.00  0.00    +0.011 A 
ATOM      3  C   UNL     1      -0.136  -0.818  -1.116  0.00  0.00    +0.043 A 
ATOM      4  C   UNL     1      -0.014  -2.115  -0.676  0.00  0.00    +0.115 A 
ATOM      5  O   UNL     1       0.024  -2.097   0.654  0.00  0.00    -0.452 OA
ATOM      6  C   UNL     1      -0.068  -0.822   1.097  0.00  0.00    +0.215 A 
ATOM      7  C   UNL     1       0.056  -3.295  -1.612  0.00  0.00    +0.075 C 
ATOM      8  C   UNL     1      -0.530  -2.902  -2.971  0.00  0.00    +0.014 C 
ATOM      9  C   UNL     1       0.139  -1.630  -3.500  0.00  0.00    +0.058 C 
ATOM     10  C   UNL     1      -0.201  -0.485  -2.557  0.00  0.00    +0.072 C 
ATOM     11  N   UNL     1      -0.525   0.696  -2.985  0.00  0.00    -0.175 NA
ENDROOT
BRANCH  11  12
ATOM     12  N   UNL     1      -0.571   0.955  -4.361  0.00  0.00    -0.248 N 
ATOM     13  C   UNL     1      -0.912   2.201  -4.812  0.00  0.00    +0.187 C 
ATOM     14  N   UNL     1      -0.956   2.447  -6.121  0.00  0.00    -0.370 N 
ATOM     15  N   UNL     1      -1.202   3.168  -3.942  0.00  0.00    -0.370 N 
ATOM     16  H   UNL     1      -0.360   0.251  -4.994  0.00  0.00    +0.192 HD
ATOM     17  H   UNL     1      -0.746   1.743  -6.754  0.00  0.00    +0.159 HD
ATOM     18  H   UNL     1      -1.170   2.989  -2.989  0.00  0.00    +0.159 HD
ATOM     19  H   UNL     1      -1.444   4.052  -4.262  0.00  0.00    +0.159 HD
ATOM     20  H   UNL     1      -1.198   3.330  -6.441  0.00  0.00    +0.159 HD
ENDBRANCH  11  12
BRANCH   6  21
ATOM     21  C   UNL     1      -0.058  -0.400   2.500  0.00  0.00    +0.380 C 
ATOM     22  O   UNL     1      -0.150   0.780   2.781  0.00  0.00    -0.241 OA
BRANCH  21  23
ATOM     23  O   UNL     1       0.054  -1.320   3.480  0.00  0.00    -0.418 OA
BRANCH  23  24
ATOM     24  C   UNL     1       0.165  -0.878   4.760  0.00  0.00    +0.158 A 
ATOM     25  C   UNL     1       1.397  -0.714   5.325  0.00  0.00    +0.048 A 
ATOM     26  C   UNL     1       1.531  -0.262   6.635  0.00  0.00    +0.004 A 
ATOM     27  C   UNL     1       0.435   0.029   7.391  0.00  0.00    +0.010 A 
ATOM     28  C   UNL     1      -0.849  -0.128   6.844  0.00  0.00    +0.004 A 
ATOM     29  C   UNL     1      -0.992  -0.581   5.510  0.00  0.00    +0.113 A 
ATOM     30  N   UNL     1      -2.212  -0.727   4.984  0.00  0.00    -0.251 NA
ATOM     31  C   UNL     1      -3.290  -0.453   5.677  0.00  0.00    +0.111 A 
ATOM     32  C   UNL     1      -3.220   0.002   6.992  0.00  0.00    +0.020 A 
ATOM     33  C   UNL     1      -2.005   0.163   7.594  0.00  0.00    +0.011 A 
ENDBRANCH  23  24
ENDBRANCH  21  23
ENDBRANCH   6  21
TORSDOF 4
