REMARK  Name = ZINC14923835
REMARK  7 active torsions:
REMARK  status: ('A' for Active; 'I' for Inactive)
REMARK    1  A    between atoms: C_1  and  C_2
REMARK    2  A    between atoms: C_2  and  C_4
REMARK    3  A    between atoms: C_2  and  N_51
REMARK    4  A    between atoms: N_6  and  C_7
REMARK    5  A    between atoms: C_7  and  C_8
REMARK    6  A    between atoms: N_17  and  C_20
REMARK    7  A    between atoms: C_25  and  N_26
REMARK                            x       y       z     vdW  Elec       q    Type
REMARK                         _______ _______ _______ _____ _____    ______ ____
ROOT
ATOM      1  C   UNL     1       0.094  -2.646   1.470  0.00  0.00    -0.059 C 
ATOM      2  C   UNL     1       0.435  -1.190   1.796  0.00  0.00    +0.086 C 
ATOM      3  N   UNL     1       1.144  -0.589   0.657  0.00  0.00    -0.332 N 
ATOM      4  C   UNL     1       0.318  -0.636  -0.557  0.00  0.00    +0.086 C 
ATOM      5  C   UNL     1      -0.024  -2.092  -0.883  0.00  0.00    -0.059 C 
ATOM      6  N   UNL     1      -0.755  -2.677   0.260  0.00  0.00    +0.389 N 
ATOM      7  H   UNL     1      -1.602  -2.124   0.432  0.00  0.00    -0.081 HD
ENDROOT
BRANCH   3   8
ATOM      8  C   UNL     1       1.536   0.720   0.946  0.00  0.00    +0.060 A 
ATOM      9  C   UNL     1       0.580   1.680   1.255  0.00  0.00    +0.025 A 
ATOM     10  C   UNL     1       0.972   2.972   1.546  0.00  0.00    +0.002 A 
ATOM     11  C   UNL     1       2.312   3.314   1.518  0.00  0.00    +0.002 A 
ATOM     12  C   UNL     1       3.264   2.362   1.205  0.00  0.00    +0.034 A 
ATOM     13  C   UNL     1       2.880   1.066   0.919  0.00  0.00    +0.147 A 
BRANCH  13  14
ATOM     14  N   UNL     1       3.901   0.048   0.584  0.00  0.00    +0.058 N 
ATOM     15  O   UNL     1       5.080   0.352   0.560  0.00  0.00    -0.126 OA
ATOM     16  O   UNL     1       3.561  -1.094   0.331  0.00  0.00    -0.126 OA
ENDBRANCH  13  14
ENDBRANCH   3   8
BRANCH   6  18
ATOM     17  C   UNL     1      -1.927  -4.090  -1.363  0.00  0.00    -0.004 C 
ATOM     18  C   UNL     1      -1.144  -4.070  -0.049  0.00  0.00    +0.016 C 
BRANCH  18  19
ATOM     19  C   UNL     1      -2.017  -4.590   1.064  0.00  0.00    +0.199 C 
ATOM     20  O   UNL     1      -2.669  -3.818   1.735  0.00  0.00    -0.278 OA
ATOM     21  N   UNL     1      -2.072  -5.913   1.315  0.00  0.00    -0.313 N 
ATOM     22  H   UNL     1      -1.550  -6.531   0.778  0.00  0.00    +0.149 HD
BRANCH  21  23
ATOM     23  C   UNL     1      -2.921  -6.419   2.396  0.00  0.00    +0.139 C 
BRANCH  23  24
ATOM     24  C   UNL     1      -2.804  -7.920   2.466  0.00  0.00    -0.030 A 
ATOM     25  C   UNL     1      -3.668  -8.715   1.736  0.00  0.00    +0.006 A 
ATOM     26  C   UNL     1      -3.558 -10.091   1.795  0.00  0.00    +0.020 A 
ATOM     27  C   UNL     1      -2.591 -10.674   2.594  0.00  0.00    +0.041 A 
ATOM     28  C   UNL     1      -1.730  -9.878   3.329  0.00  0.00    +0.020 A 
ATOM     29  C   UNL     1      -1.837  -8.502   3.265  0.00  0.00    +0.006 A 
ATOM     30 CL   UNL     1      -2.456 -12.403   2.674  0.00  0.00    -0.084 Cl
ENDBRANCH  23  24
ENDBRANCH  21  23
ENDBRANCH  18  19
ENDBRANCH   6  18
TORSDOF 6
