REMARK  Name = ZINC50095652
REMARK  7 active torsions:
REMARK  status: ('A' for Active; 'I' for Inactive)
REMARK    1  A    between atoms: C_1  and  C_2
REMARK    2  A    between atoms: C_4  and  C_7
REMARK    3  A    between atoms: C_7  and  N_8
REMARK    4  A    between atoms: N_8  and  C_9
REMARK    5  A    between atoms: N_12  and  N_13
REMARK    6  A    between atoms: C_14  and  C_16
REMARK    7  A    between atoms: C_23  and  C_26
REMARK                            x       y       z     vdW  Elec       q    Type
REMARK                         _______ _______ _______ _____ _____    ______ ____
ROOT
ATOM      1  N   UNL     1      -1.558  -4.883  -3.526  0.00  0.00    -0.229 N 
ATOM      2  C   UNL     1      -1.544  -5.441  -4.752  0.00  0.00    +0.267 C 
ATOM      3  O   UNL     1      -2.353  -5.088  -5.590  0.00  0.00    -0.268 OA
ATOM      4  H   UNL     1      -0.912  -5.163  -2.858  0.00  0.00    +0.173 HD
ENDROOT
BRANCH   2   5
ATOM      5  C   UNL     1      -0.554  -6.472  -5.077  0.00  0.00    +0.076 A 
ATOM      6  C   UNL     1      -0.367  -7.158  -6.263  0.00  0.00    +0.024 A 
ATOM      7  C   UNL     1       0.659  -8.092  -6.291  0.00  0.00    -0.036 A 
ATOM      8  C   UNL     1       1.383  -8.241  -5.144  0.00  0.00    -0.006 A 
ATOM      9  S   UNL     1       0.729  -7.163  -4.050  0.00  0.00    -0.088 S 
ATOM     10  C   UNL     1       2.532  -9.180  -4.925  0.00  0.00    +0.043 C 
ATOM     11  C   UNL     1       2.536 -10.216  -6.057  0.00  0.00    +0.009 C 
ATOM     12  C   UNL     1       2.394  -9.485  -7.395  0.00  0.00    -0.009 C 
ATOM     13  C   UNL     1       0.980  -8.921  -7.531  0.00  0.00    +0.039 C 
ATOM     14  C   UNL     1       2.663 -10.464  -8.540  0.00  0.00    +0.008 C 
ENDBRANCH   2   5
BRANCH   1  19
ATOM     15  N   UNL     1      -3.560  -2.541  -1.636  0.00  0.00    -0.282 N 
ATOM     16  C   UNL     1      -4.601  -2.210  -2.612  0.00  0.00    +0.134 C 
ATOM     17  C   UNL     1      -2.584  -3.412  -1.960  0.00  0.00    +0.319 C 
ATOM     18  O   UNL     1      -1.776  -3.759  -1.121  0.00  0.00    -0.251 OA
ATOM     19  N   UNL     1      -2.504  -3.897  -3.215  0.00  0.00    -0.218 N 
ATOM     20  H   UNL     1      -3.101  -3.564  -3.903  0.00  0.00    +0.174 HD
BRANCH  15  21
ATOM     21  C   UNL     1      -3.579  -1.924  -0.307  0.00  0.00    +0.167 C 
BRANCH  21  25
ATOM     22  C   UNL     1      -4.794  -5.403   3.211  0.00  0.00    +0.089 C 
ATOM     23  C   UNL     1      -4.894  -4.312   2.176  0.00  0.00    +0.135 A 
ATOM     24  C   UNL     1      -3.865  -3.763   1.503  0.00  0.00    +0.072 A 
ATOM     25  C   UNL     1      -4.382  -2.785   0.634  0.00  0.00    +0.101 A 
ATOM     26  N   UNL     1      -5.675  -2.753   0.786  0.00  0.00    -0.081 NA
ATOM     27  O   UNL     1      -6.024  -3.721   1.760  0.00  0.00    -0.360 OA
ENDBRANCH  21  25
ENDBRANCH  15  21
ENDBRANCH   1  19
TORSDOF 4
