REMARK  Name = ZINC20507009
REMARK  10 active torsions:
REMARK  status: ('A' for Active; 'I' for Inactive)
REMARK    1  A    between atoms: C_1  and  C_2
REMARK    2  A    between atoms: C_2  and  O_3
REMARK    3  A    between atoms: O_3  and  C_4
REMARK    4  A    between atoms: C_9  and  O_10
REMARK    5  A    between atoms: O_10  and  C_11
REMARK    6  A    between atoms: C_11  and  C_12
REMARK    7  A    between atoms: C_13  and  C_18
REMARK    8  A    between atoms: C_20  and  C_26
REMARK    9  A    between atoms: C_21  and  O_25
REMARK   10  A    between atoms: C_22  and  C_24
REMARK                            x       y       z     vdW  Elec       q    Type
REMARK                         _______ _______ _______ _____ _____    ______ ____
ROOT
ATOM      1  C   UNL     1      -0.145   4.275   0.032  0.00  0.00    +0.162 A 
ATOM      2  C   UNL     1       1.079   3.631   0.016  0.00  0.00    +0.053 A 
ATOM      3  C   UNL     1       1.143   2.245   0.003  0.00  0.00    -0.037 A 
ATOM      4  C   UNL     1      -0.018   1.502   0.010  0.00  0.00    -0.019 A 
ATOM      5  C   UNL     1      -1.248   2.144   0.031  0.00  0.00    +0.055 A 
ATOM      6  C   UNL     1      -1.318   3.526   0.036  0.00  0.00    +0.162 A 
ATOM      7  C   UNL     1       0.002  -0.004   0.002  0.00  0.00    +0.115 C 
ATOM      8  N   UNL     1       1.315  -0.497  -0.425  0.00  0.00    -0.305 NA
ATOM      9  C   UNL     1       2.379   0.121   0.382  0.00  0.00    +0.086 C 
ATOM     10  C   UNL     1       2.501   1.591  -0.020  0.00  0.00    +0.050 C 
ATOM     11  H   UNL     1       1.355  -1.589  -0.298  0.00  0.00    +0.123 HD
ENDROOT
BRANCH   7  12
ATOM     12  C   UNL     1      -1.053  -0.511  -0.948  0.00  0.00    -0.025 A 
ATOM     13  C   UNL     1      -0.807  -0.526  -2.308  0.00  0.00    +0.012 A 
ATOM     14  C   UNL     1      -1.770  -0.995  -3.180  0.00  0.00    -0.008 A 
ATOM     15  C   UNL     1      -2.989  -1.440  -2.691  0.00  0.00    +0.123 A 
ATOM     16  C   UNL     1      -3.236  -1.418  -1.326  0.00  0.00    -0.008 A 
ATOM     17  C   UNL     1      -2.267  -0.954  -0.457  0.00  0.00    +0.012 A 
ATOM     18  C   UNL     1      -4.560  -1.900  -0.791  0.00  0.00    +0.047 C 
ATOM     19  C   UNL     1      -1.498  -1.018  -4.662  0.00  0.00    +0.047 C 
BRANCH  15  20
ATOM     20  O   UNL     1      -3.941  -1.896  -3.547  0.00  0.00    -0.506 OA
ATOM     21  H   UNL     1      -4.907  -2.248  -3.158  0.00  0.00    +0.292 HD
ENDBRANCH  15  20
ENDBRANCH   7  12
BRANCH   1  22
ATOM     22  O   UNL     1      -0.202   5.634   0.043  0.00  0.00    -0.489 OA
BRANCH  22  24
ATOM     23  C   UNL     1       0.778   7.842   0.051  0.00  0.00    +0.048 C 
ATOM     24  C   UNL     1       1.042   6.335   0.037  0.00  0.00    +0.226 C 
ENDBRANCH  22  24
ENDBRANCH   1  22
BRANCH   6  25
ATOM     25  O   UNL     1      -2.526   4.149   0.051  0.00  0.00    -0.489 OA
BRANCH  25  26
ATOM     26  C   UNL     1      -3.686   3.314   0.055  0.00  0.00    +0.226 C 
ATOM     27  C   UNL     1      -4.943   4.187   0.071  0.00  0.00    +0.048 C 
ENDBRANCH  25  26
ENDBRANCH   6  25
TORSDOF 6
