REMARK  Name = ZINC46311664
REMARK  7 active torsions:
REMARK  status: ('A' for Active; 'I' for Inactive)
REMARK    1  A    between atoms: C_1  and  C_2
REMARK    2  A    between atoms: C_2  and  C_3
REMARK    3  A    between atoms: C_3  and  C_5
REMARK    4  A    between atoms: C_3  and  N_20
REMARK    5  A    between atoms: C_5  and  N_6
REMARK    6  A    between atoms: N_9  and  N_10
REMARK    7  A    between atoms: C_11  and  C_13
REMARK                            x       y       z     vdW  Elec       q    Type
REMARK                         _______ _______ _______ _____ _____    ______ ____
ROOT
ATOM      1  N   UNL     1       1.335  -2.612  -2.393  0.00  0.00    -0.300 N 
ATOM      2  C   UNL     1       1.425  -3.949  -2.534  0.00  0.00    +0.316 C 
ATOM      3  O   UNL     1       0.882  -4.684  -1.732  0.00  0.00    -0.251 OA
ATOM      4  N   UNL     1       2.118  -4.472  -3.565  0.00  0.00    -0.218 N 
ATOM      5  H   UNL     1       1.707  -2.026  -3.071  0.00  0.00    +0.150 HD
ATOM      6  H   UNL     1       2.125  -5.432  -3.708  0.00  0.00    +0.174 HD
ENDROOT
BRANCH   4   7
ATOM      7  N   UNL     1       2.829  -3.630  -4.431  0.00  0.00    -0.229 N 
ATOM      8  C   UNL     1       3.434  -4.141  -5.521  0.00  0.00    +0.263 C 
ATOM      9  O   UNL     1       3.289  -5.314  -5.804  0.00  0.00    -0.269 OA
ATOM     10  H   UNL     1       2.885  -2.680  -4.245  0.00  0.00    +0.173 HD
BRANCH   8  11
ATOM     11  C   UNL     1       4.274  -3.275  -6.373  0.00  0.00    +0.073 A 
ATOM     12  C   UNL     1       4.535  -1.956  -5.993  0.00  0.00    +0.016 A 
ATOM     13  C   UNL     1       5.320  -1.153  -6.792  0.00  0.00    +0.001 A 
ATOM     14  C   UNL     1       5.850  -1.649  -7.971  0.00  0.00    +0.003 A 
ATOM     15  C   UNL     1       5.598  -2.952  -8.357  0.00  0.00    +0.039 A 
ATOM     16  C   UNL     1       4.816  -3.772  -7.562  0.00  0.00    +0.136 A 
ATOM     17  F   UNL     1       4.575  -5.047  -7.936  0.00  0.00    -0.205 F 
ENDBRANCH   8  11
ENDBRANCH   4   7
BRANCH   1  18
ATOM     18  C   UNL     1       0.676  -2.043  -1.214  0.00  0.00    +0.090 C 
BRANCH  18  19
ATOM     19  C   UNL     1       0.577  -0.524  -1.369  0.00  0.00    -0.051 C 
BRANCH  19  20
ATOM     20  N   UNL     1      -0.467  -0.199  -2.350  0.00  0.00    +0.385 N 
ATOM     21  C   UNL     1      -1.722  -0.868  -1.974  0.00  0.00    -0.073 C 
ATOM     22  C   UNL     1      -2.857  -0.282  -2.815  0.00  0.00    +0.017 C 
ATOM     23  C   UNL     1      -2.478  -0.308  -4.274  0.00  0.00    -0.048 A 
ATOM     24  C   UNL     1      -3.475  -0.150  -5.223  0.00  0.00    +0.004 A 
ATOM     25  C   UNL     1      -3.165  -0.166  -6.568  0.00  0.00    +0.000 A 
ATOM     26  C   UNL     1      -1.854  -0.338  -6.970  0.00  0.00    +0.000 A 
ATOM     27  C   UNL     1      -0.860  -0.496  -6.025  0.00  0.00    +0.002 A 
ATOM     28  C   UNL     1      -1.170  -0.483  -4.673  0.00  0.00    -0.061 A 
ATOM     29  C   UNL     1      -0.055  -0.667  -3.677  0.00  0.00    -0.042 C 
ATOM     30  H   UNL     1      -0.609   0.800  -2.374  0.00  0.00    -0.081 HD
ENDBRANCH  19  20
BRANCH  19  32
ATOM     31  C   UNL     1       0.197   1.627  -0.157  0.00  0.00    +0.002 C 
ATOM     32  C   UNL     1       0.222   0.103  -0.020  0.00  0.00    -0.017 C 
ENDBRANCH  19  32
ENDBRANCH  18  19
ENDBRANCH   1  18
TORSDOF 6
