REMARK  Name = ZINC38688943
REMARK  7 active torsions:
REMARK  status: ('A' for Active; 'I' for Inactive)
REMARK    1  A    between atoms: C_7  and  C_10
REMARK    2  A    between atoms: N_11  and  N_12
REMARK    3  A    between atoms: C_13  and  C_15
REMARK    4  A    between atoms: C_17  and  C_28
REMARK    5  A    between atoms: C_28  and  N_29
REMARK    6  A    between atoms: N_29  and  C_30
REMARK    7  A    between atoms: C_35  and  C_36
REMARK                            x       y       z     vdW  Elec       q    Type
REMARK                         _______ _______ _______ _____ _____    ______ ____
ROOT
ATOM      1  C   UNL     1      -0.258  -7.996  -0.095  0.00  0.00    +0.240 C 
ATOM      2  C   UNL     1      -0.715  -8.196  -1.556  0.00  0.00    +0.154 C 
ATOM      3  N   UNL     1      -0.192  -9.539  -1.869  0.00  0.00    -0.176 N 
ATOM      4  N   UNL     1       0.463 -10.009  -0.730  0.00  0.00    -0.077 NA
ATOM      5  N   UNL     1       0.455  -9.239   0.229  0.00  0.00    -0.156 NA
ATOM      6  C   UNL     1      -0.327 -10.215  -3.080  0.00  0.00    +0.228 A 
ATOM      7  C   UNL     1       0.098 -11.593  -3.346  0.00  0.00    +0.204 A 
ATOM      8  N   UNL     1      -0.191 -11.879  -4.586  0.00  0.00    -0.032 NA
ATOM      9  O   UNL     1      -0.797 -10.737  -5.165  0.00  0.00    -0.239 OA
ATOM     10  N   UNL     1      -0.858  -9.732  -4.169  0.00  0.00    -0.030 NA
ATOM     11  N   UNL     1       0.704 -12.449  -2.433  0.00  0.00    -0.338 N 
ATOM     12  H   UNL     1       0.880 -12.147  -1.528  0.00  0.00    +0.144 HD
ATOM     13  H   UNL     1       0.951 -13.348  -2.701  0.00  0.00    +0.144 HD
ENDROOT
BRANCH   1  15
ATOM     14  N   UNL     1       0.161  -5.566   0.089  0.00  0.00    -0.205 N 
ATOM     15  C   UNL     1       0.667  -6.812   0.013  0.00  0.00    +0.261 C 
ATOM     16  O   UNL     1       1.868  -6.981   0.030  0.00  0.00    -0.272 OA
ATOM     17  H   UNL     1      -0.800  -5.431   0.074  0.00  0.00    +0.177 HD
BRANCH  14  19
ATOM     18  C   UNL     1       0.529  -3.253   0.263  0.00  0.00    +0.136 C 
ATOM     19  N   UNL     1       1.021  -4.464   0.189  0.00  0.00    -0.188 NA
BRANCH  18  26
ATOM     20  C   UNL     1      -0.269   1.200   0.561  0.00  0.00    +0.001 A 
ATOM     21  C   UNL     1       0.893   1.972   0.645  0.00  0.00    +0.002 A 
ATOM     22  C   UNL     1       2.126   1.412   0.636  0.00  0.00    +0.026 A 
ATOM     23  C   UNL     1       2.260   0.001   0.539  0.00  0.00    +0.043 A 
ATOM     24  N   UNL     1       3.325  -0.773   0.509  0.00  0.00    -0.380 N 
ATOM     25  C   UNL     1       2.902  -2.173   0.399  0.00  0.00    +0.150 C 
ATOM     26  C   UNL     1       1.390  -2.151   0.363  0.00  0.00    +0.000 C 
ATOM     27  C   UNL     1       1.032  -0.808   0.451  0.00  0.00    +0.004 A 
ATOM     28  C   UNL     1      -0.219  -0.153   0.466  0.00  0.00    +0.010 A 
ATOM     29  H   UNL     1       4.244  -0.466   0.554  0.00  0.00    +0.160 HD
ENDBRANCH  18  26
ENDBRANCH  14  19
ENDBRANCH   1  15
BRANCH   2  30
ATOM     30  C   UNL     1      -2.241  -8.164  -1.658  0.00  0.00    +0.128 C 
BRANCH  30  31
ATOM     31  N   UNL     1      -2.803  -9.302  -0.928  0.00  0.00    -0.341 N 
ATOM     32  H   UNL     1      -2.221  -9.887  -0.418  0.00  0.00    +0.146 HD
BRANCH  31  33
ATOM     33  C   UNL     1      -4.170  -9.545  -0.965  0.00  0.00    +0.039 A 
ATOM     34  C   UNL     1      -5.022  -8.642  -1.589  0.00  0.00    +0.024 A 
ATOM     35  C   UNL     1      -6.380  -8.886  -1.626  0.00  0.00    +0.002 A 
ATOM     36  C   UNL     1      -6.904 -10.028  -1.042  0.00  0.00    +0.001 A 
ATOM     37  C   UNL     1      -6.075 -10.934  -0.418  0.00  0.00    +0.015 A 
ATOM     38  C   UNL     1      -4.697 -10.705  -0.378  0.00  0.00    +0.057 A 
BRANCH  38  39
ATOM     39  C   UNL     1      -3.803 -11.674   0.283  0.00  0.00    +0.243 C 
ATOM     40  O   UNL     1      -2.621 -11.421   0.410  0.00  0.00    -0.270 OA
ATOM     41  N   UNL     1      -4.297 -12.840   0.745  0.00  0.00    -0.325 N 
ATOM     42  H   UNL     1      -5.240 -13.042   0.643  0.00  0.00    +0.145 HD
ATOM     43  H   UNL     1      -3.709 -13.477   1.179  0.00  0.00    +0.145 HD
ENDBRANCH  38  39
ENDBRANCH  31  33
ENDBRANCH  30  31
ENDBRANCH   2  30
TORSDOF 7
