REMARK  Name = ZINC40387204
REMARK  3 active torsions:
REMARK  status: ('A' for Active; 'I' for Inactive)
REMARK    1  A    between atoms: C_1  and  S_2
REMARK    2  A    between atoms: S_2  and  N_5
REMARK    3  A    between atoms: N_9  and  C_12
REMARK                            x       y       z     vdW  Elec       q    Type
REMARK                         _______ _______ _______ _____ _____    ______ ____
ROOT
ATOM      1  N   UNL     1       0.795  -0.411  -1.394  0.00  0.00    -0.192 N 
ATOM      2  C   UNL     1       2.120  -0.083  -1.552  0.00  0.00    +0.197 C 
ATOM      3  N   UNL     1       2.741   0.541  -0.601  0.00  0.00    -0.239 NA
ATOM      4  C   UNL     1       4.141   0.941  -0.694  0.00  0.00    +0.233 C 
ATOM      5  N   UNL     1       4.841   0.152  -1.715  0.00  0.00    -0.265 NA
ATOM      6  C   UNL     1       4.087   0.173  -2.982  0.00  0.00    +0.193 C 
ATOM      7  N   UNL     1       2.768  -0.427  -2.718  0.00  0.00    -0.303 N 
ATOM      8  H   UNL     1       0.324  -0.881  -2.099  0.00  0.00    +0.176 HD
ATOM      9  H   UNL     1       2.366  -1.045  -3.348  0.00  0.00    +0.150 HD
ENDROOT
BRANCH   5  10
ATOM     10  C   UNL     1       6.212   0.641  -1.910  0.00  0.00    +0.060 C 
ATOM     11  C   UNL     1       6.940  -0.264  -2.906  0.00  0.00    +0.019 C 
ATOM     12  C   UNL     1       8.368   0.246  -3.109  0.00  0.00    +0.002 C 
ATOM     13  C   UNL     1       9.110   0.232  -1.771  0.00  0.00    +0.000 C 
ATOM     14  C   UNL     1       8.382   1.137  -0.775  0.00  0.00    +0.002 C 
ATOM     15  C   UNL     1       6.954   0.627  -0.572  0.00  0.00    +0.019 C 
ENDBRANCH   5  10
BRANCH   1  17
ATOM     16  C   UNL     1      -0.022   1.810   0.012  0.00  0.00    +0.218 C 
ATOM     17  S   UNL     1       0.002  -0.004   0.002  0.00  0.00    +0.042 S 
ATOM     18  O   UNL     1       0.835  -0.488   1.046  0.00  0.00    -0.155 OA
ATOM     19  O   UNL     1      -1.315  -0.510  -0.168  0.00  0.00    -0.155 OA
ENDBRANCH   1  17
TORSDOF 2
