REMARK  Name = ZINC38965547
REMARK  4 active torsions:
REMARK  status: ('A' for Active; 'I' for Inactive)
REMARK    1  A    between atoms: N_7  and  S_8
REMARK    2  A    between atoms: S_8  and  C_11
REMARK    3  A    between atoms: C_18  and  N_23
REMARK    4  A    between atoms: N_23  and  C_24
REMARK                            x       y       z     vdW  Elec       q    Type
REMARK                         _______ _______ _______ _____ _____    ______ ____
ROOT
ATOM      1  C   UNL     1      -0.321   1.090   0.248  0.00  0.00    +0.002 A 
ATOM      2  C   UNL     1       0.787   1.947   0.142  0.00  0.00    +0.002 A 
ATOM      3  C   UNL     1       2.053   1.492   0.023  0.00  0.00    +0.030 A 
ATOM      4  C   UNL     1       2.315   0.099  -0.001  0.00  0.00    +0.089 A 
ATOM      5  N   UNL     1       3.551  -0.339  -0.116  0.00  0.00    -0.226 NA
ATOM      6  C   UNL     1       3.834  -1.651  -0.142  0.00  0.00    +0.192 C 
ATOM      7  N   UNL     1       5.063  -2.059  -0.257  0.00  0.00    -0.110 NA
ATOM      8  C   UNL     1       2.702  -2.648  -0.035  0.00  0.00    +0.237 C 
ATOM      9  N   UNL     1       1.334  -2.122   0.093  0.00  0.00    -0.359 N 
ATOM     10  C   UNL     1       1.163  -0.830   0.109  0.00  0.00    +0.063 A 
ATOM     11  C   UNL     1      -0.184  -0.254   0.236  0.00  0.00    +0.027 A 
ATOM     12  H   UNL     1       0.576  -2.724   0.165  0.00  0.00    +0.162 HD
ENDROOT
BRANCH   7  13
ATOM     13  S   UNL     1       6.294  -0.958  -0.373  0.00  0.00    +0.100 S 
ATOM     14  O   UNL     1       6.115  -0.277  -1.607  0.00  0.00    -0.146 OA
ATOM     15  O   UNL     1       6.347  -0.275   0.873  0.00  0.00    -0.146 OA
BRANCH  13  16
ATOM     16  C   UNL     1       7.796  -1.867  -0.513  0.00  0.00    +0.113 A 
ATOM     17  C   UNL     1       8.494  -2.228   0.625  0.00  0.00    +0.032 A 
ATOM     18  C   UNL     1       9.672  -2.942   0.516  0.00  0.00    +0.040 A 
ATOM     19  C   UNL     1      10.154  -3.296  -0.733  0.00  0.00    +0.124 A 
ATOM     20  C   UNL     1       9.455  -2.934  -1.871  0.00  0.00    +0.040 A 
ATOM     21  C   UNL     1       8.274  -2.225  -1.760  0.00  0.00    +0.032 A 
ATOM     22  F   UNL     1      11.306  -3.994  -0.840  0.00  0.00    -0.205 F 
ENDBRANCH  13  16
ENDBRANCH   7  13
BRANCH   8  23
ATOM     23  N   UNL     1       2.743  -3.501  -1.225  0.00  0.00    -0.316 N 
ATOM     24  H   UNL     1       2.889  -3.106  -2.099  0.00  0.00    +0.148 HD
BRANCH  23  25
ATOM     25  C   UNL     1       2.571  -4.883  -1.102  0.00  0.00    +0.065 A 
ATOM     26  C   UNL     1       2.236  -5.436   0.127  0.00  0.00    +0.027 A 
ATOM     27  C   UNL     1       2.067  -6.801   0.247  0.00  0.00    +0.017 A 
ATOM     28  C   UNL     1       2.231  -7.620  -0.856  0.00  0.00    +0.021 A 
ATOM     29  C   UNL     1       2.565  -7.074  -2.083  0.00  0.00    +0.055 A 
ATOM     30  C   UNL     1       2.729  -5.707  -2.211  0.00  0.00    +0.145 A 
ATOM     31  F   UNL     1       3.050  -5.174  -3.410  0.00  0.00    -0.204 F 
ATOM     32 BR   UNL     1       1.998  -9.489  -0.687  0.00  0.00    -0.050 Br
ENDBRANCH  23  25
ENDBRANCH   8  23
TORSDOF 4
