REMARK  Name = ZINC00846358
REMARK  4 active torsions:
REMARK  status: ('A' for Active; 'I' for Inactive)
REMARK    1  A    between atoms: C_6  and  C_7
REMARK    2  A    between atoms: C_10  and  C_21
REMARK    3  A    between atoms: C_16  and  N_20
REMARK    4  A    between atoms: C_17  and  C_18
REMARK                            x       y       z     vdW  Elec       q    Type
REMARK                         _______ _______ _______ _____ _____    ______ ____
ROOT
ATOM      1  C   UNL     1      -1.293  -0.775   0.010  0.00  0.00    +0.102 C 
ATOM      2  C   UNL     1      -1.372  -1.649  -1.214  0.00  0.00    +0.054 A 
ATOM      3  C   UNL     1      -1.585  -1.286  -2.548  0.00  0.00    +0.100 A 
ATOM      4  N   UNL     1      -1.574  -2.387  -3.275  0.00  0.00    -0.171 NA
ATOM      5  N   UNL     1      -1.354  -3.479  -2.420  0.00  0.00    -0.246 N 
ATOM      6  H   UNL     1      -1.298  -4.410  -2.687  0.00  0.00    +0.192 HD
ATOM      7  C   UNL     1      -1.234  -3.006  -1.163  0.00  0.00    +0.223 A 
ATOM      8  O   UNL     1      -1.018  -3.676  -0.003  0.00  0.00    -0.423 OA
ATOM      9  C   UNL     1      -1.212  -3.006   1.151  0.00  0.00    +0.200 C 
ATOM     10  C   UNL     1      -1.349  -1.663   1.228  0.00  0.00    +0.098 C 
ENDROOT
BRANCH   3  11
ATOM     11  C   UNL     1      -1.787   0.094  -3.056  0.00  0.00    +0.006 A 
ATOM     12  C   UNL     1      -2.472   1.028  -2.283  0.00  0.00    +0.014 A 
ATOM     13  C   UNL     1      -2.660   2.311  -2.755  0.00  0.00    +0.050 A 
ATOM     14  C   UNL     1      -2.168   2.675  -4.000  0.00  0.00    +0.166 A 
ATOM     15  C   UNL     1      -1.482   1.743  -4.778  0.00  0.00    +0.167 A 
ATOM     16  C   UNL     1      -1.288   0.458  -4.304  0.00  0.00    +0.059 A 
ATOM     17  O   UNL     1      -1.105   2.343  -5.945  0.00  0.00    -0.453 OA
ATOM     18  C   UNL     1      -1.919   3.526  -6.050  0.00  0.00    +0.466 C 
ATOM     19  O   UNL     1      -2.219   3.857  -4.681  0.00  0.00    -0.453 OA
ENDBRANCH   3  11
BRANCH   1  25
ATOM     20  C   UNL     1      -0.017   1.378   0.010  0.00  0.00    +0.007 A 
ATOM     21  C   UNL     1       1.170   2.086   0.002  0.00  0.00    +0.038 A 
ATOM     22  C   UNL     1       2.379   1.410  -0.013  0.00  0.00    +0.123 A 
ATOM     23  C   UNL     1       2.396   0.026  -0.021  0.00  0.00    +0.038 A 
ATOM     24  C   UNL     1       1.208  -0.680  -0.013  0.00  0.00    +0.007 A 
ATOM     25  C   UNL     1       0.002  -0.004   0.002  0.00  0.00    -0.034 A 
ATOM     26  F   UNL     1       3.540   2.101  -0.021  0.00  0.00    -0.205 F 
ENDBRANCH   1  25
BRANCH   9  27
ATOM     27  N   UNL     1      -1.274  -3.730   2.316  0.00  0.00    -0.328 N 
ATOM     28  H   UNL     1      -1.179  -4.695   2.293  0.00  0.00    +0.145 HD
ATOM     29  H   UNL     1      -1.412  -3.276   3.162  0.00  0.00    +0.145 HD
ENDBRANCH   9  27
BRANCH  10  30
ATOM     30  C   UNL     1      -1.555  -1.062   2.511  0.00  0.00    +0.101 C 
ATOM     31  N   UNL     1      -1.718  -0.585   3.530  0.00  0.00    -0.191 NA
ENDBRANCH  10  30
TORSDOF 4
