REMARK  Name = ZINC12940376
REMARK  8 active torsions:
REMARK  status: ('A' for Active; 'I' for Inactive)
REMARK    1  A    between atoms: C_1  and  C_2
REMARK    2  A    between atoms: C_2  and  C_4
REMARK    3  A    between atoms: C_2  and  S_18
REMARK    4  A    between atoms: N_6  and  C_7
REMARK    5  A    between atoms: C_8  and  C_15
REMARK    6  A    between atoms: S_18  and  C_19
REMARK    7  A    between atoms: N_24  and  C_25
REMARK    8  A    between atoms: C_25  and  C_26
REMARK                            x       y       z     vdW  Elec       q    Type
REMARK                         _______ _______ _______ _____ _____    ______ ____
ROOT
ATOM      1  C   UNL     1      -7.223   5.186   9.093  0.00  0.00    +0.231 C 
ATOM      2  O   UNL     1      -6.625   5.835   9.925  0.00  0.00    -0.274 OA
ATOM      3  N   UNL     1      -8.458   4.718   9.364  0.00  0.00    -0.278 N 
ATOM      4  H   UNL     1      -8.936   4.199   8.698  0.00  0.00    +0.155 HD
ENDROOT
BRANCH   3   5
ATOM      5  C   UNL     1      -9.044   4.979  10.593  0.00  0.00    +0.084 A 
ATOM      6  C   UNL     1     -10.293   4.593  11.050  0.00  0.00    +0.068 A 
ATOM      7  C   UNL     1     -10.674   4.998  12.402  0.00  0.00    -0.023 A 
ATOM      8  C   UNL     1      -9.754   5.724  13.061  0.00  0.00    -0.004 A 
ATOM      9  S   UNL     1      -8.396   5.872  11.926  0.00  0.00    -0.077 S 
ATOM     10  C   UNL     1     -10.219   6.106  14.441  0.00  0.00    +0.043 C 
ATOM     11  C   UNL     1     -11.398   5.151  14.732  0.00  0.00    +0.010 C 
ATOM     12  C   UNL     1     -11.892   4.820  13.310  0.00  0.00    +0.037 C 
BRANCH   6  13
ATOM     13  C   UNL     1     -11.198   3.802  10.210  0.00  0.00    +0.244 C 
ATOM     14  O   UNL     1     -11.158   2.586  10.248  0.00  0.00    -0.270 OA
ATOM     15  N   UNL     1     -12.075   4.422   9.395  0.00  0.00    -0.325 N 
ATOM     16  H   UNL     1     -12.107   5.391   9.364  0.00  0.00    +0.145 HD
ATOM     17  H   UNL     1     -12.674   3.899   8.839  0.00  0.00    +0.145 HD
ENDBRANCH   6  13
ENDBRANCH   3   5
BRANCH   1  19
ATOM     18  C   UNL     1      -7.046   5.949   6.741  0.00  0.00    +0.029 C 
ATOM     19  C   UNL     1      -6.586   4.903   7.757  0.00  0.00    +0.136 C 
BRANCH  19  20
ATOM     20  S   UNL     1      -4.781   4.972   7.922  0.00  0.00    -0.084 S 
BRANCH  20  21
ATOM     21  C   UNL     1      -4.189   4.480   6.337  0.00  0.00    +0.161 A 
ATOM     22  N   UNL     1      -4.870   4.136   5.260  0.00  0.00    -0.133 NA
ATOM     23  N   UNL     1      -4.200   3.787   4.110  0.00  0.00    -0.125 NA
ATOM     24  C   UNL     1      -2.882   3.789   4.091  0.00  0.00    +0.182 A 
ATOM     25  S   UNL     1      -2.508   4.315   5.757  0.00  0.00    -0.025 S 
ATOM     26  N   UNL     1      -2.015   3.472   3.052  0.00  0.00    -0.320 N 
ATOM     27  H   UNL     1      -1.056   3.525   3.188  0.00  0.00    +0.148 HD
BRANCH  26  28
ATOM     28  C   UNL     1      -2.550   3.059   1.752  0.00  0.00    +0.135 C 
BRANCH  28  29
ATOM     29  C   UNL     1      -1.394   2.771   0.793  0.00  0.00    +0.135 C 
ATOM     30  C   UNL     1      -1.928   2.453  -0.626  0.00  0.00    +0.035 C 
ATOM     31  C   UNL     1      -0.778   1.606  -1.224  0.00  0.00    +0.031 C 
ATOM     32  C   UNL     1      -0.013   1.086   0.008  0.00  0.00    +0.160 C 
ATOM     33  O   UNL     1      -0.705   1.559   1.176  0.00  0.00    -0.375 OA
ENDBRANCH  28  29
ENDBRANCH  26  28
ENDBRANCH  20  21
ENDBRANCH  19  20
ENDBRANCH   1  19
TORSDOF 7
