REMARK  Name = ZINC01080517
REMARK  14 active torsions:
REMARK  status: ('A' for Active; 'I' for Inactive)
REMARK    1  A    between atoms: C_1  and  C_2
REMARK    2  A    between atoms: C_2  and  C_32
REMARK    3  A    between atoms: C_6  and  C_17
REMARK    4  A    between atoms: C_8  and  C_15
REMARK    5  A    between atoms: C_9  and  N_14
REMARK    6  A    between atoms: N_10  and  N_11
REMARK    7  A    between atoms: N_11  and  C_12
REMARK    8  A    between atoms: N_11  and  C_13
REMARK    9  A    between atoms: C_19  and  O_27
REMARK   10  A    between atoms: C_20  and  O_25
REMARK   11  A    between atoms: C_21  and  O_23
REMARK   12  A    between atoms: O_23  and  C_24
REMARK   13  A    between atoms: O_25  and  C_26
REMARK   14  A    between atoms: O_27  and  C_28
REMARK                            x       y       z     vdW  Elec       q    Type
REMARK                         _______ _______ _______ _____ _____    ______ ____
ROOT
ATOM      1  C   UNL     1      -0.850   2.513  -1.248  0.00  0.00    +0.011 C 
ATOM      2  C   UNL     1      -1.237   1.035  -1.178  0.00  0.00    -0.023 C 
ATOM      3  C   UNL     1      -0.234   0.202  -1.978  0.00  0.00    +0.059 C 
ATOM      4  C   UNL     1       1.144   0.357  -1.382  0.00  0.00    +0.037 C 
ATOM      5  C   UNL     1       1.308   0.580  -0.060  0.00  0.00    +0.026 C 
ATOM      6  C   UNL     1       2.685   0.735   0.534  0.00  0.00    +0.098 C 
ATOM      7  C   UNL     1       3.738   0.197  -0.390  0.00  0.00    +0.078 C 
ATOM      8  C   UNL     1       3.475  -0.012  -1.707  0.00  0.00    +0.117 C 
ATOM      9  N   UNL     1       2.227   0.263  -2.213  0.00  0.00    -0.223 N 
ATOM     10  C   UNL     1       0.201   0.679   0.801  0.00  0.00    +0.162 C 
ATOM     11  O   UNL     1       0.384   0.861   1.988  0.00  0.00    -0.292 OA
ATOM     12  C   UNL     1      -1.205   0.563   0.280  0.00  0.00    +0.086 C 
ATOM     13  C   UNL     1      -2.643   0.844  -1.750  0.00  0.00    +0.011 C 
ENDROOT
BRANCH   6  14
ATOM     14  C   UNL     1       2.952   2.196   0.788  0.00  0.00    -0.028 A 
ATOM     15  C   UNL     1       2.927   3.094  -0.263  0.00  0.00    +0.054 A 
ATOM     16  C   UNL     1       3.173   4.439  -0.034  0.00  0.00    +0.165 A 
ATOM     17  C   UNL     1       3.444   4.885   1.255  0.00  0.00    +0.204 A 
ATOM     18  C   UNL     1       3.468   3.979   2.308  0.00  0.00    +0.165 A 
ATOM     19  C   UNL     1       3.216   2.636   2.071  0.00  0.00    +0.054 A 
BRANCH  18  20
ATOM     20  O   UNL     1       3.733   4.409   3.571  0.00  0.00    -0.491 OA
ATOM     21  C   UNL     1       3.741   3.423   4.604  0.00  0.00    +0.277 C 
ENDBRANCH  18  20
BRANCH  17  22
ATOM     22  O   UNL     1       3.686   6.204   1.484  0.00  0.00    -0.488 OA
ATOM     23  C   UNL     1       2.558   7.027   1.788  0.00  0.00    +0.277 C 
ENDBRANCH  17  22
BRANCH  16  24
ATOM     24  O   UNL     1       3.148   5.322  -1.068  0.00  0.00    -0.491 OA
ATOM     25  C   UNL     1       2.864   4.794  -2.365  0.00  0.00    +0.277 C 
ENDBRANCH  16  24
ENDBRANCH   6  14
BRANCH   9  26
ATOM     26  N   UNL     1       2.066   0.442  -3.558  0.00  0.00    -0.227 NA
ATOM     27  C   UNL     1       1.272  -0.646  -4.143  0.00  0.00    +0.128 C 
ATOM     28  C   UNL     1       1.460   1.749  -3.846  0.00  0.00    +0.128 C 
ENDBRANCH   9  26
BRANCH   8  29
ATOM     29  N   UNL     1       4.459  -0.497  -2.534  0.00  0.00    -0.344 N 
ATOM     30  H   UNL     1       5.362  -0.613  -2.198  0.00  0.00    +0.144 HD
ATOM     31  H   UNL     1       4.251  -0.724  -3.454  0.00  0.00    +0.144 HD
ENDBRANCH   8  29
BRANCH   7  32
ATOM     32  C   UNL     1       5.040  -0.101   0.123  0.00  0.00    +0.099 C 
ATOM     33  N   UNL     1       6.074  -0.338   0.531  0.00  0.00    -0.191 NA
ENDBRANCH   7  32
TORSDOF 7
