REMARK  Name = ZINC03428015
REMARK  13 active torsions:
REMARK  status: ('A' for Active; 'I' for Inactive)
REMARK    1  A    between atoms: C_1  and  C_2
REMARK    2  A    between atoms: C_2  and  N_3
REMARK    3  A    between atoms: C_5  and  C_15
REMARK    4  A    between atoms: C_11  and  C_14
REMARK    5  A    between atoms: N_17  and  C_18
REMARK    6  A    between atoms: N_17  and  C_23
REMARK    7  A    between atoms: C_18  and  C_19
REMARK    8  A    between atoms: C_19  and  C_20
REMARK    9  A    between atoms: C_20  and  C_21
REMARK   10  A    between atoms: C_20  and  C_22
REMARK   11  A    between atoms: C_24  and  N_39
REMARK   12  A    between atoms: N_25  and  C_32
REMARK   13  A    between atoms: C_32  and  C_33
REMARK                            x       y       z     vdW  Elec       q    Type
REMARK                         _______ _______ _______ _____ _____    ______ ____
ROOT
ATOM      1  C   UNL     1      -0.221  -0.481  -5.461  0.00  0.00    +0.256 C 
ATOM      2  O   UNL     1      -1.423  -0.293  -5.416  0.00  0.00    -0.269 OA
ATOM      3  N   UNL     1       0.260  -1.675  -5.861  0.00  0.00    -0.260 N 
ENDROOT
BRANCH   1   6
ATOM      4  N   UNL     1       1.471   2.833  -5.369  0.00  0.00    -0.331 N 
ATOM      5  C   UNL     1       0.643   1.829  -5.691  0.00  0.00    +0.104 A 
ATOM      6  C   UNL     1       0.707   0.596  -5.078  0.00  0.00    +0.101 A 
ATOM      7  C   UNL     1       1.721   0.376  -4.034  0.00  0.00    +0.203 A 
ATOM      8  O   UNL     1       1.821  -0.695  -3.460  0.00  0.00    -0.286 OA
ATOM      9  C   UNL     1       2.609   1.506  -3.712  0.00  0.00    +0.065 A 
ATOM     10  C   UNL     1       2.450   2.716  -4.411  0.00  0.00    +0.145 A 
ATOM     11  N   UNL     1       3.245   3.742  -4.135  0.00  0.00    -0.234 NA
ATOM     12  C   UNL     1       4.191   3.660  -3.223  0.00  0.00    +0.041 A 
ATOM     13  C   UNL     1       4.406   2.496  -2.501  0.00  0.00    +0.024 A 
ATOM     14  C   UNL     1       3.602   1.396  -2.736  0.00  0.00    +0.017 A 
ATOM     15  C   UNL     1       5.062   4.861  -2.957  0.00  0.00    +0.065 C 
BRANCH   4  17
ATOM     16  C   UNL     1       2.211   4.101  -7.325  0.00  0.00    +0.027 C 
ATOM     17  C   UNL     1       1.330   4.109  -6.074  0.00  0.00    +0.120 C 
ENDBRANCH   4  17
ENDBRANCH   1   6
BRANCH   3  18
ATOM     18  C   UNL     1      -0.621  -2.658  -6.359  0.00  0.00    +0.140 A 
ATOM     19  C   UNL     1      -1.550  -3.253  -5.531  0.00  0.00    +0.128 A 
ATOM     20  N   UNL     1      -2.395  -4.209  -6.047  0.00  0.00    -0.276 N 
ATOM     21  C   UNL     1      -2.316  -4.559  -7.343  0.00  0.00    +0.331 A 
ATOM     22  O   UNL     1      -3.071  -5.406  -7.780  0.00  0.00    -0.246 OA
ATOM     23  N   UNL     1      -1.416  -3.990  -8.165  0.00  0.00    -0.273 N 
ATOM     24  H   UNL     1      -1.380  -4.259  -9.097  0.00  0.00    +0.173 HD
ATOM     25  C   UNL     1      -0.569  -3.045  -7.712  0.00  0.00    +0.277 A 
ATOM     26  O   UNL     1       0.239  -2.531  -8.467  0.00  0.00    -0.266 OA
BRANCH  19  27
ATOM     27  N   UNL     1      -1.631  -2.896  -4.206  0.00  0.00    -0.343 N 
ATOM     28  H   UNL     1      -1.077  -2.177  -3.863  0.00  0.00    +0.144 HD
ATOM     29  H   UNL     1      -2.241  -3.363  -3.614  0.00  0.00    +0.144 HD
ENDBRANCH  19  27
BRANCH  20  30
ATOM     30  C   UNL     1      -3.386  -4.849  -5.179  0.00  0.00    +0.163 C 
BRANCH  30  31
ATOM     31  C   UNL     1      -4.668  -4.058  -5.211  0.00  0.00    -0.028 A 
ATOM     32  C   UNL     1      -4.870  -3.033  -4.306  0.00  0.00    +0.005 A 
ATOM     33  C   UNL     1      -6.046  -2.307  -4.336  0.00  0.00    +0.000 A 
ATOM     34  C   UNL     1      -7.020  -2.606  -5.271  0.00  0.00    +0.000 A 
ATOM     35  C   UNL     1      -6.817  -3.630  -6.176  0.00  0.00    +0.000 A 
ATOM     36  C   UNL     1      -5.639  -4.353  -6.149  0.00  0.00    +0.005 A 
ENDBRANCH  30  31
ENDBRANCH  20  30
ENDBRANCH   3  18
BRANCH   3  37
ATOM     37  C   UNL     1       1.696  -1.951  -5.777  0.00  0.00    +0.114 C 
BRANCH  37  38
ATOM     38  C   UNL     1       1.913  -3.440  -5.499  0.00  0.00    +0.022 C 
BRANCH  38  39
ATOM     39  C   UNL     1       3.413  -3.728  -5.412  0.00  0.00    -0.016 C 
ATOM     40  C   UNL     1       3.629  -5.189  -5.010  0.00  0.00    +0.007 C 
ATOM     41  C   UNL     1       4.062  -3.473  -6.774  0.00  0.00    +0.007 C 
ENDBRANCH  38  39
ENDBRANCH  37  38
ENDBRANCH   3  37
TORSDOF 9
