REMARK  Name = ZINC54357308
REMARK  5 active torsions:
REMARK  status: ('A' for Active; 'I' for Inactive)
REMARK    1  A    between atoms: C_1  and  O_2
REMARK    2  A    between atoms: O_2  and  C_3
REMARK    3  A    between atoms: C_3  and  C_5
REMARK    4  A    between atoms: C_8  and  C_20
REMARK    5  A    between atoms: C_13  and  C_15
REMARK                            x       y       z     vdW  Elec       q    Type
REMARK                         _______ _______ _______ _____ _____    ______ ____
ROOT
ATOM      1  C   UNL     1      -1.323  -2.054   0.227  0.00  0.00    +0.269 C 
ATOM      2  O   UNL     1      -0.153  -2.717   0.067  0.00  0.00    -0.280 OA
ATOM      3  C   UNL     1      -2.494  -2.735   0.226  0.00  0.00    +0.055 C 
ATOM      4  C   UNL     1      -2.531  -4.209   0.225  0.00  0.00    +0.075 C 
ATOM      5  N   UNL     1      -3.593  -4.801  -0.304  0.00  0.00    -0.192 NA
ATOM      6  C   UNL     1      -4.608  -4.096  -0.806  0.00  0.00    +0.155 C 
ATOM      7  S   UNL     1      -5.805  -4.928  -1.705  0.00  0.00    -0.017 S 
ATOM      8  N   UNL     1      -4.742  -2.772  -0.645  0.00  0.00    -0.314 N 
ATOM      9  C   UNL     1      -3.831  -2.020   0.231  0.00  0.00    +0.139 C 
ATOM     10  H   UNL     1      -5.452  -2.304  -1.111  0.00  0.00    +0.149 HD
ENDROOT
BRANCH   4  11
ATOM     11  C   UNL     1      -1.422  -4.999   0.795  0.00  0.00    +0.036 A 
ATOM     12  C   UNL     1      -0.656  -5.829  -0.028  0.00  0.00    +0.051 A 
ATOM     13  C   UNL     1       0.379  -6.565   0.512  0.00  0.00    +0.124 A 
ATOM     14  C   UNL     1       0.660  -6.484   1.868  0.00  0.00    +0.041 A 
ATOM     15  C   UNL     1      -0.094  -5.666   2.689  0.00  0.00    +0.042 A 
ATOM     16  C   UNL     1      -1.130  -4.917   2.161  0.00  0.00    +0.133 A 
ATOM     17  F   UNL     1      -1.862  -4.113   2.963  0.00  0.00    -0.205 F 
ATOM     18  F   UNL     1       1.121  -7.368  -0.282  0.00  0.00    -0.205 F 
ENDBRANCH   4  11
BRANCH   9  19
ATOM     19  C   UNL     1      -4.382  -1.979   1.633  0.00  0.00    -0.016 A 
ATOM     20  C   UNL     1      -4.262  -0.836   2.401  0.00  0.00    +0.013 A 
ATOM     21  C   UNL     1      -4.769  -0.832   3.658  0.00  0.00    +0.045 A 
ATOM     22  S   UNL     1      -5.442  -2.481   3.790  0.00  0.00    -0.105 S 
ATOM     23  C   UNL     1      -5.007  -3.061   2.158  0.00  0.00    +0.051 A 
ENDBRANCH   9  19
BRANCH   1  24
ATOM     24  C   UNL     1      -1.322  -0.586   0.403  0.00  0.00    +0.379 C 
ATOM     25  O   UNL     1      -2.373   0.019   0.469  0.00  0.00    -0.241 OA
BRANCH  24  27
ATOM     26  C   UNL     1      -0.229   1.499   0.659  0.00  0.00    +0.280 C 
ATOM     27  O   UNL     1      -0.155   0.082   0.490  0.00  0.00    -0.462 OA
ENDBRANCH  24  27
ENDBRANCH   1  24
TORSDOF 4
