REMARK  Name = ZINC44399180
REMARK  5 active torsions:
REMARK  status: ('A' for Active; 'I' for Inactive)
REMARK    1  A    between atoms: C_2  and  C_11
REMARK    2  A    between atoms: C_5  and  O_8
REMARK    3  A    between atoms: C_6  and  O_7
REMARK    4  A    between atoms: C_11  and  C_12
REMARK    5  A    between atoms: C_12  and  N_13
REMARK                            x       y       z     vdW  Elec       q    Type
REMARK                         _______ _______ _______ _____ _____    ______ ____
ROOT
ATOM      1  C   UNL     1      -0.017   1.381   0.010  0.00  0.00    +0.054 A 
ATOM      2  C   UNL     1       1.171   2.089   0.002  0.00  0.00    -0.030 A 
ATOM      3  C   UNL     1       2.380   1.418  -0.013  0.00  0.00    +0.039 A 
ATOM      4  C   UNL     1       2.405   0.034  -0.021  0.00  0.00    +0.077 A 
ATOM      5  C   UNL     1       1.218  -0.681  -0.014  0.00  0.00    +0.174 A 
ATOM      6  C   UNL     1       0.002  -0.004   0.002  0.00  0.00    +0.160 A 
ATOM      7 BR   UNL     1       4.060  -0.882  -0.043  0.00  0.00    -0.045 Br
ATOM      8 BR   UNL     1       4.000   2.392  -0.023  0.00  0.00    -0.049 Br
ENDROOT
BRANCH   6   9
ATOM      9  O   UNL     1      -1.166  -0.701   0.010  0.00  0.00    -0.503 OA
ATOM     10  H   UNL     1      -1.512  -0.898  -0.871  0.00  0.00    +0.292 HD
ENDBRANCH   6   9
BRANCH   5  11
ATOM     11  O   UNL     1       1.241  -2.041  -0.022  0.00  0.00    -0.503 OA
ATOM     12  H   UNL     1       1.256  -2.439   0.859  0.00  0.00    +0.292 HD
ENDBRANCH   5  11
BRANCH   2  13
ATOM     13  C   UNL     1       1.148   3.596   0.010  0.00  0.00    +0.017 C 
BRANCH  13  14
ATOM     14  C   UNL     1       1.404   4.103   1.431  0.00  0.00    -0.082 C 
BRANCH  14  15
ATOM     15  N   UNL     1       1.382   5.572   1.438  0.00  0.00    +0.378 N 
ATOM     16  H   UNL     1       2.099   5.922   0.822  0.00  0.00    -0.090 HD
ATOM     17  H   UNL     1       0.480   5.896   1.123  0.00  0.00    -0.090 HD
ATOM     18  H   UNL     1       1.550   5.905   2.375  0.00  0.00    -0.090 HD
ENDBRANCH  14  15
ENDBRANCH  13  14
ENDBRANCH   2  13
TORSDOF 5
