REMARK  Name = ZINC38812303
REMARK  7 active torsions:
REMARK  status: ('A' for Active; 'I' for Inactive)
REMARK    1  A    between atoms: C_1  and  C_2
REMARK    2  A    between atoms: N_6  and  O_7
REMARK    3  A    between atoms: O_7  and  C_8
REMARK    4  A    between atoms: C_8  and  C_9
REMARK    5  A    between atoms: C_22  and  C_30
REMARK    6  A    between atoms: C_27  and  C_28
REMARK    7  A    between atoms: C_27  and  O_29
REMARK                            x       y       z     vdW  Elec       q    Type
REMARK                         _______ _______ _______ _____ _____    ______ ____
ROOT
ATOM      1  C   UNL     1      -0.010   1.281  -0.893  0.00  0.00    +0.016 C 
ATOM      2  C   UNL     1      -0.055  -0.240  -0.795  0.00  0.00    -0.007 C 
ATOM      3  C   UNL     1       0.323  -0.820  -2.151  0.00  0.00    +0.017 C 
ATOM      4  C   UNL     1       1.827  -0.783  -2.401  0.00  0.00    +0.059 C 
ATOM      5  C   UNL     1       2.516  -1.529  -1.278  0.00  0.00    +0.080 C 
ATOM      6  N   UNL     1       3.506  -2.337  -1.512  0.00  0.00    -0.089 NA
ATOM      7  C   UNL     1       2.019  -1.307   0.088  0.00  0.00    +0.026 C 
ATOM      8  C   UNL     1       0.858  -0.703   0.311  0.00  0.00    -0.062 C 
ATOM      9  C   UNL     1       0.459  -0.491   1.760  0.00  0.00    +0.031 C 
ATOM     10  C   UNL     1      -0.990  -0.960   1.978  0.00  0.00    +0.008 C 
ATOM     11  C   UNL     1      -1.851  -0.234   0.956  0.00  0.00    -0.003 C 
ATOM     12  C   UNL     1      -1.465  -0.713  -0.446  0.00  0.00    +0.002 C 
ATOM     13  C   UNL     1      -2.538  -0.297  -1.438  0.00  0.00    +0.005 C 
ATOM     14  C   UNL     1      -3.785  -1.175  -1.205  0.00  0.00    +0.010 C 
ATOM     15  C   UNL     1      -3.993  -1.411   0.267  0.00  0.00    -0.000 C 
ATOM     16  C   UNL     1      -3.335  -0.321   1.135  0.00  0.00    +0.001 C 
ATOM     17  C   UNL     1      -3.836  -0.679   2.543  0.00  0.00    +0.007 C 
ATOM     18  C   UNL     1      -5.287  -1.174   2.307  0.00  0.00    +0.035 C 
ATOM     19  C   UNL     1      -5.445  -1.359   0.774  0.00  0.00    +0.069 C 
ATOM     20  C   UNL     1      -6.220  -0.186   0.187  0.00  0.00    +0.042 C 
ATOM     21  C   UNL     1      -3.460  -2.804   0.642  0.00  0.00    +0.014 C 
ENDROOT
BRANCH  19  22
ATOM     22  O   UNL     1      -6.103  -2.594   0.493  0.00  0.00    -0.388 OA
ATOM     23  H   UNL     1      -7.024  -2.625   0.788  0.00  0.00    +0.210 HD
ENDBRANCH  19  22
BRANCH   6  24
ATOM     24  O   UNL     1       3.960  -2.533  -2.838  0.00  0.00    -0.382 OA
BRANCH  24  25
ATOM     25  C   UNL     1       5.054  -3.446  -2.949  0.00  0.00    +0.387 C 
BRANCH  25  26
ATOM     26  C   UNL     1       5.454  -3.579  -4.396  0.00  0.00    +0.395 C 
ATOM     27  O   UNL     1       4.858  -2.949  -5.253  0.00  0.00    -0.242 OA
ATOM     28  O   UNL     1       6.374  -4.315  -4.709  0.00  0.00    -0.242 OA
ENDBRANCH  25  26
ENDBRANCH  24  25
ENDBRANCH   6  24
TORSDOF 4
