REMARK  Name = ZINC42361446
REMARK  8 active torsions:
REMARK  status: ('A' for Active; 'I' for Inactive)
REMARK    1  A    between atoms: C_1  and  C_2
REMARK    2  A    between atoms: C_2  and  C_4
REMARK    3  A    between atoms: C_2  and  N_8
REMARK    4  A    between atoms: C_4  and  O_6
REMARK    5  A    between atoms: O_6  and  C_7
REMARK    6  A    between atoms: C_9  and  C_11
REMARK    7  A    between atoms: C_11  and  O_12
REMARK    8  A    between atoms: O_12  and  C_13
REMARK                            x       y       z     vdW  Elec       q    Type
REMARK                         _______ _______ _______ _____ _____    ______ ____
ROOT
ATOM      1  N   UNL     1       0.711  -0.489   1.189  0.00  0.00    -0.300 N 
ATOM      2  C   UNL     1       0.051  -0.633   2.355  0.00  0.00    +0.251 C 
ATOM      3  O   UNL     1      -1.129  -0.361   2.423  0.00  0.00    -0.272 OA
ATOM      4  H   UNL     1       1.654  -0.707   1.135  0.00  0.00    +0.150 HD
ENDROOT
BRANCH   1   6
ATOM      5  C   UNL     1      -0.019   1.526   0.010  0.00  0.00    +0.040 C 
ATOM      6  C   UNL     1       0.002  -0.004   0.002  0.00  0.00    +0.179 C 
BRANCH   6   7
ATOM      7  C   UNL     1       0.707  -0.490  -1.238  0.00  0.00    +0.327 C 
ATOM      8  O   UNL     1       1.700  -1.172  -1.140  0.00  0.00    -0.249 OA
BRANCH   7   9
ATOM      9  O   UNL     1       0.233  -0.166  -2.451  0.00  0.00    -0.467 OA
ATOM     10  C   UNL     1       0.952  -0.660  -3.582  0.00  0.00    +0.280 C 
ENDBRANCH   7   9
ENDBRANCH   6   7
ENDBRANCH   1   6
BRANCH   2  11
ATOM     11  C   UNL     1       0.780  -1.133   3.576  0.00  0.00    +0.324 C 
BRANCH  11  12
ATOM     12  O   UNL     1      -0.127  -1.199   4.679  0.00  0.00    -0.483 OA
BRANCH  12  13
ATOM     13  C   UNL     1       0.374  -1.633   5.865  0.00  0.00    +0.123 A 
ATOM     14  C   UNL     1       1.713  -1.983   5.967  0.00  0.00    +0.047 A 
ATOM     15  C   UNL     1       2.222  -2.424   7.173  0.00  0.00    +0.025 A 
ATOM     16  C   UNL     1       1.397  -2.518   8.280  0.00  0.00    +0.059 A 
ATOM     17  C   UNL     1       0.060  -2.169   8.181  0.00  0.00    +0.063 A 
ATOM     18  C   UNL     1      -0.450  -1.722   6.976  0.00  0.00    +0.067 A 
ATOM     19 CL   UNL     1      -0.973  -2.288   9.571  0.00  0.00    -0.082 Cl
ATOM     20 CL   UNL     1       2.038  -3.073   9.795  0.00  0.00    -0.082 Cl
ENDBRANCH  12  13
ENDBRANCH  11  12
ENDBRANCH   2  11
TORSDOF 6
