REMARK  Name = ZINC58326642
REMARK  4 active torsions:
REMARK  status: ('A' for Active; 'I' for Inactive)
REMARK    1  A    between atoms: C_1  and  C_2
REMARK    2  A    between atoms: C_5  and  C_22
REMARK    3  A    between atoms: C_7  and  N_8
REMARK    4  A    between atoms: C_9  and  C_11
REMARK                            x       y       z     vdW  Elec       q    Type
REMARK                         _______ _______ _______ _____ _____    ______ ____
ROOT
ATOM      1  N   UNL     1       0.025  -0.008   2.417  0.00  0.00    -0.281 N 
ATOM      2  C   UNL     1      -0.057  -0.683   3.580  0.00  0.00    +0.248 C 
ATOM      3  O   UNL     1      -0.040  -1.899   3.580  0.00  0.00    -0.270 OA
ATOM      4  H   UNL     1       0.078   0.961   2.421  0.00  0.00    +0.155 HD
ENDROOT
BRANCH   2   5
ATOM      5  C   UNL     1      -0.166   0.052   4.854  0.00  0.00    +0.039 A 
ATOM      6  C   UNL     1      -0.190   1.450   4.852  0.00  0.00    +0.014 A 
ATOM      7  C   UNL     1      -0.294   2.134   6.043  0.00  0.00    +0.017 A 
ATOM      8  C   UNL     1      -0.372   1.437   7.241  0.00  0.00    +0.030 A 
ATOM      9  C   UNL     1      -0.346   0.038   7.258  0.00  0.00    +0.048 A 
ATOM     10  C   UNL     1      -0.250  -0.649   6.059  0.00  0.00    +0.037 A 
ATOM     11  N   UNL     1      -0.412  -0.677   8.451  0.00  0.00    -0.284 N 
ATOM     12  C   UNL     1      -0.899  -0.235   9.608  0.00  0.00    +0.227 C 
ATOM     13  O   UNL     1      -0.895  -0.990  10.557  0.00  0.00    -0.275 OA
ATOM     14  C   UNL     1      -1.454   1.149   9.803  0.00  0.00    +0.170 C 
ATOM     15  S   UNL     1      -0.510   2.310   8.770  0.00  0.00    -0.114 S 
ATOM     16  H   UNL     1      -0.071  -1.585   8.438  0.00  0.00    +0.155 HD
ENDBRANCH   2   5
BRANCH   1  23
ATOM     17  C   UNL     1      -1.265   1.184   0.183  0.00  0.00    +0.045 C 
ATOM     18  C   UNL     1      -0.586  -0.158   0.085  0.00  0.00    -0.029 A 
ATOM     19  C   UNL     1      -0.576  -0.839  -1.118  0.00  0.00    +0.006 A 
ATOM     20  C   UNL     1       0.044  -2.068  -1.215  0.00  0.00    +0.013 A 
ATOM     21  C   UNL     1       0.664  -2.627  -0.096  0.00  0.00    +0.040 A 
ATOM     22  C   UNL     1       0.654  -1.940   1.117  0.00  0.00    +0.036 A 
ATOM     23  C   UNL     1       0.033  -0.704   1.203  0.00  0.00    +0.037 A 
BRANCH  21  24
ATOM     24  C   UNL     1       1.328  -3.944  -0.197  0.00  0.00    +0.248 A 
ATOM     25  N   UNL     1       1.940  -4.584   0.771  0.00  0.00    -0.108 NA
ATOM     26  N   UNL     1       2.398  -5.699   0.321  0.00  0.00    -0.116 NA
ATOM     27  C   UNL     1       2.099  -5.813  -0.943  0.00  0.00    +0.332 A 
ATOM     28  O   UNL     1       1.413  -4.714  -1.301  0.00  0.00    -0.423 OA
ENDBRANCH  21  24
ENDBRANCH   1  23
TORSDOF 3
