REMARK  Name = ZINC66161286
REMARK  10 active torsions:
REMARK  status: ('A' for Active; 'I' for Inactive)
REMARK    1  A    between atoms: C_1  and  C_2
REMARK    2  A    between atoms: C_2  and  C_3
REMARK    3  A    between atoms: C_3  and  C_4
REMARK    4  A    between atoms: C_3  and  C_5
REMARK    5  A    between atoms: C_3  and  O_27
REMARK    6  A    between atoms: C_5  and  N_6
REMARK    7  A    between atoms: N_9  and  C_10
REMARK    8  A    between atoms: C_13  and  C_17
REMARK    9  A    between atoms: C_15  and  C_16
REMARK   10  A    between atoms: C_24  and  C_26
REMARK                            x       y       z     vdW  Elec       q    Type
REMARK                         _______ _______ _______ _____ _____    ______ ____
ROOT
ATOM      1  C   UNL     1       2.757  -5.622  -3.675  0.00  0.00    +0.038 A 
ATOM      2  C   UNL     1       2.686  -6.462  -2.568  0.00  0.00    +0.024 A 
ATOM      3  C   UNL     1       2.852  -7.820  -2.722  0.00  0.00    +0.015 A 
ATOM      4  C   UNL     1       3.091  -8.354  -3.991  0.00  0.00    +0.037 A 
ATOM      5  C   UNL     1       3.162  -7.507  -5.100  0.00  0.00    +0.018 A 
ATOM      6  C   UNL     1       2.990  -6.151  -4.940  0.00  0.00    -0.028 A 
ATOM      7  C   UNL     1       3.060  -5.237  -6.137  0.00  0.00    +0.045 C 
ENDROOT
BRANCH   4   8
ATOM      8  C   UNL     1       3.270  -9.810  -4.159  0.00  0.00    +0.247 C 
ATOM      9  O   UNL     1       4.029 -10.235  -5.009  0.00  0.00    -0.270 OA
ATOM     10  N   UNL     1       2.592 -10.667  -3.371  0.00  0.00    -0.295 N 
ATOM     11  C   UNL     1       1.714 -10.169  -2.304  0.00  0.00    +0.108 C 
ATOM     12  C   UNL     1       0.325 -10.790  -2.479  0.00  0.00    +0.019 C 
ATOM     13  C   UNL     1       0.454 -12.314  -2.526  0.00  0.00    +0.003 C 
ATOM     14  C   UNL     1       1.317 -12.718  -3.723  0.00  0.00    +0.022 C 
ATOM     15  C   UNL     1       2.713 -12.119  -3.566  0.00  0.00    +0.073 C 
ATOM     16  C   UNL     1       3.534 -12.400  -4.826  0.00  0.00    +0.028 C 
ENDBRANCH   4   8
BRANCH   1  20
ATOM     17  N   UNL     1       1.821  -2.442  -2.251  0.00  0.00    -0.296 N 
ATOM     18  C   UNL     1       1.892  -3.770  -2.465  0.00  0.00    +0.304 C 
ATOM     19  O   UNL     1       1.327  -4.539  -1.711  0.00  0.00    -0.253 OA
ATOM     20  N   UNL     1       2.589  -4.247  -3.516  0.00  0.00    -0.269 N 
ATOM     21  H   UNL     1       2.271  -1.828  -2.853  0.00  0.00    +0.150 HD
ATOM     22  H   UNL     1       2.974  -3.633  -4.161  0.00  0.00    +0.156 HD
BRANCH  17  23
ATOM     23  C   UNL     1       1.063  -1.924  -1.109  0.00  0.00    +0.140 C 
BRANCH  23  24
ATOM     24  C   UNL     1       1.142  -0.396  -1.095  0.00  0.00    +0.078 C 
ATOM     25  C   UNL     1       2.609   0.039  -1.102  0.00  0.00    +0.043 C 
BRANCH  24  27
ATOM     26  C   UNL     1       0.536   1.667   0.177  0.00  0.00    +0.007 C 
ATOM     27  C   UNL     1       0.457   0.139   0.164  0.00  0.00    +0.032 C 
ENDBRANCH  24  27
BRANCH  24  28
ATOM     28  O   UNL     1       0.485   0.125  -2.253  0.00  0.00    -0.387 OA
ATOM     29  H   UNL     1      -0.450  -0.112  -2.314  0.00  0.00    +0.210 HD
ENDBRANCH  24  28
ENDBRANCH  23  24
ENDBRANCH  17  23
ENDBRANCH   1  20
TORSDOF 6
