REMARK  Name = ZINC41791625
REMARK  10 active torsions:
REMARK  status: ('A' for Active; 'I' for Inactive)
REMARK    1  A    between atoms: C_1  and  C_2
REMARK    2  A    between atoms: C_5  and  C_31
REMARK    3  A    between atoms: N_8  and  C_10
REMARK    4  A    between atoms: C_10  and  C_11
REMARK    5  A    between atoms: C_11  and  C_12
REMARK    6  A    between atoms: C_12  and  C_13
REMARK    7  A    between atoms: C_13  and  N_14
REMARK    8  A    between atoms: C_15  and  C_17
REMARK    9  A    between atoms: N_19  and  C_20
REMARK   10  A    between atoms: C_23  and  N_26
REMARK                            x       y       z     vdW  Elec       q    Type
REMARK                         _______ _______ _______ _____ _____    ______ ____
ROOT
ATOM      1  N   UNL     1       2.864   0.009   7.382  0.00  0.00    -0.308 N 
ATOM      2  C   UNL     1       2.444   0.462   8.580  0.00  0.00    +0.299 C 
ATOM      3  O   UNL     1       1.504   1.227   8.644  0.00  0.00    -0.265 OA
ATOM      4  H   UNL     1       3.615  -0.603   7.331  0.00  0.00    +0.149 HD
ENDROOT
BRANCH   2   5
ATOM      5  C   UNL     1       3.135   0.022   9.829  0.00  0.00    +0.303 C 
ATOM      6  O   UNL     1       4.075  -0.743   9.765  0.00  0.00    -0.265 OA
ATOM      7  N   UNL     1       2.715   0.475  11.026  0.00  0.00    -0.278 N 
ATOM      8  H   UNL     1       2.008   1.138  11.074  0.00  0.00    +0.155 HD
BRANCH   7   9
ATOM      9  C   UNL     1       3.298  -0.009  12.200  0.00  0.00    +0.034 A 
ATOM     10  C   UNL     1       2.523  -0.182  13.341  0.00  0.00    +0.025 A 
ATOM     11  C   UNL     1       3.099  -0.660  14.500  0.00  0.00    +0.029 A 
ATOM     12  C   UNL     1       4.453  -0.969  14.527  0.00  0.00    +0.067 A 
ATOM     13  C   UNL     1       5.228  -0.796  13.387  0.00  0.00    +0.029 A 
ATOM     14  C   UNL     1       4.651  -0.324  12.226  0.00  0.00    +0.025 A 
BRANCH  12  15
ATOM     15  N   UNL     1       5.039  -1.454  15.705  0.00  0.00    -0.220 N 
ATOM     16  C   UNL     1       6.330  -1.790  15.887  0.00  0.00    +0.225 A 
ATOM     17  N   UNL     1       6.474  -2.197  17.122  0.00  0.00    -0.222 NA
ATOM     18  C   UNL     1       5.304  -2.136  17.757  0.00  0.00    +0.245 A 
ATOM     19  N   UNL     1       4.396  -1.681  16.933  0.00  0.00    -0.154 NA
ENDBRANCH  12  15
ENDBRANCH   7   9
ENDBRANCH   2   5
BRANCH   1  20
ATOM     20  C   UNL     1       2.186   0.440   6.157  0.00  0.00    +0.104 C 
BRANCH  20  21
ATOM     21  C   UNL     1       2.854  -0.215   4.947  0.00  0.00    +0.017 C 
BRANCH  21  22
ATOM     22  C   UNL     1       2.146   0.235   3.667  0.00  0.00    -0.017 C 
BRANCH  22  23
ATOM     23  C   UNL     1       2.815  -0.420   2.457  0.00  0.00    -0.079 C 
BRANCH  23  29
ATOM     24  C   UNL     1       0.007   1.561   0.007  0.00  0.00    +0.005 C 
ATOM     25  C   UNL     1       0.016   0.031  -0.003  0.00  0.00    -0.031 C 
ATOM     26  C   UNL     1       0.733  -0.467  -1.261  0.00  0.00    +0.003 C 
ATOM     27  C   UNL     1       2.193  -0.007  -1.221  0.00  0.00    -0.031 C 
ATOM     28  C   UNL     1       2.849  -0.520   0.062  0.00  0.00    -0.076 C 
ATOM     29  N   UNL     1       2.135   0.012   1.228  0.00  0.00    +0.380 N 
ATOM     30  C   UNL     1       0.752  -0.484   1.236  0.00  0.00    -0.076 C 
ATOM     31  C   UNL     1       2.938  -0.565  -2.436  0.00  0.00    +0.005 C 
ATOM     32  H   UNL     1       2.129   1.020   1.187  0.00  0.00    -0.082 HD
ENDBRANCH  23  29
ENDBRANCH  22  23
ENDBRANCH  21  22
ENDBRANCH  20  21
ENDBRANCH   1  20
TORSDOF 8
