REMARK  Name = ZINC58040432
REMARK  13 active torsions:
REMARK  status: ('A' for Active; 'I' for Inactive)
REMARK    1  A    between atoms: C_1  and  C_2
REMARK    2  A    between atoms: C_2  and  C_3
REMARK    3  A    between atoms: C_3  and  N_4
REMARK    4  A    between atoms: N_4  and  C_5
REMARK    5  A    between atoms: N_4  and  C_16
REMARK    6  A    between atoms: C_5  and  C_6
REMARK    7  A    between atoms: N_8  and  C_9
REMARK    8  A    between atoms: C_14  and  C_15
REMARK    9  A    between atoms: C_16  and  C_17
REMARK   10  A    between atoms: N_19  and  C_20
REMARK   11  A    between atoms: C_25  and  C_26
REMARK   12  A    between atoms: N_28  and  C_29
REMARK   13  A    between atoms: C_29  and  C_30
REMARK                            x       y       z     vdW  Elec       q    Type
REMARK                         _______ _______ _______ _____ _____    ______ ____
ROOT
ATOM      1  C   UNL     1      -3.297  -2.292  -1.603  0.00  0.00    +0.201 C 
ATOM      2  O   UNL     1      -2.695  -1.556  -2.356  0.00  0.00    -0.278 OA
ATOM      3  N   UNL     1      -4.476  -2.825  -1.980  0.00  0.00    -0.286 N 
ATOM      4  H   UNL     1      -4.990  -3.357  -1.353  0.00  0.00    +0.155 HD
ENDROOT
BRANCH   3   5
ATOM      5  C   UNL     1      -4.955  -2.611  -3.271  0.00  0.00    +0.045 A 
ATOM      6  C   UNL     1      -4.071  -2.526  -4.338  0.00  0.00    +0.024 A 
ATOM      7  C   UNL     1      -4.549  -2.314  -5.616  0.00  0.00    +0.002 A 
ATOM      8  C   UNL     1      -5.909  -2.186  -5.844  0.00  0.00    +0.001 A 
ATOM      9  C   UNL     1      -6.801  -2.269  -4.797  0.00  0.00    +0.015 A 
ATOM     10  C   UNL     1      -6.334  -2.488  -3.499  0.00  0.00    +0.058 A 
BRANCH  10  11
ATOM     11  C   UNL     1      -7.284  -2.584  -2.374  0.00  0.00    +0.246 C 
ATOM     12  O   UNL     1      -6.870  -2.670  -1.234  0.00  0.00    -0.270 OA
ATOM     13  N   UNL     1      -8.611  -2.577  -2.611  0.00  0.00    -0.304 N 
ATOM     14  H   UNL     1      -8.941  -2.509  -3.520  0.00  0.00    +0.149 HD
BRANCH  13  15
ATOM     15  C   UNL     1      -9.554  -2.672  -1.494  0.00  0.00    +0.179 C 
BRANCH  15  16
ATOM     16  C   UNL     1     -10.964  -2.643  -2.024  0.00  0.00    +0.122 A 
ATOM     17  C   UNL     1     -11.693  -3.716  -2.380  0.00  0.00    +0.046 A 
ATOM     18  C   UNL     1     -12.948  -3.232  -2.817  0.00  0.00    +0.041 A 
ATOM     19  C   UNL     1     -12.911  -1.893  -2.701  0.00  0.00    +0.195 A 
ATOM     20  O   UNL     1     -11.709  -1.542  -2.215  0.00  0.00    -0.466 OA
ENDBRANCH  15  16
ENDBRANCH  13  15
ENDBRANCH  10  11
ENDBRANCH   3   5
BRANCH   1  21
ATOM     21  C   UNL     1      -2.727  -2.610  -0.245  0.00  0.00    +0.020 C 
BRANCH  21  22
ATOM     22  N   UNL     1      -1.445  -1.912  -0.076  0.00  0.00    +0.391 N 
ATOM     23  H   UNL     1      -0.829  -2.152  -0.838  0.00  0.00    -0.080 HD
BRANCH  22  24
ATOM     24  C   UNL     1      -1.675  -0.461  -0.071  0.00  0.00    -0.078 C 
BRANCH  24  26
ATOM     25  C   UNL     1      -0.564   1.775  -0.166  0.00  0.00    +0.002 C 
ATOM     26  C   UNL     1      -0.330   0.268  -0.040  0.00  0.00    -0.022 C 
ENDBRANCH  24  26
ENDBRANCH  22  24
BRANCH  22  27
ATOM     27  C   UNL     1      -0.832  -2.315   1.196  0.00  0.00    +0.020 C 
BRANCH  27  28
ATOM     28  C   UNL     1      -0.434  -3.767   1.125  0.00  0.00    +0.201 C 
ATOM     29  O   UNL     1      -0.704  -4.422   0.140  0.00  0.00    -0.278 OA
ATOM     30  N   UNL     1       0.221  -4.338   2.155  0.00  0.00    -0.287 N 
ATOM     31  H   UNL     1       0.382  -3.833   2.967  0.00  0.00    +0.155 HD
BRANCH  30  32
ATOM     32  C   UNL     1       0.668  -5.660   2.053  0.00  0.00    +0.036 A 
ATOM     33  C   UNL     1       0.025  -6.549   1.201  0.00  0.00    +0.023 A 
ATOM     34  C   UNL     1       0.469  -7.853   1.103  0.00  0.00    +0.002 A 
ATOM     35  C   UNL     1       1.553  -8.274   1.852  0.00  0.00    +0.000 A 
ATOM     36  C   UNL     1       2.195  -7.392   2.701  0.00  0.00    +0.005 A 
ATOM     37  C   UNL     1       1.760  -6.084   2.799  0.00  0.00    -0.029 A 
ATOM     38  C   UNL     1       2.465  -5.122   3.719  0.00  0.00    +0.045 C 
ENDBRANCH  30  32
ENDBRANCH  27  28
ENDBRANCH  22  27
ENDBRANCH  21  22
ENDBRANCH   1  21
TORSDOF 11
