REMARK  Name = ZINC00718436
REMARK  5 active torsions:
REMARK  status: ('A' for Active; 'I' for Inactive)
REMARK    1  A    between atoms: C_6  and  C_7
REMARK    2  A    between atoms: C_8  and  C_13
REMARK    3  A    between atoms: C_16  and  C_27
REMARK    4  A    between atoms: C_22  and  N_26
REMARK    5  A    between atoms: C_23  and  C_24
REMARK                            x       y       z     vdW  Elec       q    Type
REMARK                         _______ _______ _______ _____ _____    ______ ____
ROOT
ATOM      1  C   UNL     1      -0.861  -2.794  -1.044  0.00  0.00    +0.105 C 
ATOM      2  C   UNL     1      -0.557  -4.204  -0.609  0.00  0.00    +0.054 A 
ATOM      3  C   UNL     1       0.139  -4.651   0.518  0.00  0.00    +0.100 A 
ATOM      4  N   UNL     1       0.157  -5.970   0.488  0.00  0.00    -0.171 NA
ATOM      5  N   UNL     1      -0.528  -6.395  -0.660  0.00  0.00    -0.246 N 
ATOM      6  H   UNL     1      -0.669  -7.315  -0.933  0.00  0.00    +0.192 HD
ATOM      7  C   UNL     1      -0.957  -5.298  -1.319  0.00  0.00    +0.223 A 
ATOM      8  O   UNL     1      -1.658  -5.204  -2.477  0.00  0.00    -0.423 OA
ATOM      9  C   UNL     1      -1.725  -3.994  -3.069  0.00  0.00    +0.200 C 
ATOM     10  C   UNL     1      -1.369  -2.838  -2.464  0.00  0.00    +0.098 C 
ENDROOT
BRANCH   3  11
ATOM     11  C   UNL     1       0.751  -3.793   1.564  0.00  0.00    +0.003 A 
ATOM     12  C   UNL     1       1.426  -2.628   1.206  0.00  0.00    +0.011 A 
ATOM     13  C   UNL     1       1.992  -1.834   2.181  0.00  0.00    +0.020 A 
ATOM     14  C   UNL     1       1.891  -2.193   3.514  0.00  0.00    +0.041 A 
ATOM     15  C   UNL     1       1.222  -3.349   3.876  0.00  0.00    +0.020 A 
ATOM     16  C   UNL     1       0.647  -4.147   2.907  0.00  0.00    +0.011 A 
ATOM     17 CL   UNL     1       2.607  -1.190   4.737  0.00  0.00    -0.084 Cl
ENDBRANCH   3  11
BRANCH   1  19
ATOM     18  C   UNL     1      -3.068  -2.856   0.326  0.00  0.00    +0.097 A 
ATOM     19  C   UNL     1      -1.915  -2.200  -0.145  0.00  0.00    +0.010 A 
ATOM     20  C   UNL     1      -1.920  -0.944   0.352  0.00  0.00    +0.110 A 
ATOM     21  N   UNL     1      -3.029  -0.801   1.109  0.00  0.00    -0.284 N 
ATOM     22  H   UNL     1      -3.291   0.001   1.589  0.00  0.00    +0.188 HD
ATOM     23  N   UNL     1      -3.739  -2.008   1.076  0.00  0.00    -0.174 NA
BRANCH  18  29
ATOM     24  C   UNL     1      -3.572  -5.187   1.056  0.00  0.00    +0.013 A 
ATOM     25  C   UNL     1      -3.938  -6.487   0.772  0.00  0.00    +0.039 A 
ATOM     26  C   UNL     1      -4.196  -6.866  -0.535  0.00  0.00    +0.123 A 
ATOM     27  C   UNL     1      -4.088  -5.943  -1.563  0.00  0.00    +0.039 A 
ATOM     28  C   UNL     1      -3.722  -4.641  -1.288  0.00  0.00    +0.013 A 
ATOM     29  C   UNL     1      -3.462  -4.255   0.026  0.00  0.00    +0.003 A 
ATOM     30  F   UNL     1      -4.554  -8.139  -0.809  0.00  0.00    -0.205 F 
ENDBRANCH  18  29
ENDBRANCH   1  19
BRANCH   9  31
ATOM     31  N   UNL     1      -2.181  -3.932  -4.363  0.00  0.00    -0.328 N 
ATOM     32  H   UNL     1      -2.444  -4.744  -4.824  0.00  0.00    +0.145 HD
ATOM     33  H   UNL     1      -2.240  -3.077  -4.816  0.00  0.00    +0.145 HD
ENDBRANCH   9  31
BRANCH  10  34
ATOM     34  C   UNL     1      -1.479  -1.612  -3.196  0.00  0.00    +0.101 C 
ATOM     35  N   UNL     1      -1.567  -0.640  -3.776  0.00  0.00    -0.191 NA
ENDBRANCH  10  34
TORSDOF 5
