REMARK  Name = ZINC36151374
REMARK  5 active torsions:
REMARK  status: ('A' for Active; 'I' for Inactive)
REMARK    1  A    between atoms: C_1  and  C_2
REMARK    2  A    between atoms: C_2  and  C_3
REMARK    3  A    between atoms: C_2  and  C_4
REMARK    4  A    between atoms: C_2  and  C_5
REMARK    5  A    between atoms: C_12  and  C_15
REMARK                            x       y       z     vdW  Elec       q    Type
REMARK                         _______ _______ _______ _____ _____    ______ ____
ROOT
ATOM      1  C   UNL     1       0.718  -0.497  -1.257  0.00  0.00    +0.103 C 
ATOM      2  C   UNL     1      -0.040   0.000  -2.497  0.00  0.00    +0.101 C 
ATOM      3  S   UNL     1       0.677  -0.857  -3.942  0.00  0.00    -0.083 S 
ATOM      4  C   UNL     1       2.397  -0.797  -3.535  0.00  0.00    +0.209 A 
ATOM      5  N   UNL     1       3.427  -1.086  -4.275  0.00  0.00    -0.121 NA
ATOM      6  N   UNL     1       4.508  -0.922  -3.592  0.00  0.00    -0.127 NA
ATOM      7  C   UNL     1       4.216  -0.515  -2.376  0.00  0.00    +0.182 A 
ATOM      8  N   UNL     1       2.850  -0.412  -2.301  0.00  0.00    -0.221 N 
ATOM      9  N   UNL     1       2.094  -0.002  -1.252  0.00  0.00    -0.277 N 
ATOM     10  H   UNL     1       2.116   1.003  -1.161  0.00  0.00    +0.167 HD
ENDROOT
BRANCH   7  11
ATOM     11  C   UNL     1       5.180  -0.223  -1.293  0.00  0.00    +0.021 A 
ATOM     12  C   UNL     1       4.738  -0.110   0.026  0.00  0.00    +0.013 A 
ATOM     13  C   UNL     1       5.641   0.163   1.032  0.00  0.00    +0.021 A 
ATOM     14  C   UNL     1       6.984   0.323   0.736  0.00  0.00    +0.041 A 
ATOM     15  C   UNL     1       7.429   0.212  -0.571  0.00  0.00    +0.021 A 
ATOM     16  C   UNL     1       6.536  -0.067  -1.585  0.00  0.00    +0.013 A 
ATOM     17 CL   UNL     1       8.115   0.665   2.007  0.00  0.00    -0.084 Cl
ENDBRANCH   7  11
BRANCH   1  19
ATOM     18  C   UNL     1      -0.019   1.526   0.010  0.00  0.00    +0.012 C 
ATOM     19  C   UNL     1       0.002  -0.004   0.002  0.00  0.00    -0.017 C 
ATOM     20  C   UNL     1       0.742  -0.511   1.242  0.00  0.00    +0.012 C 
ATOM     21  C   UNL     1      -1.433  -0.534   0.013  0.00  0.00    +0.012 C 
ENDBRANCH   1  19
TORSDOF 2
