REMARK  Name = ZINC58552166
REMARK  10 active torsions:
REMARK  status: ('A' for Active; 'I' for Inactive)
REMARK    1  A    between atoms: C_1  and  C_2
REMARK    2  A    between atoms: C_3  and  C_12
REMARK    3  A    between atoms: C_4  and  C_11
REMARK    4  A    between atoms: N_5  and  C_7
REMARK    5  A    between atoms: C_7  and  C_8
REMARK    6  A    between atoms: C_7  and  C_9
REMARK    7  A    between atoms: C_7  and  C_10
REMARK    8  A    between atoms: N_14  and  C_15
REMARK    9  A    between atoms: N_21  and  S_24
REMARK   10  A    between atoms: S_24  and  N_27
REMARK                            x       y       z     vdW  Elec       q    Type
REMARK                         _______ _______ _______ _____ _____    ______ ____
ROOT
ATOM      1  C   UNL     1       0.204   0.095  -2.754  0.00  0.00    +0.252 C 
ATOM      2  O   UNL     1       1.310   0.430  -3.134  0.00  0.00    -0.270 OA
ATOM      3  N   UNL     1      -0.856   0.212  -3.580  0.00  0.00    -0.281 N 
ATOM      4  H   UNL     1      -1.724  -0.119  -3.304  0.00  0.00    +0.155 HD
ENDROOT
BRANCH   3   5
ATOM      5  C   UNL     1      -0.702   0.812  -4.834  0.00  0.00    +0.035 A 
ATOM      6  C   UNL     1       0.475   0.631  -5.551  0.00  0.00    +0.024 A 
ATOM      7  C   UNL     1       0.622   1.224  -6.789  0.00  0.00    +0.007 A 
ATOM      8  C   UNL     1      -0.396   1.998  -7.316  0.00  0.00    -0.023 A 
ATOM      9  C   UNL     1      -1.575   2.187  -6.611  0.00  0.00    +0.057 A 
ATOM     10  C   UNL     1      -1.724   1.582  -5.362  0.00  0.00    +0.048 A 
ATOM     11  N   UNL     1      -2.470   2.995  -7.314  0.00  0.00    -0.193 N 
ATOM     12  C   UNL     1      -1.885   3.400  -8.594  0.00  0.00    +0.137 C 
ATOM     13  C   UNL     1      -0.493   2.747  -8.625  0.00  0.00    +0.058 C 
BRANCH  11  14
ATOM     14  S   UNL     1      -3.976   3.431  -6.779  0.00  0.00    +0.109 S 
ATOM     15  O   UNL     1      -4.743   3.742  -7.934  0.00  0.00    -0.138 OA
ATOM     16  O   UNL     1      -4.376   2.441  -5.841  0.00  0.00    -0.138 OA
BRANCH  14  17
ATOM     17  N   UNL     1      -3.804   4.844  -5.931  0.00  0.00    -0.190 NA
ATOM     18  H   UNL     1      -2.927   5.247  -5.834  0.00  0.00    +0.146 HD
ATOM     19  H   UNL     1      -4.580   5.267  -5.532  0.00  0.00    +0.146 HD
ENDBRANCH  14  17
ENDBRANCH  11  14
ENDBRANCH   3   5
BRANCH   1  22
ATOM     20  C   UNL     1      -0.446   1.807  -0.162  0.00  0.00    +0.068 C 
ATOM     21  C   UNL     1      -0.269   0.312  -0.230  0.00  0.00    +0.072 A 
ATOM     22  C   UNL     1       0.021  -0.438  -1.392  0.00  0.00    +0.080 A 
ATOM     23  C   UNL     1       0.101  -1.763  -1.013  0.00  0.00    +0.049 A 
ATOM     24  N   UNL     1      -0.128  -1.817   0.308  0.00  0.00    -0.262 N 
ATOM     25  N   UNL     1      -0.350  -0.517   0.774  0.00  0.00    -0.175 NA
ATOM     26  C   UNL     1       0.391  -2.933  -1.917  0.00  0.00    +0.066 C 
BRANCH  24  27
ATOM     27  C   UNL     1      -0.139  -3.033   1.126  0.00  0.00    +0.056 C 
ATOM     28  C   UNL     1       1.170  -3.798   0.920  0.00  0.00    +0.036 C 
ATOM     29  C   UNL     1      -0.282  -2.654   2.601  0.00  0.00    +0.036 C 
ATOM     30  C   UNL     1      -1.317  -3.917   0.710  0.00  0.00    +0.036 C 
ENDBRANCH  24  27
ENDBRANCH   1  22
TORSDOF 5
