REMARK  Name = ZINC19932146
REMARK  6 active torsions:
REMARK  status: ('A' for Active; 'I' for Inactive)
REMARK    1  A    between atoms: C_1  and  C_2
REMARK    2  A    between atoms: C_2  and  C_3
REMARK    3  A    between atoms: C_2  and  C_4
REMARK    4  A    between atoms: C_4  and  C_5
REMARK    5  A    between atoms: C_6  and  C_16
REMARK    6  A    between atoms: N_8  and  C_10
REMARK                            x       y       z     vdW  Elec       q    Type
REMARK                         _______ _______ _______ _____ _____    ______ ____
ROOT
ATOM      1  C   UNL     1       3.712  -0.264  -0.064  0.00  0.00    +0.031 C 
ATOM      2  C   UNL     1       2.593   0.153   0.581  0.00  0.00    +0.079 C 
ATOM      3  C   UNL     1       1.612  -0.631   1.349  0.00  0.00    +0.265 C 
ATOM      4  O   UNL     1       1.728  -1.835   1.486  0.00  0.00    -0.269 OA
ATOM      5  N   UNL     1       0.599   0.029   1.884  0.00  0.00    -0.193 N 
ATOM      6  C   UNL     1       0.487   1.397   1.717  0.00  0.00    +0.166 C 
ATOM      7  N   UNL     1      -0.440   2.197   2.167  0.00  0.00    -0.279 NA
ATOM      8  S   UNL     1       1.917   1.801   0.727  0.00  0.00    -0.049 S 
ATOM      9  C   UNL     1      -0.365  -0.660   2.624  0.00  0.00    +0.219 A 
ATOM     10  C   UNL     1      -0.275  -0.994   4.049  0.00  0.00    +0.203 A 
ATOM     11  N   UNL     1      -1.359  -1.637   4.388  0.00  0.00    -0.032 NA
ATOM     12  O   UNL     1      -2.176  -1.748   3.236  0.00  0.00    -0.239 OA
ATOM     13  N   UNL     1      -1.499  -1.110   2.167  0.00  0.00    -0.031 NA
ATOM     14  N   UNL     1       0.783  -0.679   4.895  0.00  0.00    -0.338 N 
ATOM     15  H   UNL     1      -1.270   1.794   2.766  0.00  0.00    +0.189 HD
ATOM     16  H   UNL     1       0.749  -0.979   5.953  0.00  0.00    +0.144 HD
ATOM     17  H   UNL     1       1.653  -0.131   4.506  0.00  0.00    +0.144 HD
ENDROOT
BRANCH   1  19
ATOM     18  C   UNL     1       5.266  -2.315  -0.129  0.00  0.00    +0.071 A 
ATOM     19  C   UNL     1       3.994  -1.700  -0.193  0.00  0.00    +0.017 A 
ATOM     20  C   UNL     1       3.065  -2.704  -0.393  0.00  0.00    +0.122 A 
ATOM     21  N   UNL     1       3.741  -3.869  -0.458  0.00  0.00    -0.239 N 
ATOM     22  N   UNL     1       5.103  -3.600  -0.287  0.00  0.00    -0.171 NA
BRANCH  21  23
ATOM     23  C   UNL     1       3.174  -5.135  -0.655  0.00  0.00    +0.065 A 
ATOM     24  C   UNL     1       1.800  -5.266  -0.806  0.00  0.00    +0.028 A 
ATOM     25  C   UNL     1       1.244  -6.515  -1.007  0.00  0.00    +0.002 A 
ATOM     26  C   UNL     1       2.055  -7.635  -1.047  0.00  0.00    +0.000 A 
ATOM     27  C   UNL     1       3.423  -7.508  -0.891  0.00  0.00    +0.002 A 
ATOM     28  C   UNL     1       3.985  -6.261  -0.696  0.00  0.00    +0.028 A 
ENDBRANCH  21  23
BRANCH  18  29
ATOM     29  C   UNL     1       6.581  -1.610   0.084  0.00  0.00    +0.061 C 
BRANCH  29  31
ATOM     30  C   UNL     1       8.268  -0.924   1.794  0.00  0.00    +0.007 C 
ATOM     31  C   UNL     1       6.878  -1.528   1.582  0.00  0.00    -0.011 C 
ATOM     32  C   UNL     1       5.830  -0.645   2.263  0.00  0.00    +0.007 C 
ENDBRANCH  29  31
ENDBRANCH  18  29
ENDBRANCH   1  19
TORSDOF 4
