REMARK  Name = ZINC53899066
REMARK  3 active torsions:
REMARK  status: ('A' for Active; 'I' for Inactive)
REMARK    1  A    between atoms: C_6  and  C_7
REMARK    2  A    between atoms: C_13  and  S_20
REMARK    3  A    between atoms: S_20  and  N_23
REMARK                            x       y       z     vdW  Elec       q    Type
REMARK                         _______ _______ _______ _____ _____    ______ ____
ROOT
ATOM      1  C   UNL     1      -1.293  -0.775   0.010  0.00  0.00    +0.191 C 
ATOM      2  N   UNL     1      -2.328  -0.001  -0.670  0.00  0.00    -0.322 N 
ATOM      3  C   UNL     1      -2.332   0.231  -2.043  0.00  0.00    +0.057 A 
ATOM      4  C   UNL     1      -3.053   1.316  -2.540  0.00  0.00    +0.047 A 
ATOM      5  C   UNL     1      -3.091   1.562  -3.897  0.00  0.00    +0.069 A 
ATOM      6  C   UNL     1      -2.414   0.733  -4.775  0.00  0.00    +0.125 A 
ATOM      7  C   UNL     1      -1.692  -0.342  -4.289  0.00  0.00    +0.060 A 
ATOM      8  C   UNL     1      -1.646  -0.586  -2.932  0.00  0.00    +0.128 A 
ATOM      9  S   UNL     1      -0.690  -1.937  -2.313  0.00  0.00    +0.062 S 
ATOM     10  O   UNL     1      -1.167  -3.112  -2.955  0.00  0.00    -0.153 OA
ATOM     11  O   UNL     1       0.673  -1.536  -2.358  0.00  0.00    -0.153 OA
ATOM     12  N   UNL     1      -1.111  -2.056  -0.701  0.00  0.00    -0.166 NA
ATOM     13 CL   UNL     1      -3.989   2.917  -4.506  0.00  0.00    -0.081 Cl
ATOM     14  H   UNL     1      -3.050   0.371  -0.139  0.00  0.00    +0.148 HD
ATOM     15  H   UNL     1      -1.232  -2.912  -0.259  0.00  0.00    +0.150 HD
ENDROOT
BRANCH   1  21
ATOM     16  C   UNL     1      -0.017   1.378   0.010  0.00  0.00    +0.009 A 
ATOM     17  C   UNL     1       1.170   2.086   0.002  0.00  0.00    +0.039 A 
ATOM     18  C   UNL     1       2.379   1.410  -0.013  0.00  0.00    +0.123 A 
ATOM     19  C   UNL     1       2.396   0.026  -0.021  0.00  0.00    +0.039 A 
ATOM     20  C   UNL     1       1.208  -0.680  -0.013  0.00  0.00    +0.009 A 
ATOM     21  C   UNL     1       0.002  -0.004   0.002  0.00  0.00    -0.011 A 
ATOM     22  F   UNL     1       3.540   2.101  -0.021  0.00  0.00    -0.205 F 
ENDBRANCH   1  21
BRANCH   6  23
ATOM     23  S   UNL     1      -2.474   1.046  -6.508  0.00  0.00    +0.057 S 
ATOM     24  O   UNL     1      -2.179   2.425  -6.683  0.00  0.00    -0.153 OA
ATOM     25  O   UNL     1      -1.714   0.019  -7.132  0.00  0.00    -0.153 OA
BRANCH  23  26
ATOM     26  N   UNL     1      -4.043   0.832  -6.991  0.00  0.00    -0.203 NA
ATOM     27  H   UNL     1      -4.394   1.339  -7.740  0.00  0.00    +0.144 HD
ATOM     28  H   UNL     1      -4.612   0.200  -6.525  0.00  0.00    +0.144 HD
ENDBRANCH  23  26
ENDBRANCH   6  23
TORSDOF 3
