REMARK  Name = ZINC35027540
REMARK  7 active torsions:
REMARK  status: ('A' for Active; 'I' for Inactive)
REMARK    1  A    between atoms: C_1  and  C_2
REMARK    2  A    between atoms: C_2  and  C_4
REMARK    3  A    between atoms: C_2  and  N_17
REMARK    4  A    between atoms: N_14  and  C_15
REMARK    5  A    between atoms: N_17  and  C_18
REMARK    6  A    between atoms: C_18  and  C_19
REMARK    7  A    between atoms: N_26  and  C_27
REMARK                            x       y       z     vdW  Elec       q    Type
REMARK                         _______ _______ _______ _____ _____    ______ ____
ROOT
ATOM      1  N   UNL     1       0.682  -0.542  -1.104  0.00  0.00    -0.269 N 
ATOM      2  C   UNL     1      -0.004  -1.319  -1.966  0.00  0.00    +0.304 C 
ATOM      3  O   UNL     1      -1.191  -1.520  -1.791  0.00  0.00    -0.253 OA
ATOM      4  N   UNL     1       0.625  -1.873  -3.021  0.00  0.00    -0.294 N 
ATOM      5  H   UNL     1       1.571  -1.712  -3.160  0.00  0.00    +0.151 HD
ENDROOT
BRANCH   4   6
ATOM      6  C   UNL     1      -0.121  -2.717  -3.958  0.00  0.00    +0.037 C 
ATOM      7  C   UNL     1      -0.709  -3.914  -3.208  0.00  0.00    +0.029 C 
ATOM      8  C   UNL     1      -1.488  -4.796  -4.186  0.00  0.00    -0.008 C 
ATOM      9  C   UNL     1      -0.547  -5.294  -5.284  0.00  0.00    +0.007 C 
ATOM     10  C   UNL     1       0.042  -4.097  -6.034  0.00  0.00    -0.008 C 
ATOM     11  C   UNL     1       0.821  -3.216  -5.056  0.00  0.00    +0.029 C 
ATOM     12  C   UNL     1      -1.091  -3.283  -6.664  0.00  0.00    +0.007 C 
ATOM     13  C   UNL     1      -2.032  -2.785  -5.566  0.00  0.00    -0.008 C 
ATOM     14  C   UNL     1      -2.620  -3.982  -4.816  0.00  0.00    +0.007 C 
ATOM     15  C   UNL     1      -1.253  -1.903  -4.587  0.00  0.00    +0.029 C 
ENDBRANCH   4   6
BRANCH   1  17
ATOM     16  C   UNL     1      -0.474  -1.043   0.993  0.00  0.00    +0.036 C 
ATOM     17  C   UNL     1      -0.002   0.060   0.043  0.00  0.00    +0.141 C 
BRANCH  17  18
ATOM     18  C   UNL     1      -1.191   0.851  -0.439  0.00  0.00    +0.133 A 
ATOM     19  N   UNL     1      -2.377   0.357  -0.250  0.00  0.00    -0.232 NA
ATOM     20  C   UNL     1      -3.492   1.012  -0.656  0.00  0.00    +0.080 A 
ATOM     21  C   UNL     1      -4.769   0.484  -0.454  0.00  0.00    +0.048 A 
ATOM     22  C   UNL     1      -5.872   1.188  -0.885  0.00  0.00    +0.043 A 
ATOM     23  C   UNL     1      -5.729   2.417  -1.518  0.00  0.00    +0.021 A 
ATOM     24  C   UNL     1      -4.489   2.954  -1.728  0.00  0.00    +0.017 A 
ATOM     25  C   UNL     1      -3.357   2.263  -1.301  0.00  0.00    +0.065 A 
ATOM     26  C   UNL     1      -2.001   2.793  -1.499  0.00  0.00    +0.262 A 
ATOM     27  O   UNL     1      -1.814   3.864  -2.046  0.00  0.00    -0.267 OA
ATOM     28  N   UNL     1      -0.967   2.047  -1.044  0.00  0.00    -0.298 N 
ATOM     29  C   UNL     1       0.406   2.530  -1.210  0.00  0.00    +0.154 C 
ATOM     30 CL   UNL     1      -7.460   0.533  -0.634  0.00  0.00    -0.083 Cl
ENDBRANCH  17  18
ENDBRANCH   1  17
BRANCH   1  31
ATOM     31  C   UNL     1       2.111  -0.300  -1.315  0.00  0.00    +0.184 C 
BRANCH  31  32
ATOM     32  C   UNL     1       2.907  -1.423  -0.701  0.00  0.00    +0.122 A 
ATOM     33  C   UNL     1       3.363  -2.510  -1.350  0.00  0.00    +0.046 A 
ATOM     34  C   UNL     1       4.052  -3.296  -0.398  0.00  0.00    +0.041 A 
ATOM     35  C   UNL     1       3.975  -2.643   0.775  0.00  0.00    +0.195 A 
ATOM     36  O   UNL     1       3.285  -1.507   0.585  0.00  0.00    -0.466 OA
ENDBRANCH  31  32
ENDBRANCH   1  31
TORSDOF 5
