REMARK  Name = ZINC66940492
REMARK  6 active torsions:
REMARK  status: ('A' for Active; 'I' for Inactive)
REMARK    1  A    between atoms: C_3  and  C_21
REMARK    2  A    between atoms: C_6  and  C_7
REMARK    3  A    between atoms: C_7  and  N_8
REMARK    4  A    between atoms: N_8  and  C_9
REMARK    5  A    between atoms: C_9  and  C_11
REMARK    6  A    between atoms: C_9  and  C_18
REMARK                            x       y       z     vdW  Elec       q    Type
REMARK                         _______ _______ _______ _____ _____    ______ ____
ROOT
ATOM      1  C   UNL     1      -1.294  -0.772   0.011  0.00  0.00    -0.045 C 
ENDROOT
BRANCH   1   7
ATOM      2  C   UNL     1      -0.017   1.379   0.010  0.00  0.00    +0.002 A 
ATOM      3  C   UNL     1       1.167   2.088   0.002  0.00  0.00    +0.009 A 
ATOM      4  C   UNL     1       2.384   1.407  -0.013  0.00  0.00    -0.018 A 
ATOM      5  C   UNL     1       2.397   0.014  -0.021  0.00  0.00    +0.009 A 
ATOM      6  C   UNL     1       1.206  -0.684  -0.013  0.00  0.00    +0.002 A 
ATOM      7  C   UNL     1       0.002  -0.004   0.002  0.00  0.00    -0.064 A 
BRANCH   4   8
ATOM      8  C   UNL     1       3.660   2.164  -0.022  0.00  0.00    -0.017 A 
ATOM      9  C   UNL     1       3.647   3.558  -0.009  0.00  0.00    +0.012 A 
ATOM     10  C   UNL     1       4.836   4.254  -0.019  0.00  0.00    +0.046 A 
ATOM     11  C   UNL     1       6.051   3.573  -0.041  0.00  0.00    +0.124 A 
ATOM     12  C   UNL     1       6.066   2.188  -0.051  0.00  0.00    -0.005 A 
ATOM     13  C   UNL     1       4.875   1.485  -0.037  0.00  0.00    +0.015 A 
ATOM     14  C   UNL     1       7.361   1.416  -0.064  0.00  0.00    +0.042 C 
ATOM     15  C   UNL     1       8.503   2.334  -0.507  0.00  0.00    +0.046 C 
ATOM     16  C   UNL     1       8.413   3.638   0.296  0.00  0.00    +0.229 C 
ATOM     17  O   UNL     1       7.198   4.300  -0.057  0.00  0.00    -0.492 OA
ENDBRANCH   4   8
ENDBRANCH   1   7
BRANCH   1  18
ATOM     18  N   UNL     1      -1.729  -1.015  -1.371  0.00  0.00    +0.392 N 
ATOM     19  H   UNL     1      -1.865  -0.132  -1.841  0.00  0.00    -0.084 HD
ATOM     20  H   UNL     1      -1.025  -1.549  -1.857  0.00  0.00    -0.084 HD
BRANCH  18  21
ATOM     21  C   UNL     1      -2.993  -1.764  -1.363  0.00  0.00    +0.047 C 
BRANCH  21  22
ATOM     22  C   UNL     1      -3.502  -1.906  -2.774  0.00  0.00    -0.053 A 
ATOM     23  C   UNL     1      -2.619  -2.170  -3.804  0.00  0.00    +0.005 A 
ATOM     24  C   UNL     1      -3.085  -2.301  -5.098  0.00  0.00    +0.038 A 
ATOM     25  C   UNL     1      -4.437  -2.167  -5.363  0.00  0.00    +0.123 A 
ATOM     26  C   UNL     1      -5.321  -1.902  -4.331  0.00  0.00    +0.038 A 
ATOM     27  C   UNL     1      -4.853  -1.777  -3.037  0.00  0.00    +0.005 A 
ATOM     28  F   UNL     1      -4.894  -2.295  -6.628  0.00  0.00    -0.205 F 
ENDBRANCH  21  22
BRANCH  21  29
ATOM     29  C   UNL     1      -2.763  -3.131  -0.772  0.00  0.00    +0.201 C 
ATOM     30  O   UNL     1      -1.655  -3.450  -0.395  0.00  0.00    -0.277 OA
ATOM     31  N   UNL     1      -3.788  -3.999  -0.662  0.00  0.00    -0.330 N 
ATOM     32  H   UNL     1      -4.674  -3.744  -0.964  0.00  0.00    +0.145 HD
ATOM     33  H   UNL     1      -3.639  -4.879  -0.282  0.00  0.00    +0.145 HD
ENDBRANCH  21  29
ENDBRANCH  18  21
ENDBRANCH   1  18
TORSDOF 6
