REMARK  Name = ZINC16789135
REMARK  9 active torsions:
REMARK  status: ('A' for Active; 'I' for Inactive)
REMARK    1  A    between atoms: C_1  and  C_2
REMARK    2  A    between atoms: C_5  and  N_9
REMARK    3  A    between atoms: C_10  and  C_12
REMARK    4  A    between atoms: C_12  and  C_14
REMARK    5  A    between atoms: C_12  and  S_15
REMARK    6  A    between atoms: S_15  and  C_16
REMARK    7  A    between atoms: C_19  and  C_22
REMARK    8  A    between atoms: N_20  and  N_21
REMARK    9  A    between atoms: C_26  and  C_27
REMARK                            x       y       z     vdW  Elec       q    Type
REMARK                         _______ _______ _______ _____ _____    ______ ____
ROOT
ATOM      1  S   UNL     1      -5.018   3.201   0.067  0.00  0.00    -0.072 S 
ENDROOT
BRANCH   1   2
ATOM      2  C   UNL     1      -3.259   3.096   0.070  0.00  0.00    +0.209 A 
ATOM      3  N   UNL     1      -2.418   4.104   0.075  0.00  0.00    -0.121 NA
ATOM      4  N   UNL     1      -1.208   3.670   0.080  0.00  0.00    -0.127 NA
ATOM      5  C   UNL     1      -1.202   2.358   0.071  0.00  0.00    +0.185 A 
ATOM      6  N   UNL     1      -2.515   1.948   0.068  0.00  0.00    -0.224 N 
BRANCH   5   7
ATOM      7  C   UNL     1      -0.009   1.484   0.071  0.00  0.00    +0.061 A 
ATOM      8  C   UNL     1       0.015   0.016   0.067  0.00  0.00    +0.053 A 
ATOM      9  C   UNL     1       1.312  -0.334   0.062  0.00  0.00    +0.196 A 
ATOM     10  O   UNL     1       2.065   0.776   0.063  0.00  0.00    -0.467 OA
ATOM     11  C   UNL     1       1.294   1.874   0.069  0.00  0.00    +0.112 A 
ATOM     12  C   UNL     1       1.789   3.298   0.071  0.00  0.00    +0.087 C 
ENDBRANCH   5   7
BRANCH   6  13
ATOM     13  N   UNL     1      -2.979   0.664   0.064  0.00  0.00    -0.295 N 
ATOM     14  H   UNL     1      -3.103   0.321   1.004  0.00  0.00    +0.163 HD
ATOM     15  H   UNL     1      -3.836   0.591  -0.464  0.00  0.00    +0.163 HD
ENDBRANCH   6  13
ENDBRANCH   1   2
BRANCH   1  16
ATOM     16  C   UNL     1      -5.224   5.000   0.073  0.00  0.00    +0.137 C 
ATOM     17  C   UNL     1      -4.679   5.572   1.383  0.00  0.00    +0.029 C 
BRANCH  16  19
ATOM     18  N   UNL     1      -7.063   6.526  -0.566  0.00  0.00    -0.284 N 
ATOM     19  C   UNL     1      -6.688   5.338  -0.053  0.00  0.00    +0.230 C 
ATOM     20  O   UNL     1      -7.527   4.540   0.308  0.00  0.00    -0.274 OA
ATOM     21  H   UNL     1      -6.393   7.189  -0.793  0.00  0.00    +0.155 HD
BRANCH  18  26
ATOM     22  C   UNL     1     -12.564   7.647  -1.393  0.00  0.00    +0.044 C 
ATOM     23  C   UNL     1     -11.103   7.349  -1.173  0.00  0.00    -0.049 A 
ATOM     24  C   UNL     1     -10.710   6.581  -0.093  0.00  0.00    +0.005 A 
ATOM     25  C   UNL     1      -9.372   6.306   0.111  0.00  0.00    +0.024 A 
ATOM     26  C   UNL     1      -8.420   6.803  -0.770  0.00  0.00    +0.047 A 
ATOM     27  C   UNL     1      -8.817   7.579  -1.851  0.00  0.00    +0.039 A 
ATOM     28  C   UNL     1     -10.158   7.846  -2.053  0.00  0.00    +0.020 A 
ATOM     29 BR   UNL     1      -7.525   8.264  -3.050  0.00  0.00    -0.048 Br
ENDBRANCH  18  26
ENDBRANCH  16  19
ENDBRANCH   1  16
TORSDOF 6
