REMARK  Name = ZINC63362032
REMARK  7 active torsions:
REMARK  status: ('A' for Active; 'I' for Inactive)
REMARK    1  A    between atoms: C_1  and  C_2
REMARK    2  A    between atoms: C_7  and  N_8
REMARK    3  A    between atoms: C_9  and  C_11
REMARK    4  A    between atoms: C_14  and  N_17
REMARK    5  A    between atoms: C_20  and  C_38
REMARK    6  A    between atoms: C_26  and  O_31
REMARK    7  A    between atoms: O_31  and  C_32
REMARK                            x       y       z     vdW  Elec       q    Type
REMARK                         _______ _______ _______ _____ _____    ______ ____
ROOT
ATOM      1  N   UNL     1      -0.472   2.103   8.463  0.00  0.00    -0.192 N 
ATOM      2  C   UNL     1      -0.451   1.515   9.677  0.00  0.00    +0.253 C 
ATOM      3  O   UNL     1      -0.377   0.328   9.915  0.00  0.00    -0.272 OA
ATOM      4  C   UNL     1      -0.538   2.645  10.678  0.00  0.00    +0.137 C 
ATOM      5  C   UNL     1      -1.772   2.485  11.565  0.00  0.00    +0.139 C 
ATOM      6  C   UNL     1      -2.743   3.596  11.195  0.00  0.00    -0.034 C 
ATOM      7  C   UNL     1      -3.885   2.998  10.866  0.00  0.00    +0.003 A 
ATOM      8  C   UNL     1      -5.199   3.538  10.485  0.00  0.00    +0.055 A 
ATOM      9  C   UNL     1      -6.171   2.629  10.194  0.00  0.00    +0.121 A 
ATOM     10  C   UNL     1      -5.984   1.240  10.240  0.00  0.00    +0.047 A 
ATOM     11  C   UNL     1      -4.817   0.636  10.582  0.00  0.00    +0.029 A 
ATOM     12  C   UNL     1      -3.690   1.517  10.923  0.00  0.00    +0.043 A 
ATOM     13  N   UNL     1      -2.469   1.222  11.306  0.00  0.00    -0.375 N 
ATOM     14  C   UNL     1      -2.369   5.058  11.165  0.00  0.00    +0.052 C 
ATOM     15  C   UNL     1      -1.086   5.176  10.317  0.00  0.00    +0.115 C 
ATOM     16  N   UNL     1      -0.744   3.836   9.830  0.00  0.00    -0.268 N 
ATOM     17  C   UNL     1      -0.598   3.433   8.560  0.00  0.00    +0.316 C 
ATOM     18  O   UNL     1      -0.584   4.186   7.606  0.00  0.00    -0.252 OA
ATOM     19  C   UNL     1       0.747   2.760  11.502  0.00  0.00    +0.044 C 
ATOM     20  H   UNL     1      -2.089   0.335  11.398  0.00  0.00    +0.160 HD
ENDROOT
BRANCH   1  24
ATOM     21  C   UNL     1      -0.164   0.036   4.855  0.00  0.00    +0.037 A 
ATOM     22  C   UNL     1      -0.168   1.434   4.864  0.00  0.00    +0.015 A 
ATOM     23  C   UNL     1      -0.270   2.113   6.057  0.00  0.00    +0.025 A 
ATOM     24  C   UNL     1      -0.369   1.410   7.253  0.00  0.00    +0.045 A 
ATOM     25  C   UNL     1      -0.366   0.019   7.248  0.00  0.00    +0.025 A 
ATOM     26  C   UNL     1      -0.270  -0.667   6.058  0.00  0.00    +0.015 A 
BRANCH  21  28
ATOM     27  N   UNL     1       0.045  -0.015   2.418  0.00  0.00    -0.281 N 
ATOM     28  C   UNL     1      -0.056  -0.695   3.577  0.00  0.00    +0.248 C 
ATOM     29  O   UNL     1      -0.058  -1.911   3.571  0.00  0.00    -0.270 OA
ATOM     30  H   UNL     1       0.111   0.953   2.428  0.00  0.00    +0.155 HD
BRANCH  27  37
ATOM     31  C   UNL     1      -1.207   1.203   0.173  0.00  0.00    +0.045 C 
ATOM     32  C   UNL     1      -0.544  -0.147   0.080  0.00  0.00    -0.029 A 
ATOM     33  C   UNL     1      -0.527  -0.828  -1.121  0.00  0.00    +0.005 A 
ATOM     34  C   UNL     1       0.081  -2.067  -1.207  0.00  0.00    +0.000 A 
ATOM     35  C   UNL     1       0.674  -2.628  -0.090  0.00  0.00    +0.002 A 
ATOM     36  C   UNL     1       0.660  -1.952   1.114  0.00  0.00    +0.023 A 
ATOM     37  C   UNL     1       0.056  -0.705   1.202  0.00  0.00    +0.037 A 
ENDBRANCH  27  37
ENDBRANCH  21  28
ENDBRANCH   1  24
BRANCH   9  38
ATOM     38  O   UNL     1      -7.396   3.097   9.839  0.00  0.00    -0.495 OA
ATOM     39  C   UNL     1      -8.400   2.124   9.539  0.00  0.00    +0.277 C 
ENDBRANCH   9  38
TORSDOF 4
