REMARK  Name = ZINC23187776
REMARK  9 active torsions:
REMARK  status: ('A' for Active; 'I' for Inactive)
REMARK    1  A    between atoms: C_1  and  C_2
REMARK    2  A    between atoms: C_5  and  C_7
REMARK    3  A    between atoms: N_9  and  C_10
REMARK    4  A    between atoms: C_10  and  C_11
REMARK    5  A    between atoms: N_13  and  N_14
REMARK    6  A    between atoms: C_15  and  C_17
REMARK    7  A    between atoms: C_21  and  S_23
REMARK    8  A    between atoms: S_23  and  N_26
REMARK    9  A    between atoms: N_26  and  C_27
REMARK                            x       y       z     vdW  Elec       q    Type
REMARK                         _______ _______ _______ _____ _____    ______ ____
ROOT
ATOM      1  C   UNL     1       3.124   0.341  -3.373  0.00  0.00    +0.040 A 
ATOM      2  C   UNL     1       2.965   1.337  -4.338  0.00  0.00    +0.013 A 
ATOM      3  C   UNL     1       2.363   2.531  -3.999  0.00  0.00    +0.003 A 
ATOM      4  C   UNL     1       1.919   2.743  -2.705  0.00  0.00    +0.029 A 
ATOM      5  C   UNL     1       2.074   1.759  -1.745  0.00  0.00    +0.109 A 
ATOM      6  C   UNL     1       2.678   0.562  -2.070  0.00  0.00    +0.042 A 
ENDROOT
BRANCH   1   8
ATOM      7  N   UNL     1       4.202  -1.151  -4.989  0.00  0.00    -0.230 N 
ATOM      8  C   UNL     1       3.768  -0.942  -3.730  0.00  0.00    +0.260 C 
ATOM      9  O   UNL     1       3.905  -1.808  -2.888  0.00  0.00    -0.269 OA
ATOM     10  H   UNL     1       4.078  -0.367  -5.751  0.00  0.00    +0.173 HD
BRANCH   7  13
ATOM     11  C   UNL     1       5.247  -2.575  -6.585  0.00  0.00    +0.246 C 
ATOM     12  O   UNL     1       5.109  -1.710  -7.426  0.00  0.00    -0.273 OA
ATOM     13  N   UNL     1       4.812  -2.366  -5.327  0.00  0.00    -0.233 N 
ATOM     14  H   UNL     1       4.936  -3.149  -4.565  0.00  0.00    +0.173 HD
BRANCH  11  15
ATOM     15  C   UNL     1       5.902  -3.882  -6.949  0.00  0.00    +0.201 C 
BRANCH  15  18
ATOM     16  C   UNL     1       6.889  -4.931  -8.915  0.00  0.00    +0.217 C 
ATOM     17  O   UNL     1       7.120  -5.911  -8.239  0.00  0.00    -0.275 OA
ATOM     18  N   UNL     1       6.282  -3.861  -8.364  0.00  0.00    -0.306 N 
ATOM     19  H   UNL     1       6.072  -2.971  -8.977  0.00  0.00    +0.149 HD
BRANCH  16  23
ATOM     20  C   UNL     1       8.201  -7.326  -9.982  0.00  0.00    +0.008 C 
ATOM     21  C   UNL     1       7.964  -6.154 -10.937  0.00  0.00    -0.002 C 
ATOM     22  C   UNL     1       6.518  -5.836 -11.320  0.00  0.00    +0.017 C 
ATOM     23  C   UNL     1       7.279  -4.909 -10.370  0.00  0.00    +0.078 C 
ENDBRANCH  16  23
ENDBRANCH  15  18
ENDBRANCH  11  15
ENDBRANCH   7  13
ENDBRANCH   1   8
BRANCH   5  24
ATOM     24  S   UNL     1       1.506   2.039  -0.101  0.00  0.00    +0.072 S 
ATOM     25  O   UNL     1       1.414   3.447   0.063  0.00  0.00    -0.150 OA
ATOM     26  O   UNL     1       2.301   1.223   0.749  0.00  0.00    -0.150 OA
BRANCH  24  27
ATOM     27  N   UNL     1      -0.040   1.451  -0.010  0.00  0.00    -0.216 N 
ATOM     28  H   UNL     1      -0.878   2.135   0.190  0.00  0.00    +0.174 HD
BRANCH  27  29
ATOM     29  C   UNL     1      -0.279   0.086  -0.188  0.00  0.00    +0.048 A 
ATOM     30  C   UNL     1      -0.848  -0.373  -1.369  0.00  0.00    +0.026 A 
ATOM     31  C   UNL     1      -1.077  -1.724  -1.544  0.00  0.00    +0.022 A 
ATOM     32  C   UNL     1      -0.753  -2.618  -0.539  0.00  0.00    +0.041 A 
ATOM     33  C   UNL     1      -0.192  -2.163   0.641  0.00  0.00    +0.022 A 
ATOM     34  C   UNL     1       0.045  -0.815   0.819  0.00  0.00    +0.026 A 
ATOM     35 CL   UNL     1      -1.051  -4.314  -0.759  0.00  0.00    -0.084 Cl
ENDBRANCH  27  29
ENDBRANCH  24  27
ENDBRANCH   5  24
TORSDOF 8
