REMARK  Name = ZINC67592080
REMARK  11 active torsions:
REMARK  status: ('A' for Active; 'I' for Inactive)
REMARK    1  A    between atoms: C_1  and  C_2
REMARK    2  A    between atoms: C_2  and  C_4
REMARK    3  A    between atoms: C_2  and  N_18
REMARK    4  A    between atoms: N_6  and  C_7
REMARK    5  A    between atoms: C_7  and  C_9
REMARK    6  A    between atoms: C_7  and  C_10
REMARK    7  A    between atoms: C_19  and  O_21
REMARK    8  A    between atoms: O_21  and  C_22
REMARK    9  A    between atoms: C_22  and  C_23
REMARK   10  A    between atoms: C_22  and  C_24
REMARK   11  A    between atoms: C_22  and  C_25
REMARK                            x       y       z     vdW  Elec       q    Type
REMARK                         _______ _______ _______ _____ _____    ______ ____
ROOT
ATOM      1  C   UNL     1       0.492  -0.548   1.651  0.00  0.00    +0.234 C 
ATOM      2  O   UNL     1       0.142  -1.389   2.452  0.00  0.00    -0.274 OA
ATOM      3  N   UNL     1       1.766  -0.109   1.648  0.00  0.00    -0.303 N 
ATOM      4  H   UNL     1       2.046   0.563   1.007  0.00  0.00    +0.149 HD
ENDROOT
BRANCH   1   6
ATOM      5  C   UNL     1      -0.627   1.516   0.854  0.00  0.00    +0.038 C 
ATOM      6  C   UNL     1      -0.498   0.004   0.658  0.00  0.00    +0.159 C 
BRANCH   6   7
ATOM      7  N   UNL     1      -1.803  -0.629   0.864  0.00  0.00    -0.270 N 
ATOM      8  C   UNL     1      -2.684  -0.702  -0.152  0.00  0.00    +0.401 C 
ATOM      9  O   UNL     1      -2.397  -0.243  -1.240  0.00  0.00    -0.226 OA
ATOM     10  H   UNL     1      -2.032  -0.995   1.733  0.00  0.00    +0.153 HD
BRANCH   8  11
ATOM     11  O   UNL     1      -3.884  -1.284   0.038  0.00  0.00    -0.445 OA
BRANCH  11  12
ATOM     12  C   UNL     1      -4.769  -1.327  -1.083  0.00  0.00    +0.107 C 
ATOM     13  C   UNL     1      -4.110  -2.106  -2.224  0.00  0.00    +0.055 C 
ATOM     14  C   UNL     1      -6.071  -2.020  -0.678  0.00  0.00    +0.055 C 
ATOM     15  C   UNL     1      -5.073   0.099  -1.548  0.00  0.00    +0.055 C 
ENDBRANCH  11  12
ENDBRANCH   8  11
ENDBRANCH   6   7
ENDBRANCH   1   6
BRANCH   3  16
ATOM     16  C   UNL     1       2.728  -0.647   2.614  0.00  0.00    +0.156 C 
ATOM     17  C   UNL     1       3.328  -1.944   2.067  0.00  0.00    +0.038 C 
BRANCH  16  18
ATOM     18  C   UNL     1       3.827   0.359   2.841  0.00  0.00    +0.236 C 
ATOM     19  O   UNL     1       4.104   1.161   1.974  0.00  0.00    -0.274 OA
ATOM     20  N   UNL     1       4.502   0.367   4.007  0.00  0.00    -0.300 N 
ATOM     21  C   UNL     1       4.259  -0.668   5.020  0.00  0.00    +0.108 C 
ATOM     22  C   UNL     1       5.596  -1.314   5.396  0.00  0.00    +0.019 C 
ATOM     23  C   UNL     1       6.579  -0.225   5.834  0.00  0.00    +0.003 C 
ATOM     24  C   UNL     1       6.819   0.744   4.673  0.00  0.00    +0.019 C 
ATOM     25  C   UNL     1       5.500   1.409   4.287  0.00  0.00    +0.108 C 
ENDBRANCH  16  18
ENDBRANCH   3  16
TORSDOF 6
