REMARK  Name = ZINC19616822
REMARK  5 active torsions:
REMARK  status: ('A' for Active; 'I' for Inactive)
REMARK    1  A    between atoms: C_6  and  C_7
REMARK    2  A    between atoms: C_10  and  C_12
REMARK    3  A    between atoms: N_14  and  N_15
REMARK    4  A    between atoms: C_16  and  C_18
REMARK    5  A    between atoms: C_21  and  N_23
REMARK                            x       y       z     vdW  Elec       q    Type
REMARK                         _______ _______ _______ _____ _____    ______ ____
ROOT
ATOM      1  C   UNL     1      -5.231  -1.984   0.038  0.00  0.00    +0.267 C 
ATOM      2  O   UNL     1      -5.637  -3.132   0.040  0.00  0.00    -0.268 OA
ATOM      3  N   UNL     1      -6.106  -0.960   0.045  0.00  0.00    -0.230 N 
ATOM      4  H   UNL     1      -5.783  -0.045   0.044  0.00  0.00    +0.173 HD
ENDROOT
BRANCH   1   8
ATOM      5  C   UNL     1      -1.266  -0.763   0.011  0.00  0.00    +0.020 A 
ATOM      6  C   UNL     1      -1.459  -2.135   0.011  0.00  0.00    +0.017 A 
ATOM      7  C   UNL     1      -2.737  -2.619   0.020  0.00  0.00    +0.021 A 
ATOM      8  C   UNL     1      -3.791  -1.717   0.028  0.00  0.00    +0.076 A 
ATOM      9  S   UNL     1      -2.941  -0.147   0.031  0.00  0.00    -0.084 S 
BRANCH   5  15
ATOM     10  C   UNL     1      -0.017   1.392   0.010  0.00  0.00    +0.012 A 
ATOM     11  C   UNL     1       1.169   2.095   0.002  0.00  0.00    +0.039 A 
ATOM     12  C   UNL     1       2.379   1.419  -0.013  0.00  0.00    +0.123 A 
ATOM     13  C   UNL     1       2.404   0.033  -0.021  0.00  0.00    +0.039 A 
ATOM     14  C   UNL     1       1.223  -0.680  -0.014  0.00  0.00    +0.012 A 
ATOM     15  C   UNL     1       0.002  -0.004   0.002  0.00  0.00    -0.011 A 
ATOM     16  F   UNL     1       3.538   2.112  -0.022  0.00  0.00    -0.205 F 
ENDBRANCH   5  15
ENDBRANCH   1   8
BRANCH   3  17
ATOM     17  N   UNL     1      -7.484  -1.215   0.055  0.00  0.00    -0.230 N 
ATOM     18  C   UNL     1      -8.359  -0.191   0.062  0.00  0.00    +0.267 C 
ATOM     19  O   UNL     1      -7.953   0.957   0.060  0.00  0.00    -0.268 OA
ATOM     20  H   UNL     1      -7.807  -2.130   0.057  0.00  0.00    +0.173 HD
BRANCH  18  21
ATOM     21  C   UNL     1      -9.800  -0.458   0.072  0.00  0.00    +0.077 A 
ATOM     22  C   UNL     1     -10.856   0.441   0.075  0.00  0.00    +0.023 A 
ATOM     23  C   UNL     1     -12.113  -0.115   0.085  0.00  0.00    +0.041 A 
ATOM     24  C   UNL     1     -12.237  -1.465   0.091  0.00  0.00    +0.164 A 
ATOM     25  S   UNL     1     -10.653  -2.024   0.077  0.00  0.00    -0.060 S 
BRANCH  24  26
ATOM     26  N   UNL     1     -13.483  -2.264   0.102  0.00  0.00    +0.063 N 
ATOM     27  O   UNL     1     -14.557  -1.709   0.107  0.00  0.00    -0.126 OA
ATOM     28  O   UNL     1     -13.427  -3.472   0.107  0.00  0.00    -0.126 OA
ENDBRANCH  24  26
ENDBRANCH  18  21
ENDBRANCH   3  17
TORSDOF 5
