REMARK  Name = ZINC62828018
REMARK  4 active torsions:
REMARK  status: ('A' for Active; 'I' for Inactive)
REMARK    1  A    between atoms: C_1  and  C_2
REMARK    2  A    between atoms: C_2  and  C_3
REMARK    3  A    between atoms: N_12  and  C_13
REMARK    4  A    between atoms: C_14  and  C_18
REMARK                            x       y       z     vdW  Elec       q    Type
REMARK                         _______ _______ _______ _____ _____    ______ ____
ROOT
ATOM      1  C   UNL     1      -1.396  -0.631  -0.025  0.00  0.00    +0.103 C 
ATOM      2  C   UNL     1      -1.262  -2.147   0.157  0.00  0.00    +0.182 C 
ATOM      3  O   UNL     1      -2.534  -2.762  -0.068  0.00  0.00    -0.376 OA
ATOM      4  C   UNL     1      -3.043  -2.587  -1.392  0.00  0.00    +0.179 C 
ATOM      5  C   UNL     1      -3.268  -1.093  -1.653  0.00  0.00    +0.137 C 
ATOM      6  N   UNL     1      -2.026  -0.373  -1.330  0.00  0.00    -0.278 N 
ATOM      7  C   UNL     1      -1.480   0.496  -2.204  0.00  0.00    +0.307 C 
ATOM      8  O   UNL     1      -0.402   1.003  -1.964  0.00  0.00    -0.252 OA
ATOM      9  N   UNL     1      -2.131   0.804  -3.344  0.00  0.00    -0.263 N 
ATOM     10  H   UNL     1      -2.955   0.346  -3.570  0.00  0.00    +0.157 HD
ENDROOT
BRANCH   9  11
ATOM     11  C   UNL     1      -1.623   1.774  -4.191  0.00  0.00    +0.087 A 
ATOM     12  C   UNL     1      -2.155   2.222  -5.395  0.00  0.00    +0.092 A 
ATOM     13  C   UNL     1      -1.412   3.255  -6.083  0.00  0.00    +0.024 A 
ATOM     14  C   UNL     1      -0.284   3.667  -5.479  0.00  0.00    +0.048 A 
ATOM     15  S   UNL     1      -0.226   2.683  -3.998  0.00  0.00    -0.081 S 
BRANCH  12  16
ATOM     16  C   UNL     1      -3.362   1.695  -5.919  0.00  0.00    +0.389 C 
ATOM     17  O   UNL     1      -3.802   2.114  -6.983  0.00  0.00    -0.241 OA
ATOM     18  O   UNL     1      -3.965   0.821  -5.309  0.00  0.00    -0.241 OA
ENDBRANCH  12  16
ENDBRANCH   9  11
BRANCH   1  20
ATOM     19  C   UNL     1       0.644  -0.263   1.370  0.00  0.00    +0.006 C 
ATOM     20  C   UNL     1      -0.011   0.017   0.015  0.00  0.00    +0.021 C 
ENDBRANCH   1  20
TORSDOF 3
