REMARK  Name = ZINC04645884
REMARK  9 active torsions:
REMARK  status: ('A' for Active; 'I' for Inactive)
REMARK    1  A    between atoms: C_1  and  C_2
REMARK    2  A    between atoms: C_7  and  N_8
REMARK    3  A    between atoms: N_8  and  C_9
REMARK    4  A    between atoms: C_9  and  C_10
REMARK    5  A    between atoms: C_9  and  C_11
REMARK    6  A    between atoms: C_9  and  C_12
REMARK    7  A    between atoms: N_16  and  C_17
REMARK    8  A    between atoms: C_18  and  C_24
REMARK    9  A    between atoms: C_22  and  C_23
REMARK                            x       y       z     vdW  Elec       q    Type
REMARK                         _______ _______ _______ _____ _____    ______ ____
ROOT
ATOM      1  C   UNL     1       3.882  -0.024   4.831  0.00  0.00    +0.179 A 
ATOM      2  N   UNL     1       5.044  -0.429   4.390  0.00  0.00    -0.111 NA
ATOM      3  N   UNL     1       5.982   0.338   4.814  0.00  0.00    -0.023 NA
ATOM      4  N   UNL     1       5.492   1.273   5.555  0.00  0.00    -0.039 NA
ATOM      5  N   UNL     1       4.101   1.070   5.592  0.00  0.00    -0.194 N 
ENDROOT
BRANCH   5   6
ATOM      6  C   UNL     1       3.147   1.839   6.274  0.00  0.00    +0.075 A 
ATOM      7  C   UNL     1       2.619   1.386   7.476  0.00  0.00    -0.025 A 
ATOM      8  C   UNL     1       1.682   2.148   8.147  0.00  0.00    +0.005 A 
ATOM      9  C   UNL     1       1.262   3.354   7.618  0.00  0.00    +0.001 A 
ATOM     10  C   UNL     1       1.783   3.805   6.419  0.00  0.00    +0.005 A 
ATOM     11  C   UNL     1       2.724   3.051   5.746  0.00  0.00    -0.025 A 
ATOM     12  C   UNL     1       3.290   3.542   4.439  0.00  0.00    +0.046 C 
ATOM     13  C   UNL     1       3.071   0.069   8.050  0.00  0.00    +0.046 C 
ENDBRANCH   5   6
BRANCH   1  14
ATOM     14  C   UNL     1       2.546  -0.661   4.547  0.00  0.00    +0.088 C 
ATOM     15  C   UNL     1       2.614  -1.416   3.218  0.00  0.00    +0.039 C 
ATOM     16  C   UNL     1       1.470   0.423   4.463  0.00  0.00    +0.039 C 
BRANCH  14  17
ATOM     17  N   UNL     1       2.213  -1.597   5.624  0.00  0.00    -0.332 N 
ATOM     18  H   UNL     1       2.789  -1.667   6.401  0.00  0.00    +0.147 HD
BRANCH  17  25
ATOM     19  C   UNL     1       1.757  -3.541   7.651  0.00  0.00    +0.045 C 
ATOM     20  C   UNL     1       0.804  -3.350   6.499  0.00  0.00    -0.030 A 
ATOM     21  C   UNL     1      -0.328  -4.136   6.401  0.00  0.00    +0.005 A 
ATOM     22  C   UNL     1      -1.205  -3.958   5.347  0.00  0.00    +0.000 A 
ATOM     23  C   UNL     1      -0.947  -3.002   4.382  0.00  0.00    +0.002 A 
ATOM     24  C   UNL     1       0.185  -2.217   4.471  0.00  0.00    +0.023 A 
ATOM     25  C   UNL     1       1.066  -2.389   5.531  0.00  0.00    +0.031 A 
ENDBRANCH  17  25
ENDBRANCH  14  17
ENDBRANCH   1  14
TORSDOF 4
