REMARK  Name = ZINC48891120
REMARK  6 active torsions:
REMARK  status: ('A' for Active; 'I' for Inactive)
REMARK    1  A    between atoms: C_1  and  C_2
REMARK    2  A    between atoms: C_2  and  C_3
REMARK    3  A    between atoms: C_2  and  C_4
REMARK    4  A    between atoms: C_2  and  C_5
REMARK    5  A    between atoms: C_11  and  N_13
REMARK    6  A    between atoms: C_14  and  C_16
REMARK                            x       y       z     vdW  Elec       q    Type
REMARK                         _______ _______ _______ _____ _____    ______ ____
ROOT
ATOM      1  C   UNL     1       0.643  -0.511  -1.073  0.00  0.00    +0.015 C 
ATOM      2  C   UNL     1       0.550  -2.037  -1.135  0.00  0.00    +0.006 C 
ATOM      3  C   UNL     1       0.927  -2.514  -2.539  0.00  0.00    +0.000 C 
ATOM      4  C   UNL     1       2.357  -2.077  -2.859  0.00  0.00    +0.002 C 
ATOM      5  C   UNL     1       2.450  -0.551  -2.797  0.00  0.00    +0.022 C 
ATOM      6  C   UNL     1       2.074  -0.074  -1.393  0.00  0.00    +0.077 C 
ENDROOT
BRANCH   1   8
ATOM      7  C   UNL     1       0.196   1.495   0.349  0.00  0.00    +0.011 C 
ATOM      8  C   UNL     1       0.266  -0.034   0.331  0.00  0.00    -0.033 C 
ATOM      9  C   UNL     1       1.323  -0.507   1.331  0.00  0.00    +0.011 C 
ATOM     10  C   UNL     1      -1.097  -0.611   0.718  0.00  0.00    +0.011 C 
ENDBRANCH   1   8
BRANCH   6  11
ATOM     11  N   UNL     1       2.163   1.387  -1.333  0.00  0.00    -0.307 N 
ATOM     12  C   UNL     1       3.323   1.978  -0.984  0.00  0.00    +0.265 C 
ATOM     13  O   UNL     1       4.295   1.299  -0.719  0.00  0.00    -0.268 OA
ATOM     14  H   UNL     1       1.387   1.930  -1.546  0.00  0.00    +0.149 HD
BRANCH  12  15
ATOM     15  C   UNL     1       3.412   3.452  -0.924  0.00  0.00    +0.154 A 
ATOM     16  C   UNL     1       4.581   4.119  -0.576  0.00  0.00    +0.155 A 
ATOM     17  N   UNL     1       4.493   5.425  -0.571  0.00  0.00    -0.198 NA
ATOM     18  S   UNL     1       2.968   5.735  -0.998  0.00  0.00    +0.116 S 
ATOM     19  N   UNL     1       2.389   4.242  -1.203  0.00  0.00    -0.186 NA
ENDBRANCH  12  15
ENDBRANCH   6  11
TORSDOF 3
