REMARK  Name = ZINC61566219
REMARK  8 active torsions:
REMARK  status: ('A' for Active; 'I' for Inactive)
REMARK    1  A    between atoms: C_1  and  C_2
REMARK    2  A    between atoms: C_4  and  O_21
REMARK    3  A    between atoms: C_7  and  N_8
REMARK    4  A    between atoms: N_8  and  C_9
REMARK    5  A    between atoms: C_9  and  C_11
REMARK    6  A    between atoms: C_9  and  C_12
REMARK    7  A    between atoms: C_15  and  N_18
REMARK    8  A    between atoms: O_21  and  C_22
REMARK                            x       y       z     vdW  Elec       q    Type
REMARK                         _______ _______ _______ _____ _____    ______ ____
ROOT
ATOM      1  N   UNL     1       0.025  -0.012   2.416  0.00  0.00    -0.337 N 
ATOM      2  H   UNL     1       0.012   0.958   2.422  0.00  0.00    +0.147 HD
ENDROOT
BRANCH   1   9
ATOM      3  C   UNL     1      -0.018   1.503   0.010  0.00  0.00    +0.046 C 
ATOM      4  C   UNL     1       0.002  -0.004   0.002  0.00  0.00    -0.026 A 
ATOM      5  C   UNL     1       0.006  -0.688  -1.198  0.00  0.00    +0.050 A 
ATOM      6  C   UNL     1       0.025  -2.075  -1.206  0.00  0.00    +0.120 A 
ATOM      7  C   UNL     1       0.040  -2.776  -0.009  0.00  0.00    +0.047 A 
ATOM      8  C   UNL     1       0.036  -2.094   1.192  0.00  0.00    +0.027 A 
ATOM      9  C   UNL     1       0.023  -0.705   1.200  0.00  0.00    +0.031 A 
BRANCH   6  10
ATOM     10  O   UNL     1       0.028  -2.748  -2.388  0.00  0.00    -0.495 OA
ATOM     11  C   UNL     1       0.047  -4.175  -2.321  0.00  0.00    +0.277 C 
ENDBRANCH   6  10
ENDBRANCH   1   9
BRANCH   1  12
ATOM     12  C   UNL     1       0.047  -0.752   3.681  0.00  0.00    +0.098 C 
ATOM     13  C   UNL     1      -1.381  -1.138   4.071  0.00  0.00    +0.033 C 
BRANCH  12  14
ATOM     14  C   UNL     1       0.646   0.114   4.759  0.00  0.00    -0.027 A 
ATOM     15  C   UNL     1       0.331   1.458   4.820  0.00  0.00    +0.007 A 
ATOM     16  C   UNL     1       0.880   2.252   5.809  0.00  0.00    +0.033 A 
ATOM     17  C   UNL     1       1.745   1.702   6.737  0.00  0.00    +0.126 A 
ATOM     18  C   UNL     1       2.059   0.357   6.677  0.00  0.00    +0.033 A 
ATOM     19  C   UNL     1       1.506  -0.438   5.690  0.00  0.00    +0.007 A 
BRANCH  17  20
ATOM     20  N   UNL     1       2.334   2.552   7.796  0.00  0.00    +0.056 N 
ATOM     21  O   UNL     1       2.059   3.728   7.849  0.00  0.00    -0.126 OA
ATOM     22  O   UNL     1       3.090   2.071   8.608  0.00  0.00    -0.126 OA
ENDBRANCH  17  20
ENDBRANCH  12  14
ENDBRANCH   1  12
TORSDOF 5
