REMARK  Name = ZINC40778774
REMARK  4 active torsions:
REMARK  status: ('A' for Active; 'I' for Inactive)
REMARK    1  A    between atoms: C_5  and  N_7
REMARK    2  A    between atoms: C_14  and  N_28
REMARK    3  A    between atoms: C_15  and  N_19
REMARK    4  A    between atoms: N_19  and  C_20
REMARK                            x       y       z     vdW  Elec       q    Type
REMARK                         _______ _______ _______ _____ _____    ______ ____
ROOT
ATOM      1  N   UNL     1       1.226  -2.081   0.070  0.00  0.00    -0.325 N 
ATOM      2  C   UNL     1       1.249  -2.855   1.319  0.00  0.00    +0.124 C 
ATOM      3  C   UNL     1       0.072  -3.838   1.309  0.00  0.00    +0.125 C 
ATOM      4  N   UNL     1       0.075  -4.559   0.028  0.00  0.00    -0.311 N 
ATOM      5  C   UNL     1       0.051  -3.785  -1.221  0.00  0.00    +0.125 C 
ATOM      6  C   UNL     1       1.222  -2.802  -1.210  0.00  0.00    +0.124 C 
ATOM      7  C   UNL     1       0.099  -5.949  -0.001  0.00  0.00    +0.147 A 
ATOM      8  C   UNL     1      -1.086  -6.681   0.098  0.00  0.00    +0.106 A 
ATOM      9  C   UNL     1      -1.004  -8.074   0.063  0.00  0.00    +0.149 A 
ATOM     10  N   UNL     1       0.191  -8.647  -0.064  0.00  0.00    -0.219 NA
ATOM     11  C   UNL     1       1.285  -7.919  -0.154  0.00  0.00    +0.225 A 
ATOM     12  N   UNL     1       1.251  -6.601  -0.130  0.00  0.00    -0.219 NA
ENDROOT
BRANCH   1  17
ATOM     13  C   UNL     1      -0.034   1.372   0.158  0.00  0.00    +0.002 A 
ATOM     14  C   UNL     1       1.152   2.085   0.158  0.00  0.00    +0.003 A 
ATOM     15  C   UNL     1       2.363   1.418   0.128  0.00  0.00    +0.040 A 
ATOM     16  C   UNL     1       2.392   0.036   0.099  0.00  0.00    +0.144 A 
ATOM     17  C   UNL     1       1.201  -0.683   0.100  0.00  0.00    +0.065 A 
ATOM     18  C   UNL     1      -0.012  -0.009   0.130  0.00  0.00    +0.026 A 
ATOM     19  F   UNL     1       3.575  -0.616   0.070  0.00  0.00    -0.204 F 
ENDBRANCH   1  17
BRANCH   8  20
ATOM     20  N   UNL     1      -2.325  -6.034   0.230  0.00  0.00    -0.353 N 
ATOM     21  H   UNL     1      -2.374  -5.066   0.181  0.00  0.00    +0.143 HD
ATOM     22  H   UNL     1      -3.131  -6.554   0.371  0.00  0.00    +0.143 HD
ENDBRANCH   8  20
BRANCH   9  23
ATOM     23  N   UNL     1      -2.154  -8.851   0.158  0.00  0.00    -0.297 N 
ATOM     24  H   UNL     1      -3.026  -8.427   0.163  0.00  0.00    +0.154 HD
BRANCH  23  25
ATOM     25  C   UNL     1      -2.051 -10.242   0.248  0.00  0.00    +0.052 A 
ATOM     26  C   UNL     1      -0.892 -10.824   0.746  0.00  0.00    +0.025 A 
ATOM     27  C   UNL     1      -0.794 -12.199   0.833  0.00  0.00    +0.003 A 
ATOM     28  C   UNL     1      -1.847 -12.998   0.425  0.00  0.00    +0.021 A 
ATOM     29  C   UNL     1      -3.003 -12.422  -0.071  0.00  0.00    +0.061 A 
ATOM     30  C   UNL     1      -3.111 -11.046  -0.156  0.00  0.00    +0.080 A 
ATOM     31 CL   UNL     1      -4.564 -10.324  -0.772  0.00  0.00    -0.080 Cl
ATOM     32 CL   UNL     1      -4.322 -13.429  -0.582  0.00  0.00    -0.082 Cl
ENDBRANCH  23  25
ENDBRANCH   9  23
TORSDOF 4
