REMARK  Name = ZINC57418615
REMARK  8 active torsions:
REMARK  status: ('A' for Active; 'I' for Inactive)
REMARK    1  A    between atoms: C_1  and  C_2
REMARK    2  A    between atoms: C_2  and  C_3
REMARK    3  A    between atoms: C_13  and  N_21
REMARK    4  A    between atoms: C_14  and  O_16
REMARK    5  A    between atoms: O_16  and  C_17
REMARK    6  A    between atoms: C_17  and  C_18
REMARK    7  A    between atoms: C_17  and  C_19
REMARK    8  A    between atoms: C_17  and  C_20
REMARK                            x       y       z     vdW  Elec       q    Type
REMARK                         _______ _______ _______ _____ _____    ______ ____
ROOT
ATOM      1  C   UNL     1      -2.658   0.388   0.056  0.00  0.00    +0.075 C 
ATOM      2  C   UNL     1      -2.122  -0.226   1.353  0.00  0.00    +0.022 C 
ATOM      3  C   UNL     1      -2.191  -1.752   1.256  0.00  0.00    +0.003 C 
ATOM      4  C   UNL     1      -1.314  -2.231   0.097  0.00  0.00    +0.019 C 
ATOM      5  C   UNL     1      -1.841  -1.639  -1.214  0.00  0.00    +0.107 C 
ATOM      6  N   UNL     1      -1.918  -0.178  -1.080  0.00  0.00    -0.312 N 
ATOM      7  C   UNL     1      -1.298   0.654  -2.009  0.00  0.00    +0.125 A 
ATOM      8  C   UNL     1       0.011   1.066  -1.796  0.00  0.00    +0.046 A 
ATOM      9  C   UNL     1       0.621   1.894  -2.725  0.00  0.00    +0.031 A 
ATOM     10  C   UNL     1      -0.106   2.284  -3.844  0.00  0.00    +0.087 A 
ATOM     11  C   UNL     1      -1.415   1.833  -3.994  0.00  0.00    +0.238 A 
ATOM     12  N   UNL     1      -1.963   1.039  -3.089  0.00  0.00    -0.196 NA
ENDROOT
BRANCH  10  13
ATOM     13  N   UNL     1       0.472   3.122  -4.810  0.00  0.00    -0.354 N 
ATOM     14  H   UNL     1       1.384   3.432  -4.699  0.00  0.00    +0.142 HD
ATOM     15  H   UNL     1      -0.040   3.390  -5.589  0.00  0.00    +0.142 HD
ENDBRANCH  10  13
BRANCH   1  17
ATOM     16  C   UNL     1      -3.341   2.508   1.189  0.00  0.00    +0.006 C 
ATOM     17  C   UNL     1      -2.465   1.906   0.089  0.00  0.00    +0.019 C 
ENDBRANCH   1  17
BRANCH  11  18
ATOM     18  O   UNL     1      -2.135   2.207  -5.083  0.00  0.00    -0.469 OA
BRANCH  18  19
ATOM     19  C   UNL     1      -3.471   1.711  -5.179  0.00  0.00    +0.104 C 
ATOM     20  C   UNL     1      -4.279   2.185  -3.970  0.00  0.00    +0.055 C 
ATOM     21  C   UNL     1      -4.119   2.236  -6.463  0.00  0.00    +0.055 C 
ATOM     22  C   UNL     1      -3.447   0.182  -5.209  0.00  0.00    +0.055 C 
ENDBRANCH  18  19
ENDBRANCH  11  18
TORSDOF 4
