REMARK  Name = ZINC16552117
REMARK  15 active torsions:
REMARK  status: ('A' for Active; 'I' for Inactive)
REMARK    1  A    between atoms: C_1  and  C_2
REMARK    2  A    between atoms: C_5  and  S_9
REMARK    3  A    between atoms: C_7  and  C_8
REMARK    4  A    between atoms: S_9  and  C_10
REMARK    5  A    between atoms: C_10  and  C_11
REMARK    6  A    between atoms: N_13  and  C_14
REMARK    7  A    between atoms: N_13  and  C_18
REMARK    8  A    between atoms: C_14  and  C_15
REMARK    9  A    between atoms: C_15  and  C_16
REMARK   10  A    between atoms: C_15  and  C_17
REMARK   11  A    between atoms: C_19  and  N_31
REMARK   12  A    between atoms: N_20  and  C_27
REMARK   13  A    between atoms: C_27  and  C_28
REMARK   14  A    between atoms: C_28  and  C_29
REMARK   15  A    between atoms: C_28  and  C_30
REMARK                            x       y       z     vdW  Elec       q    Type
REMARK                         _______ _______ _______ _____ _____    ______ ____
ROOT
ATOM      1  C   UNL     1      -5.530   3.140  -0.344  0.00  0.00    +0.230 C 
ATOM      2  O   UNL     1      -4.465   2.606  -0.578  0.00  0.00    -0.274 OA
ATOM      3  N   UNL     1      -6.517   2.442   0.255  0.00  0.00    -0.263 N 
ENDROOT
BRANCH   3   4
ATOM      4  C   UNL     1      -7.786   3.032   0.440  0.00  0.00    +0.140 A 
ATOM      5  C   UNL     1      -8.893   2.533  -0.214  0.00  0.00    +0.127 A 
ATOM      6  N   UNL     1     -10.117   3.129  -0.014  0.00  0.00    -0.280 N 
ATOM      7  C   UNL     1     -10.232   4.186   0.810  0.00  0.00    +0.331 A 
ATOM      8  O   UNL     1     -11.322   4.700   0.974  0.00  0.00    -0.246 OA
ATOM      9  N   UNL     1      -9.163   4.686   1.456  0.00  0.00    -0.273 N 
ATOM     10  H   UNL     1      -9.275   5.476   2.059  0.00  0.00    +0.173 HD
ATOM     11  C   UNL     1      -7.944   4.135   1.299  0.00  0.00    +0.277 A 
ATOM     12  O   UNL     1      -6.982   4.593   1.893  0.00  0.00    -0.266 OA
BRANCH   5  13
ATOM     13  N   UNL     1      -8.776   1.453  -1.056  0.00  0.00    -0.343 N 
ATOM     14  H   UNL     1      -7.923   1.001  -1.150  0.00  0.00    +0.144 HD
ATOM     15  H   UNL     1      -9.547   1.143  -1.557  0.00  0.00    +0.144 HD
ENDBRANCH   5  13
BRANCH   6  16
ATOM     16  C   UNL     1     -11.302   2.609  -0.702  0.00  0.00    +0.131 C 
BRANCH  16  17
ATOM     17  C   UNL     1     -11.966   1.539   0.166  0.00  0.00    +0.003 C 
ATOM     18  C   UNL     1     -12.493   2.179   1.452  0.00  0.00    +0.009 C 
ATOM     19  C   UNL     1     -13.129   0.909  -0.603  0.00  0.00    +0.009 C 
ENDBRANCH  16  17
ENDBRANCH   6  16
ENDBRANCH   3   4
BRANCH   1  20
ATOM     20  C   UNL     1      -5.749   4.582  -0.723  0.00  0.00    +0.170 C 
BRANCH  20  21
ATOM     21  S   UNL     1      -4.222   5.259  -1.431  0.00  0.00    -0.116 S 
BRANCH  21  26
ATOM     22  C   UNL     1      -5.638  10.976  -2.753  0.00  0.00    +0.044 C 
ATOM     23  C   UNL     1      -5.285   9.549  -2.423  0.00  0.00    -0.047 A 
ATOM     24  C   UNL     1      -6.233   8.717  -1.855  0.00  0.00    +0.005 A 
ATOM     25  C   UNL     1      -5.911   7.410  -1.547  0.00  0.00    +0.015 A 
ATOM     26  C   UNL     1      -4.636   6.928  -1.817  0.00  0.00    +0.009 A 
ATOM     27  C   UNL     1      -3.686   7.767  -2.388  0.00  0.00    +0.018 A 
ATOM     28  C   UNL     1      -4.013   9.074  -2.689  0.00  0.00    -0.046 A 
ATOM     29  C   UNL     1      -2.984   9.984  -3.308  0.00  0.00    +0.044 C 
ENDBRANCH  21  26
ENDBRANCH  20  21
ENDBRANCH   1  20
BRANCH   3  30
ATOM     30  C   UNL     1      -6.272   1.072   0.713  0.00  0.00    +0.117 C 
BRANCH  30  31
ATOM     31  C   UNL     1      -5.895   1.090   2.196  0.00  0.00    +0.001 C 
ATOM     32  C   UNL     1      -5.746  -0.346   2.702  0.00  0.00    +0.009 C 
ATOM     33  C   UNL     1      -4.570   1.834   2.376  0.00  0.00    +0.009 C 
ENDBRANCH  30  31
ENDBRANCH   3  30
TORSDOF 9
