REMARK  Name = ZINC21584301
REMARK  8 active torsions:
REMARK  status: ('A' for Active; 'I' for Inactive)
REMARK    1  A    between atoms: C_1  and  C_2
REMARK    2  A    between atoms: C_2  and  C_3
REMARK    3  A    between atoms: C_2  and  C_4
REMARK    4  A    between atoms: C_4  and  C_6
REMARK    5  A    between atoms: C_4  and  N_18
REMARK    6  A    between atoms: C_9  and  C_12
REMARK    7  A    between atoms: N_18  and  C_19
REMARK    8  A    between atoms: C_19  and  C_20
REMARK                            x       y       z     vdW  Elec       q    Type
REMARK                         _______ _______ _______ _____ _____    ______ ____
ROOT
ATOM      1  C   UNL     1      -6.167   5.457   1.314  0.00  0.00    -0.038 C 
ENDROOT
BRANCH   1   2
ATOM      2  C   UNL     1      -6.066   6.805   1.980  0.00  0.00    -0.061 A 
ATOM      3  C   UNL     1      -5.481   6.917   3.227  0.00  0.00    +0.002 A 
ATOM      4  C   UNL     1      -5.385   8.154   3.837  0.00  0.00    +0.004 A 
ATOM      5  C   UNL     1      -5.883   9.277   3.203  0.00  0.00    -0.044 A 
ATOM      6  C   UNL     1      -6.473   9.164   1.958  0.00  0.00    +0.004 A 
ATOM      7  C   UNL     1      -6.565   7.928   1.347  0.00  0.00    +0.002 A 
BRANCH   5   8
ATOM      8  C   UNL     1      -5.783  10.625   3.870  0.00  0.00    +0.019 C 
ATOM      9  C   UNL     1      -4.312  10.963   4.119  0.00  0.00    +0.008 C 
ATOM     10  C   UNL     1      -4.210  12.332   4.795  0.00  0.00    +0.001 C 
ATOM     11  C   UNL     1      -4.958  12.297   6.130  0.00  0.00    +0.000 C 
ATOM     12  C   UNL     1      -6.430  11.960   5.881  0.00  0.00    +0.001 C 
ATOM     13  C   UNL     1      -6.532  10.591   5.204  0.00  0.00    +0.008 C 
ENDBRANCH   5   8
ENDBRANCH   1   2
BRANCH   1  15
ATOM     14  C   UNL     1      -7.128   4.481   3.403  0.00  0.00    +0.006 C 
ATOM     15  C   UNL     1      -7.348   4.683   1.903  0.00  0.00    -0.027 C 
ATOM     16  C   UNL     1      -8.638   5.474   1.678  0.00  0.00    +0.006 C 
ENDBRANCH   1  15
BRANCH   1  17
ATOM     17  N   UNL     1      -4.926   4.704   1.542  0.00  0.00    +0.387 N 
ATOM     18  H   UNL     1      -4.072   5.398   1.552  0.00  0.00    -0.084 HD
ATOM     19  H   UNL     1      -4.986   4.183   2.509  0.00  0.00    -0.084 HD
BRANCH  17  20
ATOM     20  C   UNL     1      -4.711   3.709   0.483  0.00  0.00    -0.025 C 
BRANCH  20  21
ATOM     21  C   UNL     1      -3.381   3.033   0.691  0.00  0.00    +0.032 A 
ATOM     22  C   UNL     1      -3.330   1.685   0.987  0.00  0.00    +0.092 A 
ATOM     23  C   UNL     1      -2.083   1.079   1.175  0.00  0.00    +0.259 A 
ATOM     24  O   UNL     1      -2.004  -0.111   1.438  0.00  0.00    -0.267 OA
ATOM     25  N   UNL     1      -0.967   1.830   1.057  0.00  0.00    -0.267 N 
ATOM     26  C   UNL     1       0.255   1.256   1.243  0.00  0.00    +0.116 A 
ATOM     27  C   UNL     1       1.387   1.989   1.135  0.00  0.00    +0.058 A 
ATOM     28  C   UNL     1       1.313   3.357   0.833  0.00  0.00    +0.025 A 
ATOM     29  C   UNL     1       0.096   3.941   0.651  0.00  0.00    +0.048 A 
ATOM     30  C   UNL     1      -1.070   3.162   0.768  0.00  0.00    +0.140 A 
ATOM     31  N   UNL     1      -2.261   3.732   0.590  0.00  0.00    -0.236 NA
ATOM     32 CL   UNL     1       2.933   1.236   1.369  0.00  0.00    -0.082 Cl
ENDBRANCH  20  21
ENDBRANCH  17  20
ENDBRANCH   1  17
TORSDOF 6
