REMARK  Name = ZINC26949706
REMARK  11 active torsions:
REMARK  status: ('A' for Active; 'I' for Inactive)
REMARK    1  A    between atoms: C_1  and  C_2
REMARK    2  A    between atoms: C_5  and  S_8
REMARK    3  A    between atoms: S_8  and  N_11
REMARK    4  A    between atoms: N_11  and  N_12
REMARK    5  A    between atoms: N_12  and  C_13
REMARK    6  A    between atoms: C_13  and  S_15
REMARK    7  A    between atoms: S_15  and  C_16
REMARK    8  A    between atoms: C_16  and  C_17
REMARK    9  A    between atoms: N_19  and  C_20
REMARK   10  A    between atoms: C_20  and  C_22
REMARK   11  A    between atoms: C_20  and  O_26
REMARK                            x       y       z     vdW  Elec       q    Type
REMARK                         _______ _______ _______ _____ _____    ______ ____
ROOT
ATOM      1  C   UNL     1       6.453   0.876   0.829  0.00  0.00    +0.122 C 
ATOM      2  S   UNL     1       6.489   2.500   0.289  0.00  0.00    -0.027 S 
ENDROOT
BRANCH   1   3
ATOM      3  N   UNL     1       7.598   0.253   1.171  0.00  0.00    -0.250 N 
ATOM      4  H   UNL     1       8.557   0.789   1.102  0.00  0.00    +0.169 HD
BRANCH   3   5
ATOM      5  N   UNL     1       7.569  -1.076   1.612  0.00  0.00    -0.109 NA
ATOM      6  H   UNL     1       7.004  -1.326   2.361  0.00  0.00    +0.172 HD
BRANCH   5   7
ATOM      7  S   UNL     1       8.497  -2.221   0.857  0.00  0.00    +0.074 S 
ATOM      8  O   UNL     1       8.362  -3.416   1.614  0.00  0.00    -0.152 OA
ATOM      9  O   UNL     1       8.178  -2.155  -0.526  0.00  0.00    -0.152 OA
BRANCH   7  14
ATOM     10  C   UNL     1      14.251  -0.485   1.385  0.00  0.00    +0.044 C 
ATOM     11  C   UNL     1      12.814  -0.919   1.253  0.00  0.00    -0.050 A 
ATOM     12  C   UNL     1      12.243  -1.723   2.222  0.00  0.00    +0.005 A 
ATOM     13  C   UNL     1      10.925  -2.121   2.100  0.00  0.00    +0.029 A 
ATOM     14  C   UNL     1      10.177  -1.714   1.012  0.00  0.00    +0.107 A 
ATOM     15  C   UNL     1      10.749  -0.913   0.041  0.00  0.00    +0.029 A 
ATOM     16  C   UNL     1      12.066  -0.511   0.164  0.00  0.00    +0.005 A 
ENDBRANCH   7  14
ENDBRANCH   5   7
ENDBRANCH   3   5
ENDBRANCH   1   3
BRANCH   1  17
ATOM     17  S   UNL     1       4.918   0.018   0.938  0.00  0.00    -0.092 S 
BRANCH  17  18
ATOM     18  C   UNL     1       3.791   1.317   0.372  0.00  0.00    +0.172 C 
BRANCH  18  19
ATOM     19  C   UNL     1       2.377   0.795   0.383  0.00  0.00    +0.225 C 
ATOM     20  O   UNL     1       2.153  -0.343   0.738  0.00  0.00    -0.275 OA
ATOM     21  N   UNL     1       1.362   1.593  -0.002  0.00  0.00    -0.286 N 
ATOM     22  H   UNL     1       1.565   2.625  -0.325  0.00  0.00    +0.151 HD
BRANCH  21  23
ATOM     23  C   UNL     1      -0.013   1.086   0.008  0.00  0.00    +0.253 C 
BRANCH  23  24
ATOM     24  C   UNL     1      -0.753   1.593  -1.232  0.00  0.00    +0.232 C 
ATOM     25 CL   UNL     1      -0.777   3.396  -1.222  0.00  0.00    -0.079 Cl
ATOM     26 CL   UNL     1       0.091   1.011  -2.715  0.00  0.00    -0.079 Cl
ATOM     27 CL   UNL     1      -2.444   0.969  -1.219  0.00  0.00    -0.079 Cl
ENDBRANCH  23  24
BRANCH  23  28
ATOM     28  O   UNL     1      -0.682   1.547   1.184  0.00  0.00    -0.370 OA
ATOM     29  H   UNL     1      -1.729   1.266   1.366  0.00  0.00    +0.212 HD
ENDBRANCH  23  28
ENDBRANCH  21  23
ENDBRANCH  18  19
ENDBRANCH  17  18
ENDBRANCH   1  17
TORSDOF 10
