REMARK  Name = ZINC20911697
REMARK  16 active torsions:
REMARK  status: ('A' for Active; 'I' for Inactive)
REMARK    1  A    between atoms: C_1  and  C_2
REMARK    2  A    between atoms: C_3  and  C_11
REMARK    3  A    between atoms: C_4  and  C_10
REMARK    4  A    between atoms: N_5  and  C_7
REMARK    5  A    between atoms: C_7  and  C_8
REMARK    6  A    between atoms: C_7  and  C_9
REMARK    7  A    between atoms: N_12  and  N_13
REMARK    8  A    between atoms: C_17  and  S_20
REMARK    9  A    between atoms: N_18  and  N_19
REMARK   10  A    between atoms: S_20  and  C_21
REMARK   11  A    between atoms: C_21  and  C_22
REMARK   12  A    between atoms: N_24  and  C_25
REMARK   13  A    between atoms: C_28  and  C_31
REMARK   14  A    between atoms: C_31  and  C_32
REMARK   15  A    between atoms: C_31  and  C_33
REMARK   16  A    between atoms: C_31  and  C_34
REMARK                            x       y       z     vdW  Elec       q    Type
REMARK                         _______ _______ _______ _____ _____    ______ ____
ROOT
ATOM      1  N   UNL     1       5.206  -9.890  -0.862  0.00  0.00    -0.204 N 
ATOM      2  C   UNL     1       4.490  -8.709  -0.729  0.00  0.00    +0.254 A 
ATOM      3  N   UNL     1       3.186  -8.604  -0.649  0.00  0.00    -0.109 NA
ATOM      4  N   UNL     1       2.869  -7.245  -0.518  0.00  0.00    -0.119 NA
ATOM      5  C   UNL     1       3.989  -6.564  -0.530  0.00  0.00    +0.210 A 
ATOM      6  N   UNL     1       5.021  -7.451  -0.657  0.00  0.00    -0.211 N 
ATOM      7  H   UNL     1       6.304  -9.864  -0.919  0.00  0.00    +0.177 HD
ENDROOT
BRANCH   6   8
ATOM      8  N   UNL     1       6.349  -7.136  -0.705  0.00  0.00    -0.294 N 
ATOM      9  H   UNL     1       6.668  -6.086  -0.639  0.00  0.00    +0.163 HD
ATOM     10  H   UNL     1       7.100  -7.933  -0.810  0.00  0.00    +0.163 HD
ENDBRANCH   6   8
BRANCH   1  12
ATOM     11  C   UNL     1       5.200 -12.220  -1.047  0.00  0.00    +0.141 C 
ATOM     12  N   UNL     1       4.530 -11.116  -0.923  0.00  0.00    -0.187 NA
BRANCH  11  15
ATOM     13  C   UNL     1       2.057 -12.614  -0.907  0.00  0.00    +0.068 C 
ATOM     14  C   UNL     1       3.091 -13.701  -1.051  0.00  0.00    +0.069 A 
ATOM     15  C   UNL     1       4.488 -13.512  -1.112  0.00  0.00    +0.038 A 
ATOM     16  C   UNL     1       5.064 -14.756  -1.248  0.00  0.00    +0.045 A 
ATOM     17  N   UNL     1       4.066 -15.663  -1.261  0.00  0.00    -0.265 N 
ATOM     18  N   UNL     1       2.850 -14.981  -1.141  0.00  0.00    -0.175 NA
ATOM     19  C   UNL     1       6.538 -15.050  -1.358  0.00  0.00    +0.066 C 
BRANCH  17  20
ATOM     20  C   UNL     1       4.227 -17.114  -1.385  0.00  0.00    +0.101 C 
ATOM     21  C   UNL     1       3.635 -17.800  -0.153  0.00  0.00    +0.032 C 
ATOM     22  C   UNL     1       3.501 -17.602  -2.640  0.00  0.00    +0.032 C 
ENDBRANCH  17  20
ENDBRANCH  11  15
ENDBRANCH   1  12
BRANCH   5  23
ATOM     23  S   UNL     1       4.139  -4.814  -0.398  0.00  0.00    -0.075 S 
BRANCH  23  24
ATOM     24  C   UNL     1       2.425  -4.236  -0.258  0.00  0.00    +0.173 C 
BRANCH  24  25
ATOM     25  C   UNL     1       2.410  -2.734  -0.137  0.00  0.00    +0.227 C 
ATOM     26  O   UNL     1       3.452  -2.114  -0.144  0.00  0.00    -0.275 OA
ATOM     27  N   UNL     1       1.237  -2.079  -0.020  0.00  0.00    -0.285 N 
ATOM     28  H   UNL     1       0.298  -2.645   0.073  0.00  0.00    +0.155 HD
BRANCH  27  29
ATOM     29  C   UNL     1       1.214  -0.680  -0.019  0.00  0.00    +0.033 A 
ATOM     30  C   UNL     1       2.137   0.031  -0.774  0.00  0.00    +0.023 A 
ATOM     31  C   UNL     1       2.111   1.412  -0.771  0.00  0.00    +0.006 A 
ATOM     32  C   UNL     1       1.168   2.086  -0.017  0.00  0.00    -0.042 A 
ATOM     33  C   UNL     1       0.248   1.380   0.736  0.00  0.00    +0.006 A 
ATOM     34  C   UNL     1       0.268  -0.001   0.737  0.00  0.00    +0.023 A 
BRANCH  32  35
ATOM     35  C   UNL     1       1.143   3.593  -0.015  0.00  0.00    -0.013 C 
ATOM     36  C   UNL     1       0.910   4.100  -1.440  0.00  0.00    +0.015 C 
ATOM     37  C   UNL     1       0.013   4.083   0.892  0.00  0.00    +0.015 C 
ATOM     38  C   UNL     1       2.481   4.125   0.503  0.00  0.00    +0.015 C 
ENDBRANCH  32  35
ENDBRANCH  27  29
ENDBRANCH  24  25
ENDBRANCH  23  24
ENDBRANCH   5  23
TORSDOF 9
