REMARK  Name = ZINC39022046
REMARK  5 active torsions:
REMARK  status: ('A' for Active; 'I' for Inactive)
REMARK    1  A    between atoms: C_1  and  C_2
REMARK    2  A    between atoms: C_4  and  C_27
REMARK    3  A    between atoms: C_10  and  C_13
REMARK    4  A    between atoms: C_13  and  C_14
REMARK    5  A    between atoms: C_14  and  N_16
REMARK                            x       y       z     vdW  Elec       q    Type
REMARK                         _______ _______ _______ _____ _____    ______ ____
ROOT
ATOM      1  C   UNL     1      -1.216  -1.882   4.326  0.00  0.00    +0.134 C 
ENDROOT
BRANCH   1  10
ATOM      2  C   UNL     1       0.021   1.550   0.048  0.00  0.00    +0.062 C 
ATOM      3  C   UNL     1       0.044   0.044   0.029  0.00  0.00    +0.024 C 
ATOM      4  C   UNL     1       0.058  -0.676  -1.126  0.00  0.00    +0.042 C 
ATOM      5  C   UNL     1       0.091  -2.086  -1.070  0.00  0.00    +0.038 C 
ATOM      6  N   UNL     1       0.376  -2.748   0.011  0.00  0.00    -0.250 NA
ATOM      7  C   UNL     1       0.717  -2.030   1.241  0.00  0.00    +0.280 C 
ATOM      8  N   UNL     1       0.058  -0.712   1.175  0.00  0.00    -0.233 N 
ATOM      9  N   UNL     1      -0.552  -0.492   2.374  0.00  0.00    -0.220 NA
ATOM     10  C   UNL     1      -0.986  -1.849   2.813  0.00  0.00    +0.151 C 
ATOM     11  N   UNL     1       0.180  -2.714   2.435  0.00  0.00    -0.262 NA
ATOM     12  C   UNL     1      -0.218  -2.861  -2.325  0.00  0.00    +0.065 C 
ATOM     13  H   UNL     1       0.090  -0.085   3.038  0.00  0.00    +0.146 HD
ATOM     14  H   UNL     1      -0.107  -3.656   2.214  0.00  0.00    +0.127 HD
ENDBRANCH   1  10
BRANCH   1  15
ATOM     15  C   UNL     1      -2.392  -1.006   4.674  0.00  0.00    +0.241 C 
ATOM     16  O   UNL     1      -2.989  -0.412   3.797  0.00  0.00    -0.274 OA
BRANCH  15  17
ATOM     17  N   UNL     1      -2.776  -0.883   5.940  0.00  0.00    -0.156 NA
ATOM     18  C   UNL     1      -3.746  -0.029   6.261  0.00  0.00    +0.164 A 
ATOM     19  N   UNL     1      -4.521   0.704   5.422  0.00  0.00    -0.335 N 
ATOM     20  H   UNL     1      -4.396   0.637   4.463  0.00  0.00    +0.168 HD
ATOM     21  C   UNL     1      -5.489   1.544   5.939  0.00  0.00    +0.055 A 
ATOM     22  C   UNL     1      -6.388   2.381   5.263  0.00  0.00    +0.027 A 
ATOM     23  C   UNL     1      -7.287   3.153   5.961  0.00  0.00    +0.002 A 
ATOM     24  C   UNL     1      -7.331   3.127   7.345  0.00  0.00    +0.001 A 
ATOM     25  C   UNL     1      -6.455   2.310   8.036  0.00  0.00    +0.017 A 
ATOM     26  C   UNL     1      -5.555   1.538   7.340  0.00  0.00    +0.039 A 
ATOM     27  S   UNL     1      -4.294   0.378   7.797  0.00  0.00    -0.052 S 
ENDBRANCH  15  17
ENDBRANCH   1  15
TORSDOF 3
