REMARK  Name = ZINC64983378
REMARK  8 active torsions:
REMARK  status: ('A' for Active; 'I' for Inactive)
REMARK    1  A    between atoms: C_1  and  C_2
REMARK    2  A    between atoms: C_5  and  C_25
REMARK    3  A    between atoms: C_6  and  O_8
REMARK    4  A    between atoms: O_8  and  C_9
REMARK    5  A    between atoms: C_9  and  C_11
REMARK    6  A    between atoms: C_9  and  C_12
REMARK    7  A    between atoms: N_14  and  C_15
REMARK    8  A    between atoms: C_18  and  N_22
REMARK                            x       y       z     vdW  Elec       q    Type
REMARK                         _______ _______ _______ _____ _____    ______ ____
ROOT
ATOM      1  C   UNL     1      -0.435  -2.786   4.707  0.00  0.00    +0.258 C 
ATOM      2  O   UNL     1      -0.828  -3.920   4.532  0.00  0.00    -0.271 OA
ATOM      3  N   UNL     1      -0.541  -2.216   5.923  0.00  0.00    -0.282 N 
ATOM      4  H   UNL     1      -0.303  -1.284   6.045  0.00  0.00    +0.155 HD
ENDROOT
BRANCH   3   5
ATOM      5  C   UNL     1      -0.996  -2.970   7.012  0.00  0.00    +0.048 A 
ATOM      6  C   UNL     1      -0.852  -4.351   7.010  0.00  0.00    +0.026 A 
ATOM      7  C   UNL     1      -1.302  -5.092   8.085  0.00  0.00    +0.034 A 
ATOM      8  C   UNL     1      -1.895  -4.460   9.163  0.00  0.00    +0.127 A 
ATOM      9  C   UNL     1      -2.039  -3.086   9.169  0.00  0.00    +0.049 A 
ATOM     10  C   UNL     1      -1.586  -2.337   8.099  0.00  0.00    +0.041 A 
ATOM     11 BR   UNL     1      -1.777  -0.456   8.110  0.00  0.00    -0.048 Br
BRANCH   8  12
ATOM     12  N   UNL     1      -2.376  -5.258  10.313  0.00  0.00    +0.056 N 
ATOM     13  O   UNL     1      -2.251  -6.461  10.310  0.00  0.00    -0.126 OA
ATOM     14  O   UNL     1      -2.895  -4.708  11.256  0.00  0.00    -0.126 OA
ENDBRANCH   8  12
ENDBRANCH   3   5
BRANCH   1  15
ATOM     15  C   UNL     1       0.173  -2.014   3.564  0.00  0.00    +0.256 C 
ATOM     16  C   UNL     1       1.647  -1.734   3.864  0.00  0.00    +0.062 C 
BRANCH  15  17
ATOM     17  O   UNL     1       0.069  -2.781   2.363  0.00  0.00    -0.480 OA
BRANCH  17  23
ATOM     18  C   UNL     1       0.068   1.496   0.011  0.00  0.00    +0.044 C 
ATOM     19  C   UNL     1       0.073  -0.011   0.004  0.00  0.00    -0.047 A 
ATOM     20  C   UNL     1       0.082  -0.696  -1.197  0.00  0.00    +0.004 A 
ATOM     21  C   UNL     1       0.087  -2.078  -1.207  0.00  0.00    +0.007 A 
ATOM     22  C   UNL     1       0.082  -2.779  -0.016  0.00  0.00    -0.009 A 
ATOM     23  C   UNL     1       0.073  -2.094   1.190  0.00  0.00    +0.125 A 
ATOM     24  C   UNL     1       0.075  -0.706   1.197  0.00  0.00    +0.049 A 
ATOM     25  C   UNL     1       0.086  -4.286  -0.028  0.00  0.00    +0.047 C 
ENDBRANCH  17  23
ENDBRANCH  15  17
ENDBRANCH   1  15
TORSDOF 5
