REMARK  Name = ZINC02922295
REMARK  4 active torsions:
REMARK  status: ('A' for Active; 'I' for Inactive)
REMARK    1  A    between atoms: C_4  and  C_10
REMARK    2  A    between atoms: C_6  and  N_7
REMARK    3  A    between atoms: N_12  and  C_13
REMARK    4  A    between atoms: C_14  and  C_24
REMARK                            x       y       z     vdW  Elec       q    Type
REMARK                         _______ _______ _______ _____ _____    ______ ____
ROOT
ATOM      1  C   UNL     1      -0.017   1.381   0.010  0.00  0.00    +0.085 A 
ATOM      2  C   UNL     1       1.053   2.257   0.004  0.00  0.00    +0.068 A 
ATOM      3  C   UNL     1       0.774   3.697   0.002  0.00  0.00    -0.023 A 
ATOM      4  C   UNL     1      -0.536   3.998   0.053  0.00  0.00    -0.004 A 
ATOM      5  S   UNL     1      -1.385   2.441   0.021  0.00  0.00    -0.077 S 
ATOM      6  C   UNL     1      -1.182   5.353   0.140  0.00  0.00    +0.043 C 
ATOM      7  C   UNL     1      -1.083   5.808   1.607  0.00  0.00    +0.005 C 
ATOM      8  C   UNL     1       0.388   5.728   2.034  0.00  0.00    +0.000 C 
ATOM      9  C   UNL     1       1.123   6.697   1.132  0.00  0.00    +0.000 C 
ATOM     10  C   UNL     1       1.489   6.120  -0.223  0.00  0.00    +0.005 C 
ATOM     11  C   UNL     1       1.946   4.670  -0.129  0.00  0.00    +0.037 C 
ENDROOT
BRANCH   2  12
ATOM     12  C   UNL     1       2.431   1.758   0.001  0.00  0.00    +0.244 C 
ATOM     13  O   UNL     1       3.000   1.549  -1.055  0.00  0.00    -0.270 OA
ATOM     14  N   UNL     1       3.069   1.532   1.166  0.00  0.00    -0.325 N 
ATOM     15  H   UNL     1       2.616   1.699   2.007  0.00  0.00    +0.145 HD
ATOM     16  H   UNL     1       3.982   1.203   1.164  0.00  0.00    +0.145 HD
ENDBRANCH   2  12
BRANCH   1  19
ATOM     17  C   UNL     1      -1.156  -0.694   0.009  0.00  0.00    +0.250 C 
ATOM     18  O   UNL     1      -2.217  -0.100   0.023  0.00  0.00    -0.270 OA
ATOM     19  N   UNL     1       0.002  -0.004   0.002  0.00  0.00    -0.275 N 
ATOM     20  H   UNL     1       0.849  -0.478  -0.009  0.00  0.00    +0.156 HD
BRANCH  17  24
ATOM     21  C   UNL     1      -1.098  -4.941  -0.014  0.00  0.00    +0.034 A 
ATOM     22  C   UNL     1      -2.308  -4.270   0.002  0.00  0.00    +0.023 A 
ATOM     23  C   UNL     1      -2.334  -2.889   0.015  0.00  0.00    +0.053 A 
ATOM     24  C   UNL     1      -1.136  -2.171   0.001  0.00  0.00    +0.057 A 
ATOM     25  C   UNL     1       0.081  -2.856  -0.014  0.00  0.00    +0.047 A 
ATOM     26  C   UNL     1       0.092  -4.235  -0.022  0.00  0.00    +0.127 A 
ATOM     27 CL   UNL     1      -3.853  -2.049   0.041  0.00  0.00    -0.083 Cl
BRANCH  26  28
ATOM     28  N   UNL     1       1.381  -4.962  -0.038  0.00  0.00    +0.056 N 
ATOM     29  O   UNL     1       2.430  -4.342  -0.044  0.00  0.00    -0.126 OA
ATOM     30  O   UNL     1       1.394  -6.180  -0.044  0.00  0.00    -0.126 OA
ENDBRANCH  26  28
ENDBRANCH  17  24
ENDBRANCH   1  19
TORSDOF 4
