REMARK  Name = ZINC19639895
REMARK  9 active torsions:
REMARK  status: ('A' for Active; 'I' for Inactive)
REMARK    1  A    between atoms: C_4  and  O_8
REMARK    2  A    between atoms: O_8  and  C_9
REMARK    3  A    between atoms: C_9  and  C_10
REMARK    4  A    between atoms: C_13  and  C_15
REMARK    5  A    between atoms: N_17  and  N_18
REMARK    6  A    between atoms: N_18  and  C_19
REMARK    7  A    between atoms: C_19  and  N_21
REMARK    8  A    between atoms: N_21  and  C_22
REMARK    9  A    between atoms: C_22  and  C_23
REMARK                            x       y       z     vdW  Elec       q    Type
REMARK                         _______ _______ _______ _____ _____    ______ ____
ROOT
ATOM      1  C   UNL     1       2.477   1.487  -0.014  0.00  0.00    +0.295 C 
ATOM      2  O   UNL     1       2.760   0.303  -0.023  0.00  0.00    -0.265 OA
ATOM      3  N   UNL     1       3.456   2.413  -0.018  0.00  0.00    -0.229 N 
ATOM      4  H   UNL     1       3.201   3.483  -0.010  0.00  0.00    +0.173 HD
ENDROOT
BRANCH   1   8
ATOM      5  C   UNL     1      -0.716   3.178   0.026  0.00  0.00    +0.143 A 
ATOM      6  C   UNL     1      -1.150   1.898   0.017  0.00  0.00    +0.049 A 
ATOM      7  C   UNL     1      -0.013   1.076   0.008  0.00  0.00    +0.055 A 
ATOM      8  C   UNL     1       1.072   1.906   0.002  0.00  0.00    +0.191 A 
ATOM      9  O   UNL     1       0.624   3.178   0.013  0.00  0.00    -0.452 OA
BRANCH   5  10
ATOM     10  C   UNL     1      -1.593   4.403   0.040  0.00  0.00    +0.303 C 
BRANCH  10  11
ATOM     11  O   UNL     1      -1.859   4.783   1.392  0.00  0.00    -0.483 OA
BRANCH  11  15
ATOM     12  C   UNL     1      -4.237   8.105   1.972  0.00  0.00    +0.021 A 
ATOM     13  C   UNL     1      -3.737   7.416   3.062  0.00  0.00    +0.025 A 
ATOM     14  C   UNL     1      -2.945   6.300   2.870  0.00  0.00    +0.083 A 
ATOM     15  C   UNL     1      -2.642   5.877   1.583  0.00  0.00    +0.141 A 
ATOM     16  C   UNL     1      -3.144   6.570   0.492  0.00  0.00    +0.067 A 
ATOM     17  C   UNL     1      -3.941   7.683   0.689  0.00  0.00    +0.045 A 
ATOM     18 CL   UNL     1      -4.571   8.551  -0.677  0.00  0.00    -0.083 Cl
ATOM     19 CL   UNL     1      -2.323   5.431   4.238  0.00  0.00    -0.080 Cl
ENDBRANCH  11  15
ENDBRANCH  10  11
ENDBRANCH   5  10
ENDBRANCH   1   8
BRANCH   3  20
ATOM     20  N   UNL     1       4.799   2.013  -0.033  0.00  0.00    -0.246 N 
ATOM     21  H   UNL     1       5.054   0.943  -0.041  0.00  0.00    +0.172 HD
BRANCH  20  22
ATOM     22  C   UNL     1       5.778   2.940  -0.037  0.00  0.00    +0.147 C 
ATOM     23  S   UNL     1       7.419   2.451  -0.056  0.00  0.00    -0.017 S 
BRANCH  22  24
ATOM     24  N   UNL     1       5.465   4.250  -0.027  0.00  0.00    -0.323 N 
ATOM     25  H   UNL     1       4.411   4.564  -0.015  0.00  0.00    +0.148 HD
BRANCH  24  26
ATOM     26  C   UNL     1       6.530   5.257  -0.032  0.00  0.00    +0.134 C 
BRANCH  26  27
ATOM     27  C   UNL     1       5.909   6.656  -0.019  0.00  0.00    +0.135 C 
ATOM     28  C   UNL     1       7.021   7.723  -0.024  0.00  0.00    +0.035 C 
ATOM     29  C   UNL     1       6.740   8.557  -1.297  0.00  0.00    +0.031 C 
ATOM     30  C   UNL     1       5.246   8.245  -1.567  0.00  0.00    +0.160 C 
ATOM     31  O   UNL     1       5.122   6.853  -1.206  0.00  0.00    -0.375 OA
ENDBRANCH  26  27
ENDBRANCH  24  26
ENDBRANCH  22  24
ENDBRANCH  20  22
ENDBRANCH   3  20
TORSDOF 9
