REMARK  Name = ZINC63586822
REMARK  10 active torsions:
REMARK  status: ('A' for Active; 'I' for Inactive)
REMARK    1  A    between atoms: C_1  and  C_2
REMARK    2  A    between atoms: C_2  and  C_3
REMARK    3  A    between atoms: N_5  and  C_6
REMARK    4  A    between atoms: C_9  and  O_25
REMARK    5  A    between atoms: C_10  and  C_12
REMARK    6  A    between atoms: N_14  and  C_15
REMARK    7  A    between atoms: C_15  and  C_16
REMARK    8  A    between atoms: C_16  and  C_17
REMARK    9  A    between atoms: C_16  and  N_18
REMARK   10  A    between atoms: C_21  and  C_24
REMARK                            x       y       z     vdW  Elec       q    Type
REMARK                         _______ _______ _______ _____ _____    ______ ____
ROOT
ATOM      1  C   UNL     1      -4.740  -5.871   0.451  0.00  0.00    +0.248 C 
ATOM      2  O   UNL     1      -5.828  -6.379   0.644  0.00  0.00    -0.270 OA
ATOM      3  N   UNL     1      -3.636  -6.642   0.399  0.00  0.00    -0.313 N 
ATOM      4  H   UNL     1      -2.768  -6.237   0.245  0.00  0.00    +0.149 HD
ENDROOT
BRANCH   1   9
ATOM      5  C   UNL     1      -3.283  -2.453  -0.108  0.00  0.00    +0.034 A 
ATOM      6  C   UNL     1      -4.425  -1.660  -0.053  0.00  0.00    +0.027 A 
ATOM      7  C   UNL     1      -5.661  -2.232   0.165  0.00  0.00    +0.048 A 
ATOM      8  C   UNL     1      -5.774  -3.605   0.331  0.00  0.00    +0.129 A 
ATOM      9  C   UNL     1      -4.628  -4.410   0.276  0.00  0.00    +0.080 A 
ATOM     10  C   UNL     1      -3.381  -3.824   0.051  0.00  0.00    +0.040 A 
BRANCH   5  13
ATOM     11  C   UNL     1      -1.757  -0.649   0.190  0.00  0.00    +0.217 C 
ATOM     12  O   UNL     1      -2.621  -0.031   0.776  0.00  0.00    -0.275 OA
ATOM     13  N   UNL     1      -2.032  -1.862  -0.329  0.00  0.00    -0.285 N 
ATOM     14  H   UNL     1      -1.363  -2.326  -0.857  0.00  0.00    +0.155 HD
BRANCH  11  16
ATOM     15  C   UNL     1      -0.334   1.312   0.717  0.00  0.00    +0.013 C 
ATOM     16  C   UNL     1      -0.378  -0.061   0.043  0.00  0.00    +0.093 C 
ENDBRANCH  11  16
ENDBRANCH   5  13
BRANCH   8  17
ATOM     17  O   UNL     1      -6.990  -4.167   0.545  0.00  0.00    -0.506 OA
ATOM     18  H   UNL     1      -7.452  -4.426  -0.264  0.00  0.00    +0.292 HD
ENDBRANCH   8  17
ENDBRANCH   1   9
BRANCH   3  19
ATOM     19  C   UNL     1      -3.747  -8.093   0.572  0.00  0.00    +0.089 C 
BRANCH  19  20
ATOM     20  C   UNL     1      -2.349  -8.712   0.600  0.00  0.00    -0.054 C 
ATOM     21  C   UNL     1      -2.459 -10.208   0.898  0.00  0.00    -0.012 C 
BRANCH  20  22
ATOM     22  N   UNL     1      -1.546  -8.062   1.645  0.00  0.00    +0.382 N 
ATOM     23  C   UNL     1      -2.122  -8.363   2.961  0.00  0.00    -0.078 C 
ATOM     24  C   UNL     1      -1.338  -7.623   4.046  0.00  0.00    -0.016 C 
ATOM     25  C   UNL     1       0.124  -8.076   4.012  0.00  0.00    -0.018 C 
ATOM     26  C   UNL     1       0.693  -7.826   2.612  0.00  0.00    -0.016 C 
ATOM     27  C   UNL     1      -0.166  -8.559   1.579  0.00  0.00    -0.078 C 
ATOM     28  C   UNL     1       0.930  -7.283   5.042  0.00  0.00    +0.007 C 
ATOM     29  H   UNL     1      -1.550  -7.064   1.498  0.00  0.00    -0.081 HD
ENDBRANCH  20  22
ENDBRANCH  19  20
ENDBRANCH   3  19
TORSDOF 7
