REMARK  Name = ZINC01429035
REMARK  7 active torsions:
REMARK  status: ('A' for Active; 'I' for Inactive)
REMARK    1  A    between atoms: C_1  and  C_2
REMARK    2  A    between atoms: C_5  and  C_8
REMARK    3  A    between atoms: N_10  and  N_11
REMARK    4  A    between atoms: C_12  and  C_13
REMARK    5  A    between atoms: C_12  and  C_14
REMARK    6  A    between atoms: C_15  and  C_20
REMARK    7  A    between atoms: C_17  and  C_19
REMARK                            x       y       z     vdW  Elec       q    Type
REMARK                         _______ _______ _______ _____ _____    ______ ____
ROOT
ATOM      1  C   UNL     1       1.172   3.564   0.009  0.00  0.00    +0.263 C 
ATOM      2  O   UNL     1       0.114   4.163   0.022  0.00  0.00    -0.268 OA
ATOM      3  N   UNL     1       2.334   4.248   0.002  0.00  0.00    -0.203 N 
ATOM      4  H   UNL     1       3.178   3.770  -0.008  0.00  0.00    +0.178 HD
ENDROOT
BRANCH   1   9
ATOM      5  C   UNL     1       1.220  -2.189  -0.022  0.00  0.00    +0.044 C 
ATOM      6  C   UNL     1       1.208  -0.683  -0.014  0.00  0.00    -0.050 A 
ATOM      7  C   UNL     1       0.002  -0.004   0.002  0.00  0.00    +0.004 A 
ATOM      8  C   UNL     1      -0.017   1.375   0.010  0.00  0.00    +0.013 A 
ATOM      9  C   UNL     1       1.185   2.087   0.002  0.00  0.00    +0.038 A 
ATOM     10  C   UNL     1       2.398   1.396  -0.013  0.00  0.00    +0.013 A 
ATOM     11  C   UNL     1       2.402   0.016  -0.021  0.00  0.00    +0.004 A 
ENDBRANCH   1   9
BRANCH   3  12
ATOM     12  N   UNL     1       2.322   5.649   0.009  0.00  0.00    -0.181 NA
ATOM     13  C   UNL     1       3.443   6.309   0.002  0.00  0.00    +0.099 C 
ATOM     14  C   UNL     1       4.755   5.566  -0.014  0.00  0.00    +0.071 C 
BRANCH  13  15
ATOM     15  C   UNL     1       3.431   7.775   0.010  0.00  0.00    +0.153 A 
ATOM     16  C   UNL     1       2.320   8.567   0.024  0.00  0.00    -0.003 A 
ATOM     17  C   UNL     1       2.773   9.899   0.026  0.00  0.00    +0.048 A 
ATOM     18  C   UNL     1       4.121   9.860   0.014  0.00  0.00    +0.103 A 
ATOM     19  O   UNL     1       4.515   8.576   0.009  0.00  0.00    -0.458 OA
ATOM     20  C   UNL     1       5.035  11.058   0.012  0.00  0.00    +0.086 C 
ATOM     21  C   UNL     1       0.885   8.105   0.035  0.00  0.00    +0.048 C 
ENDBRANCH  13  15
ENDBRANCH   3  12
TORSDOF 3
