REMARK  Name = ZINC21824568
REMARK  7 active torsions:
REMARK  status: ('A' for Active; 'I' for Inactive)
REMARK    1  A    between atoms: C_1  and  C_2
REMARK    2  A    between atoms: C_2  and  C_4
REMARK    3  A    between atoms: C_2  and  S_18
REMARK    4  A    between atoms: N_6  and  C_7
REMARK    5  A    between atoms: S_18  and  C_19
REMARK    6  A    between atoms: C_21  and  C_25
REMARK    7  A    between atoms: N_23  and  N_24
REMARK                            x       y       z     vdW  Elec       q    Type
REMARK                         _______ _______ _______ _____ _____    ______ ____
ROOT
ATOM      1  C   UNL     1       0.310   5.846  -1.280  0.00  0.00    +0.029 C 
ATOM      2  C   UNL     1      -0.471   5.898   0.035  0.00  0.00    +0.137 C 
ENDROOT
BRANCH   2   3
ATOM      3  C   UNL     1      -1.138   7.243   0.170  0.00  0.00    +0.227 C 
ATOM      4  O   UNL     1      -2.314   7.367  -0.098  0.00  0.00    -0.275 OA
ATOM      5  N   UNL     1      -0.427   8.308   0.590  0.00  0.00    -0.307 N 
ATOM      6  H   UNL     1       0.640   8.196   0.834  0.00  0.00    +0.149 HD
BRANCH   5   7
ATOM      7  C   UNL     1      -1.075   9.615   0.722  0.00  0.00    +0.110 C 
ATOM      8  C   UNL     1      -0.023  10.720   0.593  0.00  0.00    +0.068 C 
ATOM      9  C   UNL     1      -0.663  12.046   1.024  0.00  0.00    +0.231 C 
ATOM     10  O   UNL     1      -0.992  11.958   2.411  0.00  0.00    -0.492 OA
ATOM     11  C   UNL     1      -1.674  10.861   2.832  0.00  0.00    +0.125 A 
ATOM     12  C   UNL     1      -1.746   9.709   2.069  0.00  0.00    +0.014 A 
ATOM     13  C   UNL     1      -2.448   8.613   2.541  0.00  0.00    +0.009 A 
ATOM     14  C   UNL     1      -3.079   8.665   3.769  0.00  0.00    +0.001 A 
ATOM     15  C   UNL     1      -3.010   9.815   4.533  0.00  0.00    +0.004 A 
ATOM     16  C   UNL     1      -2.311  10.910   4.068  0.00  0.00    +0.046 A 
ENDBRANCH   5   7
ENDBRANCH   2   3
BRANCH   2  17
ATOM     17  S   UNL     1      -1.730   4.598   0.040  0.00  0.00    -0.074 S 
BRANCH  17  18
ATOM     18  C   UNL     1      -0.697   3.171   0.024  0.00  0.00    +0.187 A 
ATOM     19  N   UNL     1       0.615   3.178   0.012  0.00  0.00    -0.221 NA
ATOM     20  C   UNL     1       1.066   1.898   0.002  0.00  0.00    +0.092 A 
ATOM     21  C   UNL     1      -0.013   1.076   0.008  0.00  0.00    +0.138 A 
ATOM     22  N   UNL     1      -1.127   1.879   0.017  0.00  0.00    -0.251 N 
BRANCH  20  23
ATOM     23  C   UNL     1       2.487   1.474  -0.012  0.00  0.00    +0.002 A 
ATOM     24  C   UNL     1       2.812   0.119  -0.015  0.00  0.00    +0.010 A 
ATOM     25  C   UNL     1       4.136  -0.270  -0.035  0.00  0.00    +0.001 A 
ATOM     26  C   UNL     1       5.140   0.682  -0.040  0.00  0.00    +0.000 A 
ATOM     27  C   UNL     1       4.823   2.028  -0.030  0.00  0.00    +0.001 A 
ATOM     28  C   UNL     1       3.502   2.429  -0.017  0.00  0.00    +0.010 A 
ENDBRANCH  20  23
BRANCH  22  29
ATOM     29  N   UNL     1      -2.427   1.459   0.020  0.00  0.00    -0.296 N 
ATOM     30  H   UNL     1      -2.658   0.384   0.013  0.00  0.00    +0.163 HD
ATOM     31  H   UNL     1      -3.243   2.197   0.029  0.00  0.00    +0.163 HD
ENDBRANCH  22  29
ENDBRANCH  17  18
ENDBRANCH   2  17
TORSDOF 6
