REMARK  Name = ZINC46815853
REMARK  11 active torsions:
REMARK  status: ('A' for Active; 'I' for Inactive)
REMARK    1  A    between atoms: C_1  and  C_2
REMARK    2  A    between atoms: C_4  and  O_31
REMARK    3  A    between atoms: C_5  and  O_29
REMARK    4  A    between atoms: C_7  and  C_8
REMARK    5  A    between atoms: C_8  and  C_10
REMARK    6  A    between atoms: C_8  and  N_11
REMARK    7  A    between atoms: C_12  and  C_14
REMARK    8  A    between atoms: N_23  and  C_26
REMARK    9  A    between atoms: C_26  and  C_27
REMARK   10  A    between atoms: O_29  and  C_30
REMARK   11  A    between atoms: O_31  and  C_32
REMARK                            x       y       z     vdW  Elec       q    Type
REMARK                         _______ _______ _______ _____ _____    ______ ____
ROOT
ATOM      1  N   UNL     1       0.630  -0.785   3.544  0.00  0.00    -0.305 N 
ATOM      2  C   UNL     1       1.199  -0.211   4.622  0.00  0.00    +0.245 C 
ATOM      3  O   UNL     1       1.210   1.000   4.731  0.00  0.00    -0.270 OA
ATOM      4  H   UNL     1       0.621  -1.751   3.457  0.00  0.00    +0.150 HD
ENDROOT
BRANCH   2   5
ATOM      5  C   UNL     1       1.811  -1.054   5.674  0.00  0.00    +0.039 A 
ATOM      6  C   UNL     1       1.800  -2.449   5.540  0.00  0.00    +0.014 A 
ATOM      7  C   UNL     1       2.359  -3.243   6.500  0.00  0.00    +0.016 A 
ATOM      8  C   UNL     1       2.947  -2.666   7.624  0.00  0.00    +0.065 A 
ATOM      9  C   UNL     1       2.967  -1.261   7.774  0.00  0.00    +0.080 A 
ATOM     10  C   UNL     1       2.396  -0.458   6.783  0.00  0.00    +0.041 A 
ATOM     11  N   UNL     1       3.543  -0.722   8.875  0.00  0.00    -0.222 NA
ATOM     12  C   UNL     1       4.083  -1.473   9.803  0.00  0.00    +0.183 A 
ATOM     13  S   UNL     1       4.810  -0.687  11.202  0.00  0.00    -0.011 SA
ATOM     14  N   UNL     1       4.108  -2.837   9.737  0.00  0.00    -0.283 N 
ATOM     15  C   UNL     1       3.561  -3.484   8.682  0.00  0.00    +0.263 A 
ATOM     16  O   UNL     1       3.576  -4.699   8.611  0.00  0.00    -0.267 OA
BRANCH  14  17
ATOM     17  C   UNL     1       4.732  -3.605  10.817  0.00  0.00    +0.154 C 
BRANCH  17  18
ATOM     18  C   UNL     1       3.700  -3.925  11.868  0.00  0.00    -0.013 C 
ATOM     19  C   UNL     1       3.496  -5.167  12.230  0.00  0.00    +0.005 C 
ENDBRANCH  17  18
ENDBRANCH  14  17
ENDBRANCH   2   5
BRANCH   1  20
ATOM     20  C   UNL     1       0.025   0.050   2.503  0.00  0.00    +0.101 C 
ATOM     21  C   UNL     1      -1.413   0.393   2.897  0.00  0.00    +0.033 C 
BRANCH  20  28
ATOM     22  C   UNL     1      -0.018   1.503   0.010  0.00  0.00    +0.044 C 
ATOM     23  C   UNL     1       0.002  -0.004   0.002  0.00  0.00    -0.042 A 
ATOM     24  C   UNL     1       0.006  -0.687  -1.200  0.00  0.00    +0.053 A 
ATOM     25  C   UNL     1       0.025  -2.072  -1.210  0.00  0.00    +0.162 A 
ATOM     26  C   UNL     1       0.040  -2.773  -0.007  0.00  0.00    +0.162 A 
ATOM     27  C   UNL     1       0.036  -2.083   1.194  0.00  0.00    +0.055 A 
ATOM     28  C   UNL     1       0.023  -0.700   1.196  0.00  0.00    -0.021 A 
BRANCH  26  29
ATOM     29  O   UNL     1       0.058  -4.133  -0.011  0.00  0.00    -0.491 OA
ATOM     30  C   UNL     1       0.073  -4.785   1.260  0.00  0.00    +0.277 C 
ENDBRANCH  26  29
BRANCH  25  31
ATOM     31  O   UNL     1       0.028  -2.746  -2.391  0.00  0.00    -0.491 OA
ATOM     32  C   UNL     1       0.011  -1.961  -3.585  0.00  0.00    +0.277 C 
ENDBRANCH  25  31
ENDBRANCH  20  28
ENDBRANCH   1  20
TORSDOF 7
