REMARK  Name = ZINC08902064
REMARK  6 active torsions:
REMARK  status: ('A' for Active; 'I' for Inactive)
REMARK    1  A    between atoms: C_1  and  C_2
REMARK    2  A    between atoms: C_2  and  C_3
REMARK    3  A    between atoms: C_3  and  C_27
REMARK    4  A    between atoms: N_6  and  C_10
REMARK    5  A    between atoms: C_10  and  C_11
REMARK    6  A    between atoms: C_24  and  C_26
REMARK                            x       y       z     vdW  Elec       q    Type
REMARK                         _______ _______ _______ _____ _____    ______ ____
ROOT
ATOM      1  C   UNL     1       0.742  -0.511   1.242  0.00  0.00    +0.138 C 
ATOM      2  C   UNL     1       2.127   0.099   1.323  0.00  0.00    +0.251 C 
ATOM      3  O   UNL     1       3.028  -0.020   0.520  0.00  0.00    -0.272 OA
ATOM      4  N   UNL     1       2.149   0.803   2.472  0.00  0.00    -0.215 N 
ATOM      5  C   UNL     1       0.982   0.723   3.121  0.00  0.00    +0.310 C 
ATOM      6  O   UNL     1       0.760   1.274   4.181  0.00  0.00    -0.252 OA
ATOM      7  N   UNL     1       0.082  -0.036   2.470  0.00  0.00    -0.281 N 
ATOM      8  H   UNL     1      -0.825  -0.231   2.753  0.00  0.00    +0.152 HD
ENDROOT
BRANCH   1   9
ATOM      9  C   UNL     1       0.822  -2.016   1.231  0.00  0.00    -0.015 A 
ATOM     10  C   UNL     1       0.868  -2.696   0.029  0.00  0.00    +0.009 A 
ATOM     11  C   UNL     1       0.942  -4.077   0.018  0.00  0.00    +0.039 A 
ATOM     12  C   UNL     1       0.970  -4.777   1.212  0.00  0.00    +0.123 A 
ATOM     13  C   UNL     1       0.923  -4.094   2.415  0.00  0.00    +0.039 A 
ATOM     14  C   UNL     1       0.855  -2.714   2.424  0.00  0.00    +0.009 A 
ATOM     15  F   UNL     1       1.041  -6.126   1.202  0.00  0.00    -0.205 F 
ENDBRANCH   1   9
BRANCH   1  17
ATOM     16  C   UNL     1      -0.019   1.526   0.010  0.00  0.00    +0.007 C 
ATOM     17  C   UNL     1       0.002  -0.004   0.002  0.00  0.00    +0.037 C 
ENDBRANCH   1  17
BRANCH   4  18
ATOM     18  C   UNL     1       3.307   1.562   2.951  0.00  0.00    +0.214 C 
BRANCH  18  19
ATOM     19  C   UNL     1       3.240   2.970   2.420  0.00  0.00    +0.238 C 
ATOM     20  O   UNL     1       2.315   3.308   1.711  0.00  0.00    -0.273 OA
ATOM     21  N   UNL     1       4.207   3.855   2.733  0.00  0.00    -0.265 N 
ATOM     22  C   UNL     1       5.284   3.477   3.546  0.00  0.00    +0.058 A 
ATOM     23  C   UNL     1       5.103   3.260   4.902  0.00  0.00    +0.025 A 
ATOM     24  C   UNL     1       6.183   2.910   5.693  0.00  0.00    +0.002 A 
ATOM     25  C   UNL     1       7.441   2.778   5.135  0.00  0.00    +0.002 A 
ATOM     26  C   UNL     1       7.628   2.985   3.781  0.00  0.00    +0.025 A 
ATOM     27  C   UNL     1       6.550   3.325   2.981  0.00  0.00    +0.055 A 
ATOM     28  N   UNL     1       6.704   3.484   1.599  0.00  0.00    -0.284 N 
ATOM     29  C   UNL     1       6.193   4.567   0.973  0.00  0.00    +0.219 C 
ATOM     30  O   UNL     1       6.261   4.652  -0.235  0.00  0.00    -0.275 OA
ATOM     31  C   UNL     1       5.540   5.668   1.765  0.00  0.00    +0.118 C 
ATOM     32  C   UNL     1       4.154   5.228   2.225  0.00  0.00    +0.087 C 
ATOM     33  C   UNL     1       3.671   6.163   3.335  0.00  0.00    +0.029 C 
ATOM     34  H   UNL     1       7.182   2.813   1.087  0.00  0.00    +0.155 HD
ENDBRANCH  18  19
ENDBRANCH   4  18
TORSDOF 4
