REMARK  Name = ZINC03670949
REMARK  7 active torsions:
REMARK  status: ('A' for Active; 'I' for Inactive)
REMARK    1  A    between atoms: C_1  and  C_2
REMARK    2  A    between atoms: C_9  and  N_14
REMARK    3  A    between atoms: C_10  and  C_11
REMARK    4  A    between atoms: N_14  and  C_15
REMARK    5  A    between atoms: C_15  and  N_17
REMARK    6  A    between atoms: C_18  and  C_20
REMARK    7  A    between atoms: N_24  and  C_25
REMARK                            x       y       z     vdW  Elec       q    Type
REMARK                         _______ _______ _______ _____ _____    ______ ____
ROOT
ATOM      1  C   UNL     1       0.465   4.812 -11.863  0.00  0.00    +0.008 C 
ATOM      2  C   UNL     1       0.828   4.754 -10.378  0.00  0.00    -0.009 C 
ATOM      3  C   UNL     1       0.188   5.935  -9.643  0.00  0.00    +0.008 C 
ATOM      4  C   UNL     1       0.744   6.026  -8.220  0.00  0.00    +0.037 C 
ATOM      5  C   UNL     1       0.595   4.666  -7.548  0.00  0.00    -0.023 A 
ATOM      6  C   UNL     1       0.398   3.547  -8.278  0.00  0.00    -0.004 A 
ATOM      7  S   UNL     1       0.291   2.242  -7.087  0.00  0.00    -0.077 S 
ATOM      8  C   UNL     1       0.496   3.170  -5.637  0.00  0.00    +0.084 A 
ATOM      9  C   UNL     1       0.649   4.465  -6.110  0.00  0.00    +0.068 A 
ATOM     10  C   UNL     1       0.299   3.447  -9.769  0.00  0.00    +0.046 C 
ENDROOT
BRANCH   9  11
ATOM     11  C   UNL     1       0.858   5.590  -5.193  0.00  0.00    +0.244 C 
ATOM     12  O   UNL     1       1.987   5.911  -4.872  0.00  0.00    -0.270 OA
ATOM     13  N   UNL     1      -0.200   6.267  -4.705  0.00  0.00    -0.325 N 
ATOM     14  H   UNL     1      -1.100   6.011  -4.961  0.00  0.00    +0.145 HD
ATOM     15  H   UNL     1      -0.062   7.011  -4.098  0.00  0.00    +0.145 HD
ENDBRANCH   9  11
BRANCH   8  16
ATOM     16  N   UNL     1       0.510   2.724  -4.325  0.00  0.00    -0.291 N 
ATOM     17  H   UNL     1       0.639   3.356  -3.600  0.00  0.00    +0.154 HD
BRANCH  16  18
ATOM     18  C   UNL     1       0.343   1.414  -4.056  0.00  0.00    +0.141 C 
ATOM     19  S   UNL     1       0.114   0.300  -5.336  0.00  0.00    -0.018 S 
BRANCH  18  20
ATOM     20  N   UNL     1       0.356   0.981  -2.780  0.00  0.00    -0.262 N 
ATOM     21  C   UNL     1       0.190  -0.329  -2.511  0.00  0.00    +0.268 C 
ATOM     22  O   UNL     1       0.124  -1.133  -3.421  0.00  0.00    -0.268 OA
ATOM     23  H   UNL     1       0.486   1.613  -2.055  0.00  0.00    +0.157 HD
BRANCH  21  24
ATOM     24  C   UNL     1       0.088  -0.786  -1.117  0.00  0.00    +0.123 A 
ATOM     25  C   UNL     1       0.045   0.007   0.017  0.00  0.00    +0.054 A 
ATOM     26  C   UNL     1      -0.046  -0.884   1.089  0.00  0.00    +0.135 A 
ATOM     27  N   UNL     1      -0.060  -2.098   0.601  0.00  0.00    -0.179 NA
ATOM     28  N   UNL     1       0.013  -2.079  -0.681  0.00  0.00    -0.262 N 
ATOM     29  C   UNL     1       0.022  -3.263  -1.544  0.00  0.00    +0.173 C 
ENDBRANCH  21  24
ENDBRANCH  18  20
ENDBRANCH  16  18
ENDBRANCH   8  16
TORSDOF 5
