REMARK  Name = ZINC03441439
REMARK  10 active torsions:
REMARK  status: ('A' for Active; 'I' for Inactive)
REMARK    1  A    between atoms: C_1  and  C_2
REMARK    2  A    between atoms: C_2  and  C_4
REMARK    3  A    between atoms: C_2  and  O_11
REMARK    4  A    between atoms: O_11  and  C_12
REMARK    5  A    between atoms: C_12  and  C_13
REMARK    6  A    between atoms: C_13  and  C_15
REMARK    7  A    between atoms: C_13  and  O_26
REMARK    8  A    between atoms: C_15  and  N_45
REMARK    9  A    between atoms: C_16  and  C_17
REMARK   10  A    between atoms: C_16  and  N_45
REMARK                            x       y       z     vdW  Elec       q    Type
REMARK                         _______ _______ _______ _____ _____    ______ ____
ROOT
ATOM      1  C   UNL     1      -3.326  -1.221  -1.157  0.00  0.00    +0.123 C 
ENDROOT
BRANCH   1   2
ATOM      2  O   UNL     1      -4.146  -0.228  -0.539  0.00  0.00    -0.391 OA
ATOM      3  H   UNL     1      -4.194   0.604  -1.030  0.00  0.00    +0.210 HD
ENDBRANCH   1   2
BRANCH   1   4
ATOM      4  C   UNL     1      -1.896  -0.693  -1.289  0.00  0.00    +0.190 C 
BRANCH   4   5
ATOM      5  O   UNL     1      -1.339  -0.499   0.012  0.00  0.00    -0.370 OA
BRANCH   5   7
ATOM      6  C   UNL     1      -0.019   1.526   0.010  0.00  0.00    +0.043 C 
ATOM      7  C   UNL     1       0.002  -0.004   0.002  0.00  0.00    +0.145 C 
BRANCH   7   8
ATOM      8  C   UNL     1       0.731  -0.503   1.223  0.00  0.00    -0.019 A 
ATOM      9  C   UNL     1       0.056  -0.646   2.421  0.00  0.00    +0.007 A 
ATOM     10  C   UNL     1       0.722  -1.109   3.539  0.00  0.00    +0.020 A 
ATOM     11  C   UNL     1       2.068  -1.419   3.463  0.00  0.00    +0.041 A 
ATOM     12  C   UNL     1       2.745  -1.271   2.265  0.00  0.00    +0.020 A 
ATOM     13  C   UNL     1       2.076  -0.813   1.146  0.00  0.00    +0.007 A 
ATOM     14 CL   UNL     1       2.908  -1.995   4.869  0.00  0.00    -0.084 Cl
ENDBRANCH   7   8
ENDBRANCH   5   7
ENDBRANCH   4   5
ENDBRANCH   1   4
BRANCH   1  15
ATOM     15  C   UNL     1      -3.879  -1.547  -2.546  0.00  0.00    -0.048 C 
BRANCH  15  16
ATOM     16  N   UNL     1      -5.257  -2.056  -2.411  0.00  0.00    +0.385 N 
ATOM     17  H   UNL     1      -5.840  -1.339  -1.962  0.00  0.00    -0.085 HD
ATOM     18  H   UNL     1      -5.250  -2.903  -1.831  0.00  0.00    -0.085 HD
BRANCH  16  19
ATOM     19  C   UNL     1      -5.817  -2.379  -3.737  0.00  0.00    -0.018 C 
BRANCH  19  20
ATOM     20  C   UNL     1      -7.222  -2.895  -3.567  0.00  0.00    +0.063 A 
ATOM     21  N   UNL     1      -8.336  -2.219  -3.557  0.00  0.00    -0.246 NA
ATOM     22  C   UNL     1      -9.540  -2.807  -3.395  0.00  0.00    +0.078 A 
ATOM     23  C   UNL     1     -10.822  -2.216  -3.362  0.00  0.00    +0.029 A 
ATOM     24  C   UNL     1     -11.935  -2.979  -3.188  0.00  0.00    +0.002 A 
ATOM     25  C   UNL     1     -11.856  -4.357  -3.038  0.00  0.00    +0.001 A 
ATOM     26  C   UNL     1     -10.619  -4.973  -3.065  0.00  0.00    +0.017 A 
ATOM     27  C   UNL     1      -9.490  -4.211  -3.240  0.00  0.00    +0.039 A 
ATOM     28  S   UNL     1      -7.748  -4.535  -3.347  0.00  0.00    -0.074 S 
ENDBRANCH  19  20
ENDBRANCH  16  19
ENDBRANCH  15  16
ENDBRANCH   1  15
TORSDOF 9
