REMARK  Name = ZINC29571570
REMARK  3 active torsions:
REMARK  status: ('A' for Active; 'I' for Inactive)
REMARK    1  A    between atoms: C_6  and  C_7
REMARK    2  A    between atoms: C_7  and  C_9
REMARK    3  A    between atoms: C_13  and  N_14
REMARK                            x       y       z     vdW  Elec       q    Type
REMARK                         _______ _______ _______ _____ _____    ______ ____
ROOT
ATOM      1  C   UNL     1       1.243   1.960   0.026  0.00  0.00    +0.053 A 
ATOM      2  C   UNL     1       2.521   1.280   0.138  0.00  0.00    -0.028 A 
ATOM      3  C   UNL     1       3.606   2.085   0.139  0.00  0.00    -0.022 A 
ATOM      4  S   UNL     1       2.955   3.724   0.007  0.00  0.00    -0.080 S 
ATOM      5  C   UNL     1       1.264   3.350  -0.056  0.00  0.00    +0.074 A 
ATOM      6  C   UNL     1       5.035   1.651   0.240  0.00  0.00    -0.039 C 
ATOM      7  N   UNL     1       5.059   0.245   0.687  0.00  0.00    +0.382 N 
ATOM      8  C   UNL     1       4.143  -0.573  -0.119  0.00  0.00    -0.077 C 
ATOM      9  C   UNL     1       2.691  -0.232   0.228  0.00  0.00    +0.017 C 
ATOM     10  H   UNL     1       6.079  -0.155   0.583  0.00  0.00    -0.085 HD
ATOM     11  H   UNL     1       4.750   0.191   1.742  0.00  0.00    -0.085 HD
ENDROOT
BRANCH   5  12
ATOM     12  N   UNL     1       0.197   4.219  -0.164  0.00  0.00    -0.352 N 
ATOM     13  H   UNL     1       0.374   5.303  -0.220  0.00  0.00    +0.143 HD
ATOM     14  H   UNL     1      -0.831   3.828  -0.193  0.00  0.00    +0.143 HD
ENDBRANCH   5  12
BRANCH   1  15
ATOM     15  C   UNL     1      -0.016   1.215   0.008  0.00  0.00    +0.196 C 
ATOM     16  O   UNL     1      -0.533   0.919  -1.054  0.00  0.00    -0.287 OA
BRANCH  15  22
ATOM     17  C   UNL     1      -0.129   1.250   2.497  0.00  0.00    +0.013 A 
ATOM     18  C   UNL     1      -0.741   0.890   3.679  0.00  0.00    +0.015 A 
ATOM     19  C   UNL     1      -1.877   0.100   3.660  0.00  0.00    +0.013 A 
ATOM     20  C   UNL     1      -2.410  -0.329   2.456  0.00  0.00    +0.015 A 
ATOM     21  C   UNL     1      -1.810   0.030   1.267  0.00  0.00    +0.013 A 
ATOM     22  C   UNL     1      -0.664   0.827   1.280  0.00  0.00    +0.022 A 
ATOM     23  I   UNL     1      -2.796  -0.450   5.461  0.00  0.00    -0.044 I 
ENDBRANCH  15  22
ENDBRANCH   1  15
TORSDOF 3
