REMARK  Name = ZINC67305429
REMARK  10 active torsions:
REMARK  status: ('A' for Active; 'I' for Inactive)
REMARK    1  A    between atoms: C_1  and  C_2
REMARK    2  A    between atoms: C_3  and  C_9
REMARK    3  A    between atoms: C_4  and  C_8
REMARK    4  A    between atoms: N_5  and  C_7
REMARK    5  A    between atoms: C_9  and  C_11
REMARK    6  A    between atoms: C_9  and  N_12
REMARK    7  A    between atoms: C_13  and  C_15
REMARK    8  A    between atoms: C_15  and  N_16
REMARK    9  A    between atoms: C_19  and  C_23
REMARK   10  A    between atoms: C_19  and  C_24
REMARK                            x       y       z     vdW  Elec       q    Type
REMARK                         _______ _______ _______ _____ _____    ______ ____
ROOT
ATOM      1  C   UNL     1      -2.025   2.325  -4.138  0.00  0.00    +0.213 C 
ENDROOT
BRANCH   1   2
ATOM      2  N   UNL     1      -2.503   2.375  -5.522  0.00  0.00    -0.215 N 
ATOM      3  C   UNL     1      -1.845   2.983  -6.528  0.00  0.00    +0.251 C 
ATOM      4  O   UNL     1      -0.786   3.569  -6.462  0.00  0.00    -0.272 OA
ATOM      5  C   UNL     1      -2.705   2.781  -7.761  0.00  0.00    +0.135 C 
ATOM      6  N   UNL     1      -3.855   2.011  -7.258  0.00  0.00    -0.281 N 
ATOM      7  C   UNL     1      -3.645   1.819  -5.943  0.00  0.00    +0.310 C 
ATOM      8  O   UNL     1      -4.408   1.211  -5.219  0.00  0.00    -0.252 OA
ATOM      9  C   UNL     1      -3.163   4.128  -8.324  0.00  0.00    +0.047 C 
ATOM     10  H   UNL     1      -4.615   1.700  -7.775  0.00  0.00    +0.152 HD
BRANCH   5  11
ATOM     11  C   UNL     1      -1.956   1.995  -8.806  0.00  0.00    -0.016 A 
ATOM     12  C   UNL     1      -0.579   2.084  -8.883  0.00  0.00    +0.006 A 
ATOM     13  C   UNL     1       0.108   1.363  -9.842  0.00  0.00    +0.000 A 
ATOM     14  C   UNL     1      -0.583   0.553 -10.723  0.00  0.00    +0.000 A 
ATOM     15  C   UNL     1      -1.960   0.463 -10.646  0.00  0.00    +0.000 A 
ATOM     16  C   UNL     1      -2.646   1.181  -9.684  0.00  0.00    +0.006 A 
ENDBRANCH   5  11
ENDBRANCH   1   2
BRANCH   1  18
ATOM     17  N   UNL     1      -0.616   0.845  -2.745  0.00  0.00    -0.307 N 
ATOM     18  C   UNL     1      -1.168   1.100  -3.947  0.00  0.00    +0.231 C 
ATOM     19  O   UNL     1      -0.976   0.344  -4.875  0.00  0.00    -0.274 OA
ATOM     20  H   UNL     1      -0.769   1.450  -2.002  0.00  0.00    +0.149 HD
BRANCH  17  21
ATOM     21  C   UNL     1       0.218  -0.346  -2.559  0.00  0.00    +0.104 C 
ATOM     22  C   UNL     1       1.648  -0.043  -3.010  0.00  0.00    +0.033 C 
BRANCH  21  25
ATOM     23  C   UNL     1      -0.183  -3.272  -1.411  0.00  0.00    +0.068 C 
ATOM     24  C   UNL     1       0.045  -2.025  -0.595  0.00  0.00    +0.065 A 
ATOM     25  C   UNL     1       0.222  -0.734  -1.103  0.00  0.00    +0.016 A 
ATOM     26  C   UNL     1       0.397   0.105  -0.056  0.00  0.00    +0.041 A 
ATOM     27  N   UNL     1       0.334  -0.630   1.075  0.00  0.00    -0.271 N 
ATOM     28  N   UNL     1       0.107  -1.963   0.710  0.00  0.00    -0.176 NA
ATOM     29  C   UNL     1       0.473  -0.122   2.442  0.00  0.00    +0.172 C 
ATOM     30  C   UNL     1       0.623   1.592  -0.137  0.00  0.00    +0.065 C 
ENDBRANCH  21  25
ENDBRANCH  17  21
ENDBRANCH   1  18
TORSDOF 5
