REMARK  Name = ZINC04814828
REMARK  6 active torsions:
REMARK  status: ('A' for Active; 'I' for Inactive)
REMARK    1  A    between atoms: C_1  and  C_2
REMARK    2  A    between atoms: C_2  and  C_3
REMARK    3  A    between atoms: C_3  and  N_39
REMARK    4  A    between atoms: C_11  and  N_17
REMARK    5  A    between atoms: N_15  and  N_16
REMARK    6  A    between atoms: N_17  and  N_18
REMARK                            x       y       z     vdW  Elec       q    Type
REMARK                         _______ _______ _______ _____ _____    ______ ____
ROOT
ATOM      1  C   UNL     1       5.376   3.701  -0.615  0.00  0.00    -0.074 C 
ATOM      2  C   UNL     1       3.866   3.462  -0.694  0.00  0.00    +0.018 C 
ATOM      3  C   UNL     1       3.618   1.957  -0.628  0.00  0.00    -0.028 A 
ATOM      4  C   UNL     1       4.628   1.098  -0.878  0.00  0.00    -0.021 A 
ATOM      5  S   UNL     1       3.918  -0.515  -0.693  0.00  0.00    -0.075 S 
ATOM      6  C   UNL     1       2.262  -0.032  -0.280  0.00  0.00    +0.116 A 
ATOM      7  C   UNL     1       2.316   1.377  -0.300  0.00  0.00    +0.052 A 
ATOM      8  C   UNL     1       1.095   2.041   0.003  0.00  0.00    +0.146 A 
ATOM      9  N   UNL     1       0.018   1.323   0.276  0.00  0.00    -0.197 NA
ATOM     10  C   UNL     1       0.037  -0.004   0.279  0.00  0.00    +0.232 A 
ATOM     11  N   UNL     1       1.147  -0.676   0.004  0.00  0.00    -0.206 NA
ATOM     12  N   UNL     1      -1.123  -0.700   0.574  0.00  0.00    -0.252 N 
ATOM     13  C   UNL     1       6.037   1.456  -1.236  0.00  0.00    -0.035 C 
ATOM     14  H   UNL     1      -1.940  -0.217   0.777  0.00  0.00    +0.169 HD
ATOM     15  N   UNL     1       6.055   2.882  -1.640  0.00  0.00    +0.383 N 
ATOM     16  H   UNL     1       5.558   2.984  -2.532  0.00  0.00    -0.081 HD
ENDROOT
BRANCH  12  17
ATOM     17  N   UNL     1      -1.118  -2.066   0.580  0.00  0.00    -0.254 NA
ATOM     18  H   UNL     1      -0.416  -2.422   1.211  0.00  0.00    +0.140 HD
ATOM     19  H   UNL     1      -2.030  -2.430   0.811  0.00  0.00    +0.140 HD
ENDBRANCH  12  17
BRANCH   8  20
ATOM     20  N   UNL     1       1.034   3.423   0.010  0.00  0.00    -0.267 N 
ATOM     21  H   UNL     1       1.770   3.943  -0.349  0.00  0.00    +0.167 HD
BRANCH  20  22
ATOM     22  N   UNL     1      -0.063   4.055   0.523  0.00  0.00    -0.255 NA
ATOM     23  H   UNL     1      -0.234   3.768   1.475  0.00  0.00    +0.140 HD
ATOM     24  H   UNL     1       0.035   5.058   0.460  0.00  0.00    +0.140 HD
ENDBRANCH  20  22
ENDBRANCH   8  20
BRANCH  15  25
ATOM     25  C   UNL     1       7.450   3.342  -1.812  0.00  0.00    -0.079 C 
BRANCH  25  27
ATOM     26  C   UNL     1       9.651   2.806  -2.867  0.00  0.00    +0.002 C 
ATOM     27  C   UNL     1       8.213   2.325  -2.665  0.00  0.00    -0.022 C 
ENDBRANCH  25  27
ENDBRANCH  15  25
TORSDOF 5
