REMARK  Name = ZINC66152755
REMARK  10 active torsions:
REMARK  status: ('A' for Active; 'I' for Inactive)
REMARK    1  A    between atoms: C_1  and  C_2
REMARK    2  A    between atoms: C_2  and  C_3
REMARK    3  A    between atoms: C_3  and  C_4
REMARK    4  A    between atoms: C_4  and  C_5
REMARK    5  A    between atoms: C_5  and  C_6
REMARK    6  A    between atoms: C_6  and  O_7
REMARK    7  A    between atoms: O_7  and  C_8
REMARK    8  A    between atoms: C_11  and  N_14
REMARK    9  A    between atoms: C_15  and  C_17
REMARK   10  A    between atoms: C_17  and  C_18
REMARK                            x       y       z     vdW  Elec       q    Type
REMARK                         _______ _______ _______ _____ _____    ______ ____
ROOT
ATOM      1  N   UNL     1      -4.818 -10.109  -0.007  0.00  0.00    -0.286 N 
ATOM      2  C   UNL     1      -3.844 -10.905   0.478  0.00  0.00    +0.216 C 
ATOM      3  O   UNL     1      -2.865 -10.416   1.001  0.00  0.00    -0.276 OA
ATOM      4  H   UNL     1      -5.634 -10.499  -0.356  0.00  0.00    +0.155 HD
ENDROOT
BRANCH   1   8
ATOM      5  C   UNL     1      -4.321  -5.969  -0.004  0.00  0.00    +0.121 A 
ATOM      6  C   UNL     1      -3.224  -6.798  -0.187  0.00  0.00    +0.047 A 
ATOM      7  C   UNL     1      -3.388  -8.170  -0.188  0.00  0.00    +0.027 A 
ATOM      8  C   UNL     1      -4.651  -8.717  -0.006  0.00  0.00    +0.034 A 
ATOM      9  C   UNL     1      -5.748  -7.886   0.177  0.00  0.00    +0.027 A 
ATOM     10  C   UNL     1      -5.582  -6.516   0.184  0.00  0.00    +0.047 A 
BRANCH   5  11
ATOM     11  O   UNL     1      -4.159  -4.619  -0.004  0.00  0.00    -0.492 OA
BRANCH  11  12
ATOM     12  C   UNL     1      -2.833  -4.124  -0.203  0.00  0.00    +0.229 C 
BRANCH  12  13
ATOM     13  C   UNL     1      -2.848  -2.595  -0.171  0.00  0.00    +0.041 C 
BRANCH  13  14
ATOM     14  C   UNL     1      -1.429  -2.066  -0.384  0.00  0.00    +0.003 C 
BRANCH  14  15
ATOM     15  C   UNL     1      -1.444  -0.536  -0.352  0.00  0.00    -0.000 C 
BRANCH  15  17
ATOM     16  C   UNL     1      -0.041   1.523  -0.533  0.00  0.00    +0.004 C 
ATOM     17  C   UNL     1      -0.025  -0.007  -0.566  0.00  0.00    -0.003 C 
ENDBRANCH  15  17
ENDBRANCH  14  15
ENDBRANCH  13  14
ENDBRANCH  12  13
ENDBRANCH  11  12
ENDBRANCH   5  11
ENDBRANCH   1   8
BRANCH   2  18
ATOM     18  C   UNL     1      -3.971 -12.402   0.368  0.00  0.00    +0.089 C 
BRANCH  18  19
ATOM     19  C   UNL     1      -2.741 -13.065   0.991  0.00  0.00    +0.025 C 
ATOM     20  C   UNL     1      -2.808 -14.549   0.766  0.00  0.00    +0.199 C 
ATOM     21  O   UNL     1      -3.173 -14.958  -0.316  0.00  0.00    -0.278 OA
ATOM     22  N   UNL     1      -2.481 -15.438   1.711  0.00  0.00    -0.318 N 
ATOM     23  C   UNL     1      -2.056 -15.041   3.051  0.00  0.00    +0.085 C 
ATOM     24  C   UNL     1      -1.636 -13.570   3.050  0.00  0.00    -0.063 C 
ATOM     25  N   UNL     1      -2.707 -12.775   2.429  0.00  0.00    +0.388 N 
ATOM     26  H   UNL     1      -2.527 -16.383   1.498  0.00  0.00    +0.149 HD
ATOM     27  H   UNL     1      -2.522 -11.794   2.572  0.00  0.00    -0.085 HD
ATOM     28  H   UNL     1      -3.594 -13.018   2.844  0.00  0.00    -0.085 HD
ENDBRANCH  18  19
ENDBRANCH   2  18
TORSDOF 9
