REMARK  Name = ZINC39623170
REMARK  5 active torsions:
REMARK  status: ('A' for Active; 'I' for Inactive)
REMARK    1  A    between atoms: C_1  and  C_2
REMARK    2  A    between atoms: C_5  and  C_10
REMARK    3  A    between atoms: C_14  and  C_23
REMARK    4  A    between atoms: N_25  and  C_26
REMARK    5  A    between atoms: C_26  and  C_27
REMARK                            x       y       z     vdW  Elec       q    Type
REMARK                         _______ _______ _______ _____ _____    ______ ____
ROOT
ATOM      1  C   UNL     1       0.136  -4.045  -0.088  0.00  0.00    +0.250 C 
ATOM      2  O   UNL     1       0.170  -4.622   0.981  0.00  0.00    -0.270 OA
ATOM      3  N   UNL     1      -0.017  -4.747  -1.228  0.00  0.00    -0.296 N 
ATOM      4  C   UNL     1       0.025  -4.239  -2.620  0.00  0.00    +0.121 C 
ATOM      5  C   UNL     1       0.779  -5.332  -3.411  0.00  0.00    +0.100 C 
ATOM      6  C   UNL     1       0.583  -6.617  -2.590  0.00  0.00    -0.004 C 
ATOM      7  C   UNL     1      -0.259  -6.202  -1.374  0.00  0.00    +0.115 C 
ATOM      8  C   UNL     1      -0.159  -7.664  -3.415  0.00  0.00    -0.010 C 
ATOM      9  C   UNL     1      -0.290  -8.952  -2.598  0.00  0.00    -0.082 C 
ATOM     10  N   UNL     1       1.045  -9.442  -2.235  0.00  0.00    +0.379 N 
ATOM     11  C   UNL     1       1.716  -8.469  -1.365  0.00  0.00    -0.082 C 
ATOM     12  C   UNL     1       1.932  -7.160  -2.130  0.00  0.00    -0.010 C 
ATOM     13  H   UNL     1       0.959 -10.322  -1.750  0.00  0.00    -0.086 HD
ATOM     14  H   UNL     1       1.592  -9.575  -3.073  0.00  0.00    -0.086 HD
ENDROOT
BRANCH   1  19
ATOM     15  C   UNL     1       0.621   1.688  -0.285  0.00  0.00    +0.047 C 
ATOM     16  C   UNL     1       0.496   0.187  -0.232  0.00  0.00    -0.012 A 
ATOM     17  C   UNL     1      -0.308  -0.470  -1.147  0.00  0.00    +0.007 A 
ATOM     18  C   UNL     1      -0.429  -1.843  -1.106  0.00  0.00    +0.016 A 
ATOM     19  C   UNL     1       0.262  -2.574  -0.137  0.00  0.00    +0.075 A 
ATOM     20  C   UNL     1       1.073  -1.908   0.785  0.00  0.00    +0.171 A 
ATOM     21  C   UNL     1       1.190  -0.528   0.728  0.00  0.00    +0.162 A 
ATOM     22  F   UNL     1       1.977   0.119   1.615  0.00  0.00    -0.202 F 
ATOM     23  F   UNL     1       1.746  -2.607   1.726  0.00  0.00    -0.202 F 
ENDBRANCH   1  19
BRANCH   5  24
ATOM     24  C   UNL     1       0.183  -5.489  -4.786  0.00  0.00    +0.218 C 
ATOM     25  O   UNL     1      -1.000  -5.284  -4.962  0.00  0.00    -0.275 OA
ATOM     26  N   UNL     1       0.963  -5.857  -5.821  0.00  0.00    -0.311 N 
ATOM     27  H   UNL     1       1.909  -6.021  -5.681  0.00  0.00    +0.149 HD
BRANCH  26  28
ATOM     28  C   UNL     1       0.384  -6.011  -7.158  0.00  0.00    +0.141 C 
BRANCH  28  29
ATOM     29  C   UNL     1       1.460  -6.426  -8.128  0.00  0.00    -0.012 A 
ATOM     30  C   UNL     1       2.048  -5.485  -8.952  0.00  0.00    +0.006 A 
ATOM     31  C   UNL     1       3.035  -5.866  -9.842  0.00  0.00    +0.000 A 
ATOM     32  C   UNL     1       3.435  -7.188  -9.907  0.00  0.00    +0.001 A 
ATOM     33  C   UNL     1       2.847  -8.130  -9.084  0.00  0.00    +0.020 A 
ATOM     34  C   UNL     1       1.863  -7.748  -8.189  0.00  0.00    +0.046 A 
ATOM     35 CL   UNL     1       1.129  -8.929  -7.150  0.00  0.00    -0.083 Cl
ENDBRANCH  28  29
ENDBRANCH  26  28
ENDBRANCH   5  24
TORSDOF 4
