REMARK  Name = ZINC17114557
REMARK  9 active torsions:
REMARK  status: ('A' for Active; 'I' for Inactive)
REMARK    1  A    between atoms: C_1  and  C_2
REMARK    2  A    between atoms: C_2  and  N_3
REMARK    3  A    between atoms: N_3  and  C_4
REMARK    4  A    between atoms: N_3  and  S_6
REMARK    5  A    between atoms: C_4  and  C_5
REMARK    6  A    between atoms: S_6  and  C_9
REMARK    7  A    between atoms: C_15  and  C_20
REMARK    8  A    between atoms: C_17  and  O_19
REMARK    9  A    between atoms: N_22  and  N_23
REMARK                            x       y       z     vdW  Elec       q    Type
REMARK                         _______ _______ _______ _____ _____    ______ ____
ROOT
ATOM      1  C   UNL     1       1.490  -1.087  -2.087  0.00  0.00    +0.106 A 
ATOM      2  C   UNL     1       2.054  -0.130  -2.927  0.00  0.00    +0.030 A 
ATOM      3  C   UNL     1       3.323  -0.271  -3.399  0.00  0.00    +0.030 A 
ATOM      4  C   UNL     1       4.078  -1.403  -3.044  0.00  0.00    +0.076 A 
ATOM      5  C   UNL     1       3.499  -2.377  -2.194  0.00  0.00    +0.015 A 
ATOM      6  C   UNL     1       2.192  -2.197  -1.723  0.00  0.00    +0.039 A 
ATOM      7  C   UNL     1       4.261  -3.519  -1.837  0.00  0.00    +0.052 A 
ATOM      8  C   UNL     1       5.547  -3.625  -2.343  0.00  0.00    +0.080 A 
ATOM      9  C   UNL     1       6.045  -2.618  -3.178  0.00  0.00    +0.214 A 
ATOM     10  N   UNL     1       5.324  -1.566  -3.498  0.00  0.00    -0.213 NA
ENDROOT
BRANCH   7  11
ATOM     11  C   UNL     1       3.701  -4.564  -0.951  0.00  0.00    +0.262 C 
ATOM     12  O   UNL     1       2.614  -4.402  -0.433  0.00  0.00    -0.269 OA
ATOM     13  N   UNL     1       4.396  -5.695  -0.720  0.00  0.00    -0.220 N 
ATOM     14  H   UNL     1       5.263  -5.824  -1.134  0.00  0.00    +0.174 HD
BRANCH  13  15
ATOM     15  N   UNL     1       3.865  -6.684   0.118  0.00  0.00    -0.137 N 
ATOM     16  C   UNL     1       3.339  -7.847  -0.319  0.00  0.00    +0.263 C 
ATOM     17  O   UNL     1       3.239  -8.221  -1.468  0.00  0.00    -0.271 OA
ATOM     18  C   UNL     1       2.901  -8.585   0.925  0.00  0.00    +0.114 C 
ATOM     19  C   UNL     1       3.655  -9.904   1.053  0.00  0.00    +0.035 C 
ATOM     20  C   UNL     1       3.218 -10.623   2.332  0.00  0.00    +0.003 C 
ATOM     21  C   UNL     1       1.710 -10.880   2.281  0.00  0.00    +0.000 C 
ATOM     22  C   UNL     1       0.968  -9.547   2.178  0.00  0.00    +0.003 C 
ATOM     23  C   UNL     1       1.395  -8.824   0.898  0.00  0.00    +0.035 C 
ATOM     24  N   UNL     1       3.260  -7.678   2.023  0.00  0.00    -0.284 N 
ATOM     25  C   UNL     1       3.823  -6.595   1.454  0.00  0.00    +0.326 C 
ATOM     26  O   UNL     1       4.243  -5.643   2.081  0.00  0.00    -0.251 OA
ATOM     27  H   UNL     1       3.122  -7.831   2.971  0.00  0.00    +0.151 HD
ENDBRANCH  13  15
ENDBRANCH   7  11
BRANCH   1  28
ATOM     28  S   UNL     1      -0.154  -0.864  -1.492  0.00  0.00    +0.061 S 
ATOM     29  O   UNL     1      -0.650  -2.157  -1.175  0.00  0.00    -0.153 OA
ATOM     30  O   UNL     1      -0.806  -0.003  -2.416  0.00  0.00    -0.153 OA
BRANCH  28  31
ATOM     31  N   UNL     1      -0.049  -0.033  -0.064  0.00  0.00    -0.177 NA
BRANCH  31  33
ATOM     32  C   UNL     1       1.348   1.975  -0.063  0.00  0.00    +0.022 C 
ATOM     33  C   UNL     1      -0.082   1.432  -0.065  0.00  0.00    +0.106 C 
ENDBRANCH  31  33
BRANCH  31  34
ATOM     34  C   UNL     1       0.077  -0.762   1.200  0.00  0.00    +0.106 C 
ATOM     35  C   UNL     1      -1.308  -0.939   1.827  0.00  0.00    +0.022 C 
ENDBRANCH  31  34
ENDBRANCH  28  31
ENDBRANCH   1  28
BRANCH   9  36
ATOM     36  O   UNL     1       7.304  -2.729  -3.668  0.00  0.00    -0.492 OA
ATOM     37  H   UNL     1       7.357  -3.191  -4.516  0.00  0.00    +0.294 HD
ENDBRANCH   9  36
TORSDOF 7
