REMARK  Name = ZINC04260333
REMARK  7 active torsions:
REMARK  status: ('A' for Active; 'I' for Inactive)
REMARK    1  A    between atoms: C_1  and  C_2
REMARK    2  A    between atoms: C_5  and  N_9
REMARK    3  A    between atoms: C_10  and  C_12
REMARK    4  A    between atoms: N_14  and  N_15
REMARK    5  A    between atoms: C_16  and  C_17
REMARK    6  A    between atoms: C_20  and  O_24
REMARK    7  A    between atoms: C_22  and  O_23
REMARK                            x       y       z     vdW  Elec       q    Type
REMARK                         _______ _______ _______ _____ _____    ______ ____
ROOT
ATOM      1  C   UNL     1       2.446   1.020   0.104  0.00  0.00    +0.318 C 
ATOM      2  O   UNL     1       2.504  -0.191   0.185  0.00  0.00    -0.263 OA
ATOM      3  N   UNL     1       3.578   1.751   0.103  0.00  0.00    -0.199 N 
ATOM      4  H   UNL     1       3.525   2.847   0.029  0.00  0.00    +0.178 HD
ENDROOT
BRANCH   1   6
ATOM      5  N   UNL     1      -0.011   0.966   0.007  0.00  0.00    -0.278 N 
ATOM      6  C   UNL     1       1.121   1.697   0.006  0.00  0.00    +0.305 C 
ATOM      7  O   UNL     1       1.062   2.907  -0.075  0.00  0.00    -0.265 OA
ATOM      8  H   UNL     1       0.043  -0.133   0.009  0.00  0.00    +0.155 HD
BRANCH   5  13
ATOM      9  C   UNL     1      -5.059   3.553   0.008  0.00  0.00    +0.045 C 
ATOM     10  C   UNL     1      -3.718   2.866   0.007  0.00  0.00    -0.032 A 
ATOM     11  C   UNL     1      -3.550   1.679   0.698  0.00  0.00    +0.006 A 
ATOM     12  C   UNL     1      -2.324   1.044   0.695  0.00  0.00    +0.023 A 
ATOM     13  C   UNL     1      -1.254   1.603   0.007  0.00  0.00    +0.035 A 
ATOM     14  C   UNL     1      -1.425   2.795  -0.685  0.00  0.00    +0.043 A 
ATOM     15  C   UNL     1      -2.656   3.424  -0.683  0.00  0.00    +0.046 A 
ATOM     16 CL   UNL     1      -2.871   4.914  -1.548  0.00  0.00    -0.083 Cl
ENDBRANCH   5  13
ENDBRANCH   1   6
BRANCH   3  17
ATOM     17  N   UNL     1       4.823   1.115   0.195  0.00  0.00    -0.187 NA
ATOM     18  C   UNL     1       5.915   1.820   0.194  0.00  0.00    +0.142 C 
BRANCH  18  19
ATOM     19  C   UNL     1       7.222   1.151   0.291  0.00  0.00    +0.036 A 
ATOM     20  C   UNL     1       8.399   1.907   0.290  0.00  0.00    +0.016 A 
ATOM     21  C   UNL     1       9.620   1.277   0.381  0.00  0.00    +0.046 A 
ATOM     22  C   UNL     1       9.688  -0.109   0.475  0.00  0.00    +0.120 A 
ATOM     23  C   UNL     1       8.527  -0.868   0.477  0.00  0.00    +0.091 A 
ATOM     24  C   UNL     1       7.293  -0.247   0.391  0.00  0.00    +0.129 A 
BRANCH  24  25
ATOM     25  O   UNL     1       6.156  -0.988   0.398  0.00  0.00    -0.506 OA
ATOM     26  H   UNL     1       6.213  -2.083   0.476  0.00  0.00    +0.292 HD
ENDBRANCH  24  25
BRANCH  22  27
ATOM     27  O   UNL     1      10.897  -0.722   0.565  0.00  0.00    -0.507 OA
ATOM     28  H   UNL     1      10.953  -1.818   0.640  0.00  0.00    +0.292 HD
ENDBRANCH  22  27
ENDBRANCH  18  19
ENDBRANCH   3  17
TORSDOF 6
