REMARK  Name = ZINC01873301
REMARK  9 active torsions:
REMARK  status: ('A' for Active; 'I' for Inactive)
REMARK    1  A    between atoms: C_1  and  C_2
REMARK    2  A    between atoms: C_3  and  C_10
REMARK    3  A    between atoms: C_4  and  N_9
REMARK    4  A    between atoms: C_13  and  O_17
REMARK    5  A    between atoms: O_17  and  C_18
REMARK    6  A    between atoms: C_18  and  C_19
REMARK    7  A    between atoms: C_23  and  C_25
REMARK    8  A    between atoms: N_27  and  C_28
REMARK    9  A    between atoms: N_27  and  C_29
REMARK                            x       y       z     vdW  Elec       q    Type
REMARK                         _______ _______ _______ _____ _____    ______ ____
ROOT
ATOM      1  C   UNL     1      -5.538   3.475   0.888  0.00  0.00    -0.011 A 
ATOM      2  C   UNL     1      -4.924   3.334  -0.355  0.00  0.00    +0.012 A 
ATOM      3  C   UNL     1      -3.667   2.774  -0.442  0.00  0.00    +0.048 A 
ATOM      4  C   UNL     1      -3.017   2.340   0.705  0.00  0.00    +0.139 A 
ATOM      5  C   UNL     1      -3.626   2.479   1.946  0.00  0.00    +0.083 A 
ATOM      6  C   UNL     1      -4.882   3.044   2.040  0.00  0.00    +0.032 A 
ATOM      7 CL   UNL     1      -2.807   1.942   3.379  0.00  0.00    -0.080 Cl
ENDROOT
BRANCH   1  10
ATOM      8  C   UNL     1      -5.953   6.271   0.164  0.00  0.00    +0.066 C 
ATOM      9  C   UNL     1      -7.098   5.416   0.642  0.00  0.00    +0.053 A 
ATOM     10  C   UNL     1      -6.888   4.082   0.986  0.00  0.00    +0.043 A 
ATOM     11  C   UNL     1      -7.990   3.325   1.422  0.00  0.00    +0.129 A 
ATOM     12  N   UNL     1      -9.180   3.910   1.499  0.00  0.00    -0.199 NA
ATOM     13  C   UNL     1      -9.333   5.182   1.161  0.00  0.00    +0.214 A 
ATOM     14  N   UNL     1      -8.317   5.922   0.742  0.00  0.00    -0.219 NA
ATOM     15  N   UNL     1     -10.589   5.754   1.250  0.00  0.00    -0.327 N 
ATOM     16  H   UNL     1     -10.717   6.684   1.006  0.00  0.00    +0.145 HD
ATOM     17  H   UNL     1     -11.343   5.225   1.555  0.00  0.00    +0.145 HD
BRANCH  11  18
ATOM     18  N   UNL     1      -7.837   1.994   1.770  0.00  0.00    -0.343 N 
ATOM     19  H   UNL     1      -6.963   1.576   1.714  0.00  0.00    +0.144 HD
ATOM     20  H   UNL     1      -8.603   1.480   2.070  0.00  0.00    +0.144 HD
ENDBRANCH  11  18
ENDBRANCH   1  10
BRANCH   4  21
ATOM     21  O   UNL     1      -1.780   1.784   0.615  0.00  0.00    -0.486 OA
BRANCH  21  22
ATOM     22  C   UNL     1      -1.212   1.672  -0.692  0.00  0.00    +0.264 C 
BRANCH  22  23
ATOM     23  C   UNL     1       0.151   1.038  -0.595  0.00  0.00    -0.010 A 
ATOM     24  C   UNL     1       0.279  -0.338  -0.673  0.00  0.00    +0.007 A 
ATOM     25  C   UNL     1       1.527  -0.928  -0.591  0.00  0.00    +0.001 A 
ATOM     26  C   UNL     1       2.654  -0.148  -0.430  0.00  0.00    +0.013 A 
ATOM     27  C   UNL     1       2.532   1.240  -0.350  0.00  0.00    +0.037 A 
ATOM     28  C   UNL     1       1.269   1.829  -0.434  0.00  0.00    +0.020 A 
BRANCH  27  29
ATOM     29  C   UNL     1       3.734   2.083  -0.179  0.00  0.00    +0.246 C 
ATOM     30  O   UNL     1       3.825   3.141  -0.770  0.00  0.00    -0.270 OA
ATOM     31  N   UNL     1       4.731   1.677   0.633  0.00  0.00    -0.304 N 
ATOM     32  C   UNL     1       5.873   2.558   0.887  0.00  0.00    +0.132 C 
ATOM     33  C   UNL     1       4.671   0.355   1.262  0.00  0.00    +0.132 C 
ENDBRANCH  27  29
ENDBRANCH  22  23
ENDBRANCH  21  22
ENDBRANCH   4  21
TORSDOF 6
