REMARK  Name = ZINC39675717
REMARK  12 active torsions:
REMARK  status: ('A' for Active; 'I' for Inactive)
REMARK    1  A    between atoms: C_1  and  C_2
REMARK    2  A    between atoms: C_2  and  C_3
REMARK    3  A    between atoms: C_3  and  C_4
REMARK    4  A    between atoms: C_3  and  C_6
REMARK    5  A    between atoms: C_4  and  C_5
REMARK    6  A    between atoms: C_10  and  C_19
REMARK    7  A    between atoms: N_21  and  C_22
REMARK    8  A    between atoms: C_22  and  C_23
REMARK    9  A    between atoms: C_23  and  C_25
REMARK   10  A    between atoms: C_23  and  N_31
REMARK   11  A    between atoms: N_31  and  C_32
REMARK   12  A    between atoms: N_31  and  C_33
REMARK                            x       y       z     vdW  Elec       q    Type
REMARK                         _______ _______ _______ _____ _____    ______ ____
ROOT
ATOM      1  C   UNL     1       0.272  -1.981  -1.405  0.00  0.00    +0.219 C 
ATOM      2  O   UNL     1       1.164  -2.795  -1.512  0.00  0.00    -0.275 OA
ATOM      3  N   UNL     1      -1.013  -2.388  -1.388  0.00  0.00    -0.300 N 
ATOM      4  C   UNL     1      -2.230  -1.550  -1.272  0.00  0.00    +0.121 C 
ATOM      5  C   UNL     1      -3.246  -2.201  -2.236  0.00  0.00    +0.100 C 
ATOM      6  C   UNL     1      -2.782  -3.661  -2.368  0.00  0.00    -0.004 C 
ATOM      7  C   UNL     1      -1.529  -3.774  -1.487  0.00  0.00    +0.115 C 
ATOM      8  C   UNL     1      -2.430  -3.975  -3.819  0.00  0.00    -0.010 C 
ATOM      9  C   UNL     1      -2.026  -5.447  -3.934  0.00  0.00    -0.082 C 
ATOM     10  N   UNL     1      -3.135  -6.297  -3.484  0.00  0.00    +0.379 N 
ATOM     11  C   UNL     1      -3.406  -6.056  -2.062  0.00  0.00    -0.082 C 
ATOM     12  C   UNL     1      -3.868  -4.609  -1.867  0.00  0.00    -0.010 C 
ATOM     13  H   UNL     1      -3.960  -6.085  -4.023  0.00  0.00    -0.086 HD
ATOM     14  H   UNL     1      -2.889  -7.267  -3.618  0.00  0.00    -0.086 HD
ENDROOT
BRANCH   5  15
ATOM     15  C   UNL     1      -3.212  -1.514  -3.577  0.00  0.00    +0.218 C 
ATOM     16  O   UNL     1      -2.167  -1.072  -4.005  0.00  0.00    -0.275 OA
ATOM     17  N   UNL     1      -4.343  -1.390  -4.300  0.00  0.00    -0.316 N 
ATOM     18  H   UNL     1      -5.179  -1.744  -3.957  0.00  0.00    +0.149 HD
BRANCH  17  19
ATOM     19  C   UNL     1      -4.310  -0.723  -5.603  0.00  0.00    +0.093 C 
BRANCH  19  20
ATOM     20  C   UNL     1      -5.732  -0.611  -6.155  0.00  0.00    -0.021 C 
BRANCH  20  21
ATOM     21  C   UNL     1      -6.286  -1.991  -6.399  0.00  0.00    -0.059 A 
ATOM     22  C   UNL     1      -5.930  -2.687  -7.539  0.00  0.00    +0.002 A 
ATOM     23  C   UNL     1      -6.438  -3.953  -7.764  0.00  0.00    +0.000 A 
ATOM     24  C   UNL     1      -7.302  -4.523  -6.848  0.00  0.00    +0.000 A 
ATOM     25  C   UNL     1      -7.658  -3.827  -5.707  0.00  0.00    +0.000 A 
ATOM     26  C   UNL     1      -7.146  -2.563  -5.481  0.00  0.00    +0.002 A 
ENDBRANCH  20  21
BRANCH  20  27
ATOM     27  N   UNL     1      -5.710   0.139  -7.418  0.00  0.00    +0.382 N 
ATOM     28  C   UNL     1      -7.084   0.324  -7.902  0.00  0.00    -0.096 C 
ATOM     29  C   UNL     1      -5.087   1.451  -7.198  0.00  0.00    -0.096 C 
ATOM     30  H   UNL     1      -5.178  -0.375  -8.105  0.00  0.00    -0.082 HD
ENDBRANCH  20  27
ENDBRANCH  19  20
ENDBRANCH  17  19
ENDBRANCH   5  15
BRANCH   1  31
ATOM     31  C   UNL     1       0.599  -0.515  -1.291  0.00  0.00    +0.075 C 
BRANCH  31  33
ATOM     32  C   UNL     1       0.275   1.541   0.092  0.00  0.00    +0.004 C 
ATOM     33  C   UNL     1       0.058   0.027   0.034  0.00  0.00    +0.009 C 
ENDBRANCH  31  33
BRANCH  31  34
ATOM     34  C   UNL     1       2.117  -0.326  -1.337  0.00  0.00    +0.009 C 
ATOM     35  C   UNL     1       2.637  -0.707  -2.724  0.00  0.00    +0.004 C 
ENDBRANCH  31  34
ENDBRANCH   1  31
TORSDOF 8
