REMARK  Name = ZINC44927850
REMARK  6 active torsions:
REMARK  status: ('A' for Active; 'I' for Inactive)
REMARK    1  A    between atoms: C_4  and  C_7
REMARK    2  A    between atoms: C_7  and  C_9
REMARK    3  A    between atoms: C_7  and  N_16
REMARK    4  A    between atoms: C_12  and  O_15
REMARK    5  A    between atoms: N_16  and  C_17
REMARK    6  A    between atoms: C_17  and  C_18
REMARK                            x       y       z     vdW  Elec       q    Type
REMARK                         _______ _______ _______ _____ _____    ______ ____
ROOT
ATOM      1  C   UNL     1       3.711  -0.707  -0.038  0.00  0.00    -0.009 C 
ENDROOT
BRANCH   1   5
ATOM      2  C   UNL     1      -0.017   1.378   0.010  0.00  0.00    +0.000 A 
ATOM      3  C   UNL     1       1.171   2.086   0.002  0.00  0.00    +0.000 A 
ATOM      4  C   UNL     1       2.377   1.411  -0.013  0.00  0.00    +0.002 A 
ATOM      5  C   UNL     1       2.396   0.029  -0.020  0.00  0.00    -0.057 A 
ATOM      6  C   UNL     1       1.208  -0.679  -0.012  0.00  0.00    +0.002 A 
ATOM      7  C   UNL     1       0.002  -0.004   0.002  0.00  0.00    +0.000 A 
ENDBRANCH   1   5
BRANCH   1   8
ATOM      8  C   UNL     1       4.014  -1.161  -1.442  0.00  0.00    -0.057 A 
ATOM      9  C   UNL     1       3.406  -2.295  -1.948  0.00  0.00    +0.006 A 
ATOM     10  C   UNL     1       3.683  -2.713  -3.235  0.00  0.00    +0.045 A 
ATOM     11  C   UNL     1       4.572  -1.994  -4.021  0.00  0.00    +0.117 A 
ATOM     12  C   UNL     1       5.180  -0.856  -3.511  0.00  0.00    +0.045 A 
ATOM     13  C   UNL     1       4.896  -0.439  -2.225  0.00  0.00    +0.006 A 
BRANCH  11  14
ATOM     14  O   UNL     1       4.846  -2.403  -5.287  0.00  0.00    -0.507 OA
ATOM     15  H   UNL     1       4.258  -2.029  -5.958  0.00  0.00    +0.292 HD
ENDBRANCH  11  14
ENDBRANCH   1   8
BRANCH   1  16
ATOM     16  N   UNL     1       3.630  -1.877   0.848  0.00  0.00    +0.391 N 
ATOM     17  H   UNL     1       2.845  -2.450   0.577  0.00  0.00    -0.084 HD
ATOM     18  H   UNL     1       4.480  -2.414   0.773  0.00  0.00    -0.084 HD
BRANCH  16  19
ATOM     19  C   UNL     1       3.454  -1.429   2.236  0.00  0.00    +0.000 C 
BRANCH  19  20
ATOM     20  C   UNL     1       3.370  -2.628   3.144  0.00  0.00    +0.160 A 
ATOM     21  N   UNL     1       2.271  -3.284   3.489  0.00  0.00    -0.113 NA
ATOM     22  N   UNL     1       2.620  -4.244   4.275  0.00  0.00    -0.021 NA
ATOM     23  N   UNL     1       3.898  -4.212   4.434  0.00  0.00    -0.021 NA
ATOM     24  N   UNL     1       4.382  -3.235   3.747  0.00  0.00    -0.113 NA
ENDBRANCH  19  20
ENDBRANCH  16  19
ENDBRANCH   1  16
TORSDOF 6
