REMARK  Name = ZINC21077786
REMARK  8 active torsions:
REMARK  status: ('A' for Active; 'I' for Inactive)
REMARK    1  A    between atoms: C_4  and  C_7
REMARK    2  A    between atoms: C_7  and  C_8
REMARK    3  A    between atoms: C_7  and  N_14
REMARK    4  A    between atoms: C_15  and  C_17
REMARK    5  A    between atoms: C_17  and  S_18
REMARK    6  A    between atoms: S_18  and  C_19
REMARK    7  A    between atoms: N_24  and  N_25
REMARK    8  A    between atoms: C_26  and  C_27
REMARK                            x       y       z     vdW  Elec       q    Type
REMARK                         _______ _______ _______ _____ _____    ______ ____
ROOT
ATOM      1  C   UNL     1       3.681  -1.926  -0.044  0.00  0.00    +0.173 C 
ENDROOT
BRANCH   1   3
ATOM      2  N   UNL     1       5.641  -3.435  -0.071  0.00  0.00    -0.304 N 
ATOM      3  C   UNL     1       4.300  -3.300  -0.057  0.00  0.00    +0.224 C 
ATOM      4  O   UNL     1       3.591  -4.284  -0.056  0.00  0.00    -0.275 OA
ATOM      5  H   UNL     1       6.284  -2.542  -0.072  0.00  0.00    +0.150 HD
BRANCH   2   6
ATOM      6  C   UNL     1       6.242  -4.771  -0.084  0.00  0.00    +0.134 C 
BRANCH   6  10
ATOM      7  C   UNL     1      10.139  -4.561  -1.822  0.00  0.00    +0.000 A 
ATOM      8  C   UNL     1       9.309  -5.627  -2.113  0.00  0.00    +0.000 A 
ATOM      9  C   UNL     1       8.048  -5.695  -1.551  0.00  0.00    +0.006 A 
ATOM     10  C   UNL     1       7.617  -4.697  -0.697  0.00  0.00    -0.023 A 
ATOM     11  C   UNL     1       8.445  -3.627  -0.410  0.00  0.00    +0.006 A 
ATOM     12  C   UNL     1       9.708  -3.562  -0.969  0.00  0.00    +0.000 A 
ENDBRANCH   6  10
BRANCH   6  13
ATOM     13  C   UNL     1       6.349  -5.288   1.327  0.00  0.00    -0.023 A 
ATOM     14  C   UNL     1       6.727  -4.436   2.349  0.00  0.00    +0.006 A 
ATOM     15  C   UNL     1       6.820  -4.909   3.644  0.00  0.00    +0.000 A 
ATOM     16  C   UNL     1       6.545  -6.236   3.917  0.00  0.00    +0.000 A 
ATOM     17  C   UNL     1       6.173  -7.089   2.895  0.00  0.00    +0.000 A 
ATOM     18  C   UNL     1       6.075  -6.615   1.600  0.00  0.00    +0.006 A 
ENDBRANCH   6  13
ENDBRANCH   2   6
ENDBRANCH   1   3
BRANCH   1  19
ATOM     19  S   UNL     1       1.874  -2.077  -0.028  0.00  0.00    -0.075 S 
BRANCH  19  20
ATOM     20  C   UNL     1       1.307  -0.409  -0.013  0.00  0.00    +0.211 A 
ATOM     21  N   UNL     1       0.002  -0.004   0.002  0.00  0.00    -0.186 NA
ATOM     22  C   UNL     1      -0.017   1.363   0.009  0.00  0.00    +0.232 A 
ATOM     23  N   UNL     1       1.225   1.785   0.000  0.00  0.00    -0.245 N 
ATOM     24  N   UNL     1       2.063   0.663  -0.014  0.00  0.00    -0.144 NA
ATOM     25  N   UNL     1      -1.150   2.163   0.019  0.00  0.00    -0.205 N 
ATOM     26  H   UNL     1      -2.149   1.702   0.022  0.00  0.00    +0.177 HD
ATOM     27  H   UNL     1       1.439   2.864   0.004  0.00  0.00    +0.192 HD
BRANCH  25  28
ATOM     28  N   UNL     1      -1.022   3.558   0.026  0.00  0.00    -0.188 NA
ATOM     29  C   UNL     1      -2.083   4.307   0.036  0.00  0.00    +0.139 C 
BRANCH  29  30
ATOM     30  C   UNL     1      -1.949   5.775   0.043  0.00  0.00    +0.013 A 
ATOM     31  C   UNL     1      -3.088   6.585   0.047  0.00  0.00    +0.011 A 
ATOM     32  C   UNL     1      -2.955   7.957   0.059  0.00  0.00    +0.001 A 
ATOM     33  C   UNL     1      -1.697   8.534   0.057  0.00  0.00    +0.001 A 
ATOM     34  C   UNL     1      -0.564   7.741   0.047  0.00  0.00    +0.020 A 
ATOM     35  C   UNL     1      -0.681   6.365   0.040  0.00  0.00    +0.050 A 
ATOM     36 CL   UNL     1       0.741   5.370   0.027  0.00  0.00    -0.083 Cl
ENDBRANCH  29  30
ENDBRANCH  25  28
ENDBRANCH  19  20
ENDBRANCH   1  19
TORSDOF 8
