REMARK  Name = ZINC38975440
REMARK  3 active torsions:
REMARK  status: ('A' for Active; 'I' for Inactive)
REMARK    1  A    between atoms: C_1  and  C_2
REMARK    2  A    between atoms: C_5  and  C_13
REMARK    3  A    between atoms: C_16  and  C_19
REMARK                            x       y       z     vdW  Elec       q    Type
REMARK                         _______ _______ _______ _____ _____    ______ ____
ROOT
ATOM      1  C   UNL     1      -0.018   1.503   0.010  0.00  0.00    +0.063 C 
ATOM      2  C   UNL     1       0.002  -0.004   0.002  0.00  0.00    +0.044 C 
ATOM      3  N   UNL     1       0.004  -0.556  -1.133  0.00  0.00    -0.189 NA
ATOM      4  N   UNL     1      -0.021  -1.929  -1.340  0.00  0.00    -0.207 N 
ATOM      5  C   UNL     1      -0.460  -2.687  -2.519  0.00  0.00    +0.206 C 
ATOM      6  N   UNL     1      -1.104  -3.889  -1.916  0.00  0.00    -0.231 NA
ATOM      7  N   UNL     1      -0.215  -4.225  -0.793  0.00  0.00    -0.225 NA
ATOM      8  C   UNL     1       0.323  -2.941  -0.313  0.00  0.00    +0.234 C 
ATOM      9  S   UNL     1      -0.539  -2.401   1.198  0.00  0.00    -0.114 S 
ATOM     10  C   UNL     1       0.024  -0.674   1.342  0.00  0.00    +0.124 C 
ATOM     11  H   UNL     1      -1.150  -4.647  -2.581  0.00  0.00    +0.143 HD
ATOM     12  H   UNL     1      -0.720  -4.702  -0.062  0.00  0.00    +0.143 HD
ENDROOT
BRANCH   5  13
ATOM     13  C   UNL     1      -1.468  -1.880  -3.339  0.00  0.00    +0.190 C 
ATOM     14  C   UNL     1      -1.969  -2.689  -4.522  0.00  0.00    +0.029 C 
ATOM     15  C   UNL     1      -1.583  -1.978  -5.584  0.00  0.00    +0.058 C 
ATOM     16  N   UNL     1      -0.924  -0.862  -5.201  0.00  0.00    -0.159 NA
ATOM     17  N   UNL     1      -0.815  -0.724  -3.976  0.00  0.00    -0.177 NA
ATOM     18  C   UNL     1      -1.846  -2.368  -7.016  0.00  0.00    +0.067 C 
ENDBRANCH   5  13
TORSDOF 1
