REMARK  Name = ZINC02890244
REMARK  6 active torsions:
REMARK  status: ('A' for Active; 'I' for Inactive)
REMARK    1  A    between atoms: C_1  and  C_2
REMARK    2  A    between atoms: C_5  and  N_8
REMARK    3  A    between atoms: C_12  and  N_16
REMARK    4  A    between atoms: N_16  and  N_17
REMARK    5  A    between atoms: C_18  and  C_20
REMARK    6  A    between atoms: C_25  and  N_26
REMARK                            x       y       z     vdW  Elec       q    Type
REMARK                         _______ _______ _______ _____ _____    ______ ____
ROOT
ATOM      1  N   UNL     1      -1.488  -5.979   2.241  0.00  0.00    -0.228 NA
ATOM      2  H   UNL     1      -1.874  -6.486   1.459  0.00  0.00    +0.145 HD
ENDROOT
BRANCH   1   7
ATOM      3  N   UNL     1      -0.781  -2.744   1.690  0.00  0.00    -0.209 N 
ATOM      4  C   UNL     1      -0.877  -3.131   0.412  0.00  0.00    +0.228 C 
ATOM      5  O   UNL     1      -1.091  -2.399  -0.529  0.00  0.00    -0.275 OA
ATOM      6  C   UNL     1      -0.676  -4.629   0.330  0.00  0.00    +0.126 C 
ATOM      7  C   UNL     1      -0.445  -5.044   1.797  0.00  0.00    +0.168 C 
ATOM      8  C   UNL     1      -0.534  -3.736   2.554  0.00  0.00    +0.245 C 
ATOM      9  O   UNL     1      -0.405  -3.608   3.752  0.00  0.00    -0.273 OA
BRANCH   3  14
ATOM     10  C   UNL     1      -1.352   2.667   3.308  0.00  0.00    +0.044 C 
ATOM     11  C   UNL     1      -1.200   1.230   2.879  0.00  0.00    -0.050 A 
ATOM     12  C   UNL     1       0.027   0.603   2.987  0.00  0.00    +0.005 A 
ATOM     13  C   UNL     1       0.169  -0.713   2.594  0.00  0.00    +0.024 A 
ATOM     14  C   UNL     1      -0.922  -1.407   2.090  0.00  0.00    +0.044 A 
ATOM     15  C   UNL     1      -2.154  -0.775   1.983  0.00  0.00    +0.024 A 
ATOM     16  C   UNL     1      -2.291   0.540   2.382  0.00  0.00    +0.005 A 
ENDBRANCH   3  14
ENDBRANCH   1   7
BRANCH   1  17
ATOM     17  N   UNL     1      -1.006  -6.834   3.191  0.00  0.00    -0.246 N 
ATOM     18  C   UNL     1      -1.814  -7.771   3.725  0.00  0.00    +0.259 C 
ATOM     19  O   UNL     1      -2.972  -7.855   3.361  0.00  0.00    -0.269 OA
ATOM     20  H   UNL     1      -0.083  -6.767   3.480  0.00  0.00    +0.169 HD
BRANCH  18  21
ATOM     21  C   UNL     1      -1.295  -8.695   4.750  0.00  0.00    +0.059 A 
ATOM     22  C   UNL     1      -0.006  -8.523   5.263  0.00  0.00    +0.015 A 
ATOM     23  C   UNL     1       0.473  -9.389   6.221  0.00  0.00    +0.001 A 
ATOM     24  C   UNL     1      -0.315 -10.432   6.679  0.00  0.00    +0.002 A 
ATOM     25  C   UNL     1      -1.589 -10.616   6.183  0.00  0.00    +0.023 A 
ATOM     26  C   UNL     1      -2.093  -9.748   5.221  0.00  0.00    +0.037 A 
BRANCH  26  27
ATOM     27  N   UNL     1      -3.377  -9.927   4.724  0.00  0.00    -0.357 N 
ATOM     28  H   UNL     1      -3.615  -9.569   3.855  0.00  0.00    +0.142 HD
ATOM     29  H   UNL     1      -4.037 -10.411   5.246  0.00  0.00    +0.142 HD
ENDBRANCH  26  27
ENDBRANCH  18  21
ENDBRANCH   1  17
TORSDOF 5
