REMARK  Name = ZINC09533382
REMARK  9 active torsions:
REMARK  status: ('A' for Active; 'I' for Inactive)
REMARK    1  A    between atoms: C_1  and  C_2
REMARK    2  A    between atoms: N_13  and  C_28
REMARK    3  A    between atoms: C_14  and  S_16
REMARK    4  A    between atoms: S_16  and  C_17
REMARK    5  A    between atoms: C_17  and  C_19
REMARK    6  A    between atoms: C_17  and  C_22
REMARK    7  A    between atoms: C_19  and  C_20
REMARK    8  A    between atoms: C_19  and  C_21
REMARK    9  A    between atoms: C_28  and  C_29
REMARK                            x       y       z     vdW  Elec       q    Type
REMARK                         _______ _______ _______ _____ _____    ______ ____
ROOT
ATOM      1  C   UNL     1       0.040   7.616  -1.765  0.00  0.00    +0.008 C 
ATOM      2  C   UNL     1       0.412   6.132  -1.749  0.00  0.00    -0.009 C 
ATOM      3  C   UNL     1       1.519   5.891  -0.718  0.00  0.00    +0.008 C 
ATOM      4  C   UNL     1       2.067   4.471  -0.867  0.00  0.00    +0.037 C 
ATOM      5  C   UNL     1       0.902   3.486  -0.827  0.00  0.00    -0.023 A 
ATOM      6  C   UNL     1      -0.360   3.902  -1.052  0.00  0.00    -0.004 A 
ATOM      7  S   UNL     1      -1.359   2.446  -0.901  0.00  0.00    -0.073 S 
ATOM      8  C   UNL     1      -0.073   1.276  -0.546  0.00  0.00    +0.117 A 
ATOM      9  C   UNL     1       1.092   2.061  -0.547  0.00  0.00    +0.076 A 
ATOM     10  C   UNL     1       2.313   1.366  -0.274  0.00  0.00    +0.264 A 
ATOM     11  O   UNL     1       3.374   1.966  -0.253  0.00  0.00    -0.267 OA
ATOM     12  N   UNL     1       2.273   0.041  -0.042  0.00  0.00    -0.280 N 
ATOM     13  C   UNL     1       1.095  -0.646  -0.061  0.00  0.00    +0.174 A 
ATOM     14  N   UNL     1      -0.044  -0.030  -0.309  0.00  0.00    -0.216 NA
ATOM     15  C   UNL     1      -0.815   5.297  -1.358  0.00  0.00    +0.046 C 
ENDROOT
BRANCH  13  16
ATOM     16  S   UNL     1       1.095  -2.381   0.249  0.00  0.00    -0.075 S 
BRANCH  16  17
ATOM     17  C   UNL     1      -0.679  -2.721   0.131  0.00  0.00    +0.143 C 
BRANCH  17  18
ATOM     18  C   UNL     1      -1.392  -2.078   1.292  0.00  0.00    +0.234 C 
ATOM     19  O   UNL     1      -0.774  -1.772   2.289  0.00  0.00    -0.274 OA
ATOM     20  N   UNL     1      -2.717  -1.842   1.222  0.00  0.00    -0.239 N 
ATOM     21  C   UNL     1      -3.355  -1.266   2.261  0.00  0.00    +0.303 C 
ATOM     22  O   UNL     1      -2.735  -0.960   3.260  0.00  0.00    -0.253 OA
ATOM     23  N   UNL     1      -4.680  -1.030   2.191  0.00  0.00    -0.313 N 
ATOM     24  H   UNL     1      -3.212  -2.086   0.424  0.00  0.00    +0.159 HD
ATOM     25  H   UNL     1      -5.175  -1.274   1.393  0.00  0.00    +0.146 HD
ATOM     26  H   UNL     1      -5.139  -0.616   2.938  0.00  0.00    +0.146 HD
ENDBRANCH  17  18
BRANCH  17  27
ATOM     27  C   UNL     1      -0.911  -4.233   0.165  0.00  0.00    +0.005 C 
ATOM     28  C   UNL     1      -0.301  -4.871  -1.085  0.00  0.00    +0.009 C 
ATOM     29  C   UNL     1      -0.251  -4.823   1.413  0.00  0.00    +0.009 C 
ENDBRANCH  17  27
ENDBRANCH  16  17
ENDBRANCH  13  16
BRANCH  12  30
ATOM     30  C   UNL     1       3.520  -0.676   0.238  0.00  0.00    +0.201 C 
BRANCH  30  31
ATOM     31  C   UNL     1       4.115  -1.172  -1.055  0.00  0.00    +0.125 A 
ATOM     32  C   UNL     1       4.981  -0.496  -1.832  0.00  0.00    +0.046 A 
ATOM     33  C   UNL     1       5.278  -1.330  -2.935  0.00  0.00    +0.041 A 
ATOM     34  C   UNL     1       4.569  -2.461  -2.770  0.00  0.00    +0.195 A 
ATOM     35  O   UNL     1       3.867  -2.360  -1.630  0.00  0.00    -0.466 OA
ENDBRANCH  30  31
ENDBRANCH  12  30
TORSDOF 6
