REMARK  Name = ZINC07132079
REMARK  10 active torsions:
REMARK  status: ('A' for Active; 'I' for Inactive)
REMARK    1  A    between atoms: C_1  and  C_2
REMARK    2  A    between atoms: C_2  and  C_3
REMARK    3  A    between atoms: C_2  and  C_4
REMARK    4  A    between atoms: C_4  and  C_5
REMARK    5  A    between atoms: C_4  and  C_6
REMARK    6  A    between atoms: C_4  and  N_8
REMARK    7  A    between atoms: C_9  and  C_11
REMARK    8  A    between atoms: C_11  and  N_12
REMARK    9  A    between atoms: C_15  and  C_19
REMARK   10  A    between atoms: C_15  and  C_20
REMARK                            x       y       z     vdW  Elec       q    Type
REMARK                         _______ _______ _______ _____ _____    ______ ____
ROOT
ATOM      1  N   UNL     1      -3.835   4.442  -1.822  0.00  0.00    -0.215 N 
ATOM      2  C   UNL     1      -2.736   4.943  -1.225  0.00  0.00    +0.251 C 
ATOM      3  O   UNL     1      -2.035   5.849  -1.623  0.00  0.00    -0.272 OA
ATOM      4  C   UNL     1      -2.558   4.140   0.048  0.00  0.00    +0.138 C 
ATOM      5  N   UNL     1      -3.684   3.190   0.018  0.00  0.00    -0.281 N 
ATOM      6  C   UNL     1      -4.371   3.444  -1.110  0.00  0.00    +0.310 C 
ATOM      7  O   UNL     1      -5.368   2.835  -1.446  0.00  0.00    -0.252 OA
ATOM      8  C   UNL     1      -2.651   5.046   1.278  0.00  0.00    +0.047 C 
ATOM      9  H   UNL     1      -3.889   2.514   0.682  0.00  0.00    +0.152 HD
ENDROOT
BRANCH   4  10
ATOM     10  C   UNL     1      -1.243   3.404   0.032  0.00  0.00    +0.022 A 
ATOM     11  C   UNL     1      -1.224   2.023   0.019  0.00  0.00    +0.047 A 
ATOM     12  C   UNL     1      -0.016   1.347   0.009  0.00  0.00    +0.124 A 
ATOM     13  C   UNL     1       1.173   2.055   0.002  0.00  0.00    +0.041 A 
ATOM     14  C   UNL     1       1.155   3.437   0.010  0.00  0.00    +0.041 A 
ATOM     15  C   UNL     1      -0.054   4.113   0.026  0.00  0.00    +0.129 A 
ATOM     16  F   UNL     1      -0.072   5.464   0.034  0.00  0.00    -0.205 F 
ATOM     17  F   UNL     1       0.002  -0.004   0.002  0.00  0.00    -0.205 F 
ENDBRANCH   4  10
BRANCH   1  18
ATOM     18  C   UNL     1      -4.376   4.930  -3.093  0.00  0.00    +0.213 C 
BRANCH  18  20
ATOM     19  N   UNL     1      -5.999   6.635  -3.853  0.00  0.00    -0.296 N 
ATOM     20  C   UNL     1      -5.369   6.032  -2.826  0.00  0.00    +0.232 C 
ATOM     21  O   UNL     1      -5.602   6.375  -1.686  0.00  0.00    -0.274 OA
ATOM     22  H   UNL     1      -5.813   6.360  -4.765  0.00  0.00    +0.150 HD
BRANCH  19  23
ATOM     23  C   UNL     1      -6.964   7.706  -3.594  0.00  0.00    +0.121 C 
ATOM     24  C   UNL     1      -6.267   8.854  -2.862  0.00  0.00    +0.048 C 
BRANCH  23  26
ATOM     25  C   UNL     1      -8.333   7.101  -5.595  0.00  0.00    +0.010 C 
ATOM     26  C   UNL     1      -7.530   8.216  -4.921  0.00  0.00    +0.020 C 
ATOM     27  C   UNL     1      -8.442   9.415  -4.659  0.00  0.00    +0.010 C 
ENDBRANCH  23  26
BRANCH  23  28
ATOM     28  C   UNL     1      -8.061   7.187  -2.760  0.00  0.00    +0.088 C 
ATOM     29  N   UNL     1      -8.907   6.786  -2.117  0.00  0.00    -0.194 NA
ENDBRANCH  23  28
ENDBRANCH  19  23
ENDBRANCH  18  20
ENDBRANCH   1  18
TORSDOF 6
