REMARK  Name = ZINC66244917
REMARK  7 active torsions:
REMARK  status: ('A' for Active; 'I' for Inactive)
REMARK    1  A    between atoms: C_1  and  C_2
REMARK    2  A    between atoms: C_4  and  C_14
REMARK    3  A    between atoms: C_8  and  C_13
REMARK    4  A    between atoms: C_9  and  C_12
REMARK    5  A    between atoms: C_14  and  N_15
REMARK    6  A    between atoms: N_17  and  C_18
REMARK    7  A    between atoms: C_18  and  C_19
REMARK                            x       y       z     vdW  Elec       q    Type
REMARK                         _______ _______ _______ _____ _____    ______ ____
ROOT
ATOM      1  C   UNL     1       0.026  -2.791  -2.557  0.00  0.00    +0.153 C 
ENDROOT
BRANCH   1   5
ATOM      2  C   UNL     1      -0.018   1.503   0.010  0.00  0.00    +0.044 C 
ATOM      3  C   UNL     1       0.002  -0.004   0.002  0.00  0.00    -0.049 A 
ATOM      4  C   UNL     1       0.006  -0.686  -1.207  0.00  0.00    +0.010 A 
ATOM      5  C   UNL     1       0.024  -2.063  -1.237  0.00  0.00    -0.004 A 
ATOM      6  C   UNL     1       0.039  -2.780  -0.045  0.00  0.00    +0.052 A 
ATOM      7  C   UNL     1       0.036  -2.084   1.178  0.00  0.00    +0.003 A 
ATOM      8  C   UNL     1       0.023  -0.688   1.185  0.00  0.00    +0.013 A 
ATOM      9  C   UNL     1       0.055  -3.107   2.226  0.00  0.00    -0.022 A 
ATOM     10  C   UNL     1       0.067  -4.300   1.610  0.00  0.00    +0.017 A 
ATOM     11  N   UNL     1       0.058  -4.124   0.253  0.00  0.00    -0.358 N 
ATOM     12  H   UNL     1       0.065  -4.840  -0.402  0.00  0.00    +0.166 HD
ATOM     13  C   UNL     1       0.088  -5.635   2.309  0.00  0.00    +0.063 C 
ATOM     14  C   UNL     1       0.059  -2.867   3.713  0.00  0.00    +0.046 C 
ENDBRANCH   1   5
BRANCH   1  15
ATOM     15  N   UNL     1      -1.329  -3.254  -2.862  0.00  0.00    -0.354 N 
ATOM     16  C   UNL     1      -1.574  -3.948  -4.023  0.00  0.00    +0.169 C 
ATOM     17  N   UNL     1      -2.780  -4.361  -4.294  0.00  0.00    -0.355 N 
ATOM     18  N   UNL     1      -0.546  -4.207  -4.898  0.00  0.00    -0.371 N 
ATOM     19  H   UNL     1      -2.055  -3.072  -2.244  0.00  0.00    +0.163 HD
ATOM     20  H   UNL     1       0.352  -3.900  -4.697  0.00  0.00    +0.159 HD
ATOM     21  H   UNL     1      -0.718  -4.697  -5.718  0.00  0.00    +0.159 HD
ATOM     22  H   UNL     1      -3.505  -4.178  -3.676  0.00  0.00    +0.162 HD
BRANCH  17  23
ATOM     23  C   UNL     1      -3.041  -5.101  -5.532  0.00  0.00    +0.147 C 
BRANCH  23  24
ATOM     24  C   UNL     1      -4.525  -5.465  -5.605  0.00  0.00    +0.137 C 
ATOM     25  C   UNL     1      -4.786  -6.348  -6.845  0.00  0.00    +0.035 C 
ATOM     26  C   UNL     1      -6.151  -5.807  -7.352  0.00  0.00    +0.031 C 
ATOM     27  C   UNL     1      -6.024  -4.305  -6.994  0.00  0.00    +0.160 C 
ATOM     28  O   UNL     1      -5.311  -4.276  -5.745  0.00  0.00    -0.375 OA
ENDBRANCH  23  24
ENDBRANCH  17  23
ENDBRANCH   1  15
TORSDOF 4
