REMARK  Name = ZINC00241701
REMARK  5 active torsions:
REMARK  status: ('A' for Active; 'I' for Inactive)
REMARK    1  A    between atoms: C_1  and  C_2
REMARK    2  A    between atoms: C_7  and  C_15
REMARK    3  A    between atoms: C_9  and  C_13
REMARK    4  A    between atoms: C_10  and  N_12
REMARK    5  A    between atoms: C_19  and  C_21
REMARK                            x       y       z     vdW  Elec       q    Type
REMARK                         _______ _______ _______ _____ _____    ______ ____
ROOT
ATOM      1  C   UNL     1      -0.737   1.583   1.260  0.00  0.00    +0.008 C 
ATOM      2  C   UNL     1      -0.013   1.086   0.008  0.00  0.00    +0.001 C 
ATOM      3  C   UNL     1       1.421   1.619  -0.003  0.00  0.00    +0.078 C 
ATOM      4  C   UNL     1       2.126   1.156  -1.256  0.00  0.00    +0.115 C 
ATOM      5  C   UNL     1       1.440   0.966  -2.398  0.00  0.00    +0.046 C 
ATOM      6  C   UNL     1       2.148   0.515  -3.653  0.00  0.00    +0.101 C 
ATOM      7  C   UNL     1       3.626   0.763  -3.530  0.00  0.00    +0.098 C 
ATOM      8  C   UNL     1       4.189   0.962  -2.314  0.00  0.00    +0.198 C 
ATOM      9  O   UNL     1       3.453   0.939  -1.191  0.00  0.00    -0.445 OA
ATOM     10  C   UNL     1       0.049   1.175  -2.460  0.00  0.00    +0.164 C 
ATOM     11  O   UNL     1      -0.532   1.010  -3.514  0.00  0.00    -0.292 OA
ATOM     12  C   UNL     1      -0.731   1.598  -1.245  0.00  0.00    +0.083 C 
ENDROOT
BRANCH   6  13
ATOM     13  C   UNL     1       1.904  -0.957  -3.860  0.00  0.00    -0.034 A 
ATOM     14  C   UNL     1       2.323  -1.868  -2.908  0.00  0.00    +0.004 A 
ATOM     15  C   UNL     1       2.096  -3.218  -3.096  0.00  0.00    +0.001 A 
ATOM     16  C   UNL     1       1.456  -3.659  -4.240  0.00  0.00    +0.012 A 
ATOM     17  C   UNL     1       1.041  -2.749  -5.194  0.00  0.00    +0.055 A 
ATOM     18  C   UNL     1       1.266  -1.398  -5.004  0.00  0.00    +0.017 A 
BRANCH  17  19
ATOM     19  C   UNL     1       0.345  -3.229  -6.441  0.00  0.00    +0.417 C 
ATOM     20  F   UNL     1       1.294  -3.486  -7.436  0.00  0.00    -0.166 F 
ATOM     21  F   UNL     1      -0.362  -4.403  -6.157  0.00  0.00    -0.166 F 
ATOM     22  F   UNL     1      -0.545  -2.246  -6.886  0.00  0.00    -0.166 F 
ENDBRANCH  17  19
ENDBRANCH   6  13
BRANCH   8  23
ATOM     23  N   UNL     1       5.539   1.190  -2.227  0.00  0.00    -0.328 N 
ATOM     24  H   UNL     1       5.953   1.333  -1.361  0.00  0.00    +0.145 HD
ATOM     25  H   UNL     1       6.081   1.208  -3.032  0.00  0.00    +0.145 HD
ENDBRANCH   8  23
BRANCH   7  26
ATOM     26  C   UNL     1       4.443   0.790  -4.706  0.00  0.00    +0.101 C 
ATOM     27  N   UNL     1       5.092   0.811  -5.638  0.00  0.00    -0.191 NA
ENDBRANCH   7  26
TORSDOF 4
