REMARK  Name = ZINC63448317
REMARK  10 active torsions:
REMARK  status: ('A' for Active; 'I' for Inactive)
REMARK    1  A    between atoms: C_1  and  C_2
REMARK    2  A    between atoms: C_4  and  N_8
REMARK    3  A    between atoms: C_9  and  C_11
REMARK    4  A    between atoms: C_11  and  N_12
REMARK    5  A    between atoms: N_21  and  C_24
REMARK    6  A    between atoms: C_24  and  C_25
REMARK    7  A    between atoms: C_25  and  C_26
REMARK    8  A    between atoms: N_28  and  C_29
REMARK    9  A    between atoms: C_29  and  C_30
REMARK   10  A    between atoms: C_30  and  C_31
REMARK                            x       y       z     vdW  Elec       q    Type
REMARK                         _______ _______ _______ _____ _____    ______ ____
ROOT
ATOM      1  N   UNL     1      -2.300  -6.252  -1.997  0.00  0.00    -0.284 N 
ATOM      2  C   UNL     1      -1.387  -7.297  -1.971  0.00  0.00    +0.059 A 
ATOM      3  C   UNL     1      -0.051  -7.102  -2.283  0.00  0.00    +0.027 A 
ATOM      4  C   UNL     1       0.824  -8.169  -2.245  0.00  0.00    +0.002 A 
ATOM      5  C   UNL     1       0.380  -9.436  -1.899  0.00  0.00    +0.001 A 
ATOM      6  C   UNL     1      -0.946  -9.649  -1.585  0.00  0.00    +0.015 A 
ATOM      7  C   UNL     1      -1.839  -8.581  -1.619  0.00  0.00    +0.063 A 
ATOM      8  C   UNL     1      -3.266  -8.753  -1.293  0.00  0.00    +0.264 A 
ATOM      9  O   UNL     1      -3.708  -9.842  -0.982  0.00  0.00    -0.267 OA
ATOM     10  N   UNL     1      -4.071  -7.669  -1.349  0.00  0.00    -0.260 N 
ATOM     11  C   UNL     1      -3.591  -6.462  -1.686  0.00  0.00    +0.333 A 
ATOM     12  O   UNL     1      -4.357  -5.519  -1.716  0.00  0.00    -0.246 OA
ENDROOT
BRANCH   1  13
ATOM     13  C   UNL     1      -1.851  -4.906  -2.361  0.00  0.00    +0.222 C 
BRANCH  13  15
ATOM     14  N   UNL     1      -0.957  -2.905  -1.213  0.00  0.00    -0.288 N 
ATOM     15  C   UNL     1      -1.413  -4.170  -1.120  0.00  0.00    +0.235 C 
ATOM     16  O   UNL     1      -1.470  -4.717  -0.039  0.00  0.00    -0.274 OA
ATOM     17  H   UNL     1      -0.911  -2.468  -2.078  0.00  0.00    +0.151 HD
BRANCH  14  21
ATOM     18  C   UNL     1      -0.018   1.503   0.010  0.00  0.00    +0.067 C 
ATOM     19  C   UNL     1       0.002  -0.004   0.002  0.00  0.00    +0.060 C 
ATOM     20  C   UNL     1      -1.086  -0.777   0.003  0.00  0.00    +0.045 C 
ATOM     21  C   UNL     1      -0.531  -2.190  -0.007  0.00  0.00    +0.239 C 
ATOM     22  N   UNL     1       0.926  -1.973  -0.013  0.00  0.00    -0.160 NA
ATOM     23  N   UNL     1       1.125  -0.756  -0.013  0.00  0.00    -0.157 NA
ENDBRANCH  14  21
ENDBRANCH  13  15
ENDBRANCH   1  13
BRANCH  10  24
ATOM     24  C   UNL     1      -5.493  -7.813  -1.031  0.00  0.00    +0.139 C 
BRANCH  24  25
ATOM     25  C   UNL     1      -5.707  -7.582   0.467  0.00  0.00    +0.117 C 
BRANCH  25  26
ATOM     26  C   UNL     1      -7.170  -7.731   0.794  0.00  0.00    +0.215 C 
ATOM     27  O   UNL     1      -7.964  -7.995  -0.083  0.00  0.00    -0.276 OA
ATOM     28  N   UNL     1      -7.597  -7.570   2.063  0.00  0.00    -0.315 N 
ATOM     29  H   UNL     1      -6.961  -7.359   2.765  0.00  0.00    +0.149 HD
BRANCH  28  30
ATOM     30  C   UNL     1      -9.019  -7.714   2.381  0.00  0.00    +0.109 C 
BRANCH  30  31
ATOM     31  C   UNL     1      -9.233  -7.483   3.879  0.00  0.00    +0.054 C 
BRANCH  31  32
ATOM     32  C   UNL     1     -10.696  -7.631   4.206  0.00  0.00    -0.046 A 
ATOM     33  C   UNL     1     -11.532  -6.532   4.147  0.00  0.00    +0.005 A 
ATOM     34  C   UNL     1     -12.874  -6.667   4.448  0.00  0.00    +0.020 A 
ATOM     35  C   UNL     1     -13.382  -7.903   4.807  0.00  0.00    +0.041 A 
ATOM     36  C   UNL     1     -12.544  -9.003   4.865  0.00  0.00    +0.020 A 
ATOM     37  C   UNL     1     -11.203  -8.868   4.559  0.00  0.00    +0.005 A 
ATOM     38 CL   UNL     1     -15.067  -8.073   5.185  0.00  0.00    -0.084 Cl
ENDBRANCH  31  32
ENDBRANCH  30  31
ENDBRANCH  28  30
ENDBRANCH  25  26
ENDBRANCH  24  25
ENDBRANCH  10  24
TORSDOF 9
