REMARK  Name = ZINC23104724
REMARK  7 active torsions:
REMARK  status: ('A' for Active; 'I' for Inactive)
REMARK    1  A    between atoms: C_1  and  C_2
REMARK    2  A    between atoms: C_11  and  O_13
REMARK    3  A    between atoms: O_13  and  C_14
REMARK    4  A    between atoms: C_14  and  C_15
REMARK    5  A    between atoms: N_17  and  C_18
REMARK    6  A    between atoms: C_21  and  S_25
REMARK    7  A    between atoms: S_25  and  N_28
REMARK                            x       y       z     vdW  Elec       q    Type
REMARK                         _______ _______ _______ _____ _____    ______ ____
ROOT
ATOM      1  C   UNL     1       2.368   5.180  -0.393  0.00  0.00    +0.255 C 
ATOM      2  O   UNL     1       1.327   5.744  -0.653  0.00  0.00    -0.272 OA
ATOM      3  N   UNL     1       2.357   3.891  -0.001  0.00  0.00    -0.280 N 
ATOM      4  H   UNL     1       3.292   3.404   0.314  0.00  0.00    +0.155 HD
ENDROOT
BRANCH   3   5
ATOM      5  C   UNL     1       1.156   3.171   0.007  0.00  0.00    +0.071 A 
ATOM      6  C   UNL     1       0.748   2.485  -1.130  0.00  0.00    +0.065 A 
ATOM      7  C   UNL     1      -0.438   1.776  -1.119  0.00  0.00    +0.050 A 
ATOM      8  C   UNL     1      -1.222   1.754   0.019  0.00  0.00    +0.108 A 
ATOM      9  C   UNL     1      -0.818   2.432   1.155  0.00  0.00    +0.050 A 
ATOM     10  C   UNL     1       0.368   3.143   1.151  0.00  0.00    +0.065 A 
ATOM     11 CL   UNL     1       0.873   3.999   2.575  0.00  0.00    -0.082 Cl
ATOM     12 CL   UNL     1       1.728   2.517  -2.563  0.00  0.00    -0.082 Cl
BRANCH   8  13
ATOM     13  S   UNL     1      -2.738   0.856   0.026  0.00  0.00    +0.056 S 
ATOM     14  O   UNL     1      -3.552   1.441   1.033  0.00  0.00    -0.153 OA
ATOM     15  O   UNL     1      -3.156   0.754  -1.328  0.00  0.00    -0.153 OA
BRANCH  13  16
ATOM     16  N   UNL     1      -2.393  -0.683   0.531  0.00  0.00    -0.204 NA
ATOM     17  H   UNL     1      -3.317  -1.279   0.550  0.00  0.00    +0.144 HD
ATOM     18  H   UNL     1      -1.959  -0.648   1.542  0.00  0.00    +0.144 HD
ENDBRANCH  13  16
ENDBRANCH   8  13
ENDBRANCH   3   5
BRANCH   1  19
ATOM     19  C   UNL     1       3.676   5.921  -0.510  0.00  0.00    +0.325 C 
BRANCH  19  20
ATOM     20  O   UNL     1       3.427   7.261  -0.940  0.00  0.00    -0.481 OA
BRANCH  20  31
ATOM     21  C   UNL     1       7.721  12.021  -2.034  0.00  0.00    +0.045 C 
ATOM     22  C   UNL     1       7.869  10.590  -1.585  0.00  0.00    -0.033 A 
ATOM     23  C   UNL     1       9.093  10.064  -1.322  0.00  0.00    +0.096 A 
ATOM     24  C   UNL     1       9.205   8.723  -0.903  0.00  0.00    +0.337 A 
ATOM     25  O   UNL     1      10.309   8.264  -0.669  0.00  0.00    -0.245 OA
ATOM     26  O   UNL     1       8.126   7.939  -0.753  0.00  0.00    -0.422 OA
ATOM     27  C   UNL     1       6.880   8.399  -0.999  0.00  0.00    +0.143 A 
ATOM     28  C   UNL     1       6.696   9.729  -1.421  0.00  0.00    +0.022 A 
ATOM     29  C   UNL     1       5.407  10.211  -1.676  0.00  0.00    +0.035 A 
ATOM     30  C   UNL     1       4.330   9.385  -1.519  0.00  0.00    +0.083 A 
ATOM     31  C   UNL     1       4.507   8.068  -1.096  0.00  0.00    +0.143 A 
ATOM     32  C   UNL     1       5.776   7.576  -0.840  0.00  0.00    +0.094 A 
ATOM     33 CL   UNL     1       2.732   9.980  -1.843  0.00  0.00    -0.080 Cl
ENDBRANCH  20  31
ENDBRANCH  19  20
ENDBRANCH   1  19
TORSDOF 6
