REMARK  Name = ZINC14045129
REMARK  7 active torsions:
REMARK  status: ('A' for Active; 'I' for Inactive)
REMARK    1  A    between atoms: C_4  and  C_7
REMARK    2  A    between atoms: C_12  and  O_13
REMARK    3  A    between atoms: O_13  and  C_14
REMARK    4  A    between atoms: C_14  and  C_15
REMARK    5  A    between atoms: N_17  and  N_18
REMARK    6  A    between atoms: C_19  and  C_21
REMARK    7  A    between atoms: C_21  and  N_22
REMARK                            x       y       z     vdW  Elec       q    Type
REMARK                         _______ _______ _______ _____ _____    ______ ____
ROOT
ATOM      1  C   UNL     1      -0.509   9.070  -3.180  0.00  0.00    +0.267 C 
ATOM      2  O   UNL     1      -0.560   9.851  -2.253  0.00  0.00    -0.271 OA
ATOM      3  N   UNL     1      -0.407   7.747  -2.942  0.00  0.00    -0.232 N 
ATOM      4  H   UNL     1      -0.366   7.122  -3.683  0.00  0.00    +0.173 HD
ENDROOT
BRANCH   3   5
ATOM      5  N   UNL     1      -0.360   7.274  -1.624  0.00  0.00    -0.233 N 
ATOM      6  C   UNL     1      -0.258   5.952  -1.385  0.00  0.00    +0.249 C 
ATOM      7  O   UNL     1      -0.207   5.171  -2.312  0.00  0.00    -0.272 OA
ATOM      8  H   UNL     1      -0.400   7.899  -0.883  0.00  0.00    +0.173 HD
BRANCH   6   9
ATOM      9  C   UNL     1      -0.207   5.443   0.032  0.00  0.00    +0.224 C 
BRANCH   9  10
ATOM     10  N   UNL     1      -0.097   3.982   0.023  0.00  0.00    -0.285 N 
ATOM     11  C   UNL     1       1.157   3.388   0.009  0.00  0.00    +0.059 A 
ATOM     12  C   UNL     1       2.319   4.144   0.002  0.00  0.00    +0.027 A 
ATOM     13  C   UNL     1       3.547   3.513  -0.012  0.00  0.00    +0.002 A 
ATOM     14  C   UNL     1       3.631   2.129  -0.019  0.00  0.00    +0.001 A 
ATOM     15  C   UNL     1       2.485   1.361  -0.013  0.00  0.00    +0.015 A 
ATOM     16  C   UNL     1       1.240   1.985   0.001  0.00  0.00    +0.063 A 
ATOM     17  C   UNL     1      -0.014   1.212   0.009  0.00  0.00    +0.262 A 
ATOM     18  O   UNL     1       0.002  -0.004   0.002  0.00  0.00    -0.267 OA
ATOM     19  N   UNL     1      -1.183   1.889   0.018  0.00  0.00    -0.274 N 
ATOM     20  H   UNL     1      -2.044   1.380   0.015  0.00  0.00    +0.173 HD
ATOM     21  C   UNL     1      -1.211   3.231   0.030  0.00  0.00    +0.330 A 
ATOM     22  O   UNL     1      -2.290   3.790   0.043  0.00  0.00    -0.246 OA
ENDBRANCH   9  10
ENDBRANCH   6   9
ENDBRANCH   3   5
BRANCH   1  23
ATOM     23  C   UNL     1      -0.560   9.578  -4.598  0.00  0.00    +0.326 C 
BRANCH  23  24
ATOM     24  O   UNL     1      -0.667  11.003  -4.589  0.00  0.00    -0.482 OA
BRANCH  24  30
ATOM     25  C   UNL     1      -0.837  13.016  -5.863  0.00  0.00    +0.024 A 
ATOM     26  C   UNL     1      -0.891  13.645  -7.105  0.00  0.00    +0.012 A 
ATOM     27  C   UNL     1      -0.844  12.892  -8.261  0.00  0.00    +0.001 A 
ATOM     28  C   UNL     1      -0.739  11.514  -8.191  0.00  0.00    +0.004 A 
ATOM     29  C   UNL     1      -0.679  10.880  -6.964  0.00  0.00    +0.046 A 
ATOM     30  C   UNL     1      -0.725  11.624  -5.796  0.00  0.00    +0.129 A 
BRANCH  25  34
ATOM     31  C   UNL     1      -0.996  15.322  -2.294  0.00  0.00    +0.000 A 
ATOM     32  C   UNL     1      -0.109  15.666  -3.298  0.00  0.00    +0.001 A 
ATOM     33  C   UNL     1      -0.053  14.921  -4.458  0.00  0.00    +0.008 A 
ATOM     34  C   UNL     1      -0.892  13.821  -4.618  0.00  0.00    -0.014 A 
ATOM     35  C   UNL     1      -1.788  13.482  -3.606  0.00  0.00    +0.008 A 
ATOM     36  C   UNL     1      -1.831  14.230  -2.447  0.00  0.00    +0.001 A 
ENDBRANCH  25  34
ENDBRANCH  24  30
ENDBRANCH  23  24
ENDBRANCH   1  23
TORSDOF 7
