REMARK  Name = ZINC40215878
REMARK  6 active torsions:
REMARK  status: ('A' for Active; 'I' for Inactive)
REMARK    1  A    between atoms: C_1  and  C_2
REMARK    2  A    between atoms: C_6  and  C_7
REMARK    3  A    between atoms: N_9  and  C_10
REMARK    4  A    between atoms: C_10  and  C_11
REMARK    5  A    between atoms: C_14  and  S_16
REMARK    6  A    between atoms: S_16  and  N_19
REMARK                            x       y       z     vdW  Elec       q    Type
REMARK                         _______ _______ _______ _____ _____    ______ ____
ROOT
ATOM      1  C   UNL     1       0.060  -0.883   4.882  0.00  0.00    +0.147 C 
ENDROOT
BRANCH   1   2
ATOM      2  C   UNL     1       0.085  -2.094   5.779  0.00  0.00    +0.009 A 
ATOM      3  C   UNL     1       1.152  -2.762   6.281  0.00  0.00    +0.015 A 
ATOM      4  C   UNL     1       0.934  -3.859   7.093  0.00  0.00    +0.036 A 
ATOM      5  C   UNL     1      -0.340  -4.235   7.363  0.00  0.00    +0.142 A 
ATOM      6  S   UNL     1      -1.283  -3.016   6.462  0.00  0.00    -0.072 S 
BRANCH   5   7
ATOM      7  S   UNL     1      -0.916  -5.574   8.352  0.00  0.00    +0.062 S 
ATOM      8  O   UNL     1      -2.223  -5.887   7.890  0.00  0.00    -0.153 OA
ATOM      9  O   UNL     1       0.131  -6.534   8.385  0.00  0.00    -0.153 OA
BRANCH   7  10
ATOM     10  N   UNL     1      -1.085  -5.004   9.898  0.00  0.00    -0.203 NA
ATOM     11  H   UNL     1      -0.873  -4.079  10.100  0.00  0.00    +0.144 HD
ATOM     12  H   UNL     1      -1.396  -5.595  10.601  0.00  0.00    +0.144 HD
ENDBRANCH   7  10
ENDBRANCH   5   7
ENDBRANCH   1   2
BRANCH   1  15
ATOM     13  C   UNL     1       0.031  -0.395   2.495  0.00  0.00    +0.280 C 
ATOM     14  O   UNL     1       0.018   0.791   2.768  0.00  0.00    -0.267 OA
ATOM     15  N   UNL     1       0.053  -1.313   3.482  0.00  0.00    -0.304 N 
ATOM     16  H   UNL     1       0.064  -2.258   3.264  0.00  0.00    +0.149 HD
BRANCH  13  22
ATOM     17  C   UNL     1      -0.018   1.503   0.010  0.00  0.00    +0.048 C 
ATOM     18  C   UNL     1       0.002  -0.004   0.002  0.00  0.00    -0.000 A 
ATOM     19  C   UNL     1       0.009  -0.836  -1.129  0.00  0.00    +0.045 A 
ATOM     20  C   UNL     1       0.029  -2.111  -0.684  0.00  0.00    +0.196 A 
ATOM     21  O   UNL     1       0.035  -2.101   0.655  0.00  0.00    -0.458 OA
ATOM     22  C   UNL     1       0.024  -0.825   1.093  0.00  0.00    +0.192 A 
ENDBRANCH  13  22
ENDBRANCH   1  15
TORSDOF 5
