REMARK  Name = ZINC64227828
REMARK  6 active torsions:
REMARK  status: ('A' for Active; 'I' for Inactive)
REMARK    1  A    between atoms: C_8  and  C_12
REMARK    2  A    between atoms: N_14  and  C_15
REMARK    3  A    between atoms: C_15  and  C_17
REMARK    4  A    between atoms: C_15  and  C_27
REMARK    5  A    between atoms: C_17  and  C_18
REMARK    6  A    between atoms: N_29  and  C_30
REMARK                            x       y       z     vdW  Elec       q    Type
REMARK                         _______ _______ _______ _____ _____    ______ ____
ROOT
ATOM      1  C   UNL     1       2.046  -6.516  -0.868  0.00  0.00    +0.163 C 
ENDROOT
BRANCH   1   4
ATOM      2  C   UNL     1       2.583  -4.232  -0.208  0.00  0.00    +0.231 C 
ATOM      3  O   UNL     1       3.136  -4.677   0.775  0.00  0.00    -0.274 OA
ATOM      4  N   UNL     1       2.005  -5.069  -1.093  0.00  0.00    -0.302 N 
ATOM      5  H   UNL     1       1.562  -4.713  -1.879  0.00  0.00    +0.150 HD
BRANCH   2  13
ATOM      6  C   UNL     1      -0.017   1.376   0.010  0.00  0.00    +0.000 A 
ATOM      7  C   UNL     1       1.173   2.080   0.002  0.00  0.00    +0.000 A 
ATOM      8  C   UNL     1       2.374   1.400  -0.015  0.00  0.00    +0.005 A 
ATOM      9  C   UNL     1       2.395   0.013  -0.024  0.00  0.00    -0.030 A 
ATOM     10  C   UNL     1       1.208  -0.688  -0.012  0.00  0.00    -0.041 A 
ATOM     11  C   UNL     1       0.002  -0.004   0.002  0.00  0.00    +0.004 A 
ATOM     12  C   UNL     1       1.180  -2.195  -0.009  0.00  0.00    +0.063 C 
ATOM     13  C   UNL     1       2.541  -2.744  -0.440  0.00  0.00    +0.145 C 
ATOM     14  N   UNL     1       3.585  -2.085   0.361  0.00  0.00    -0.301 NA
ATOM     15  C   UNL     1       3.730  -0.684  -0.048  0.00  0.00    +0.117 C 
ATOM     16  H   UNL     1       3.382  -2.155   1.347  0.00  0.00    +0.123 HD
ENDBRANCH   2  13
ENDBRANCH   1   4
BRANCH   1  17
ATOM     17  C   UNL     1       3.340  -7.072  -1.405  0.00  0.00    +0.234 C 
ATOM     18  O   UNL     1       4.147  -6.332  -1.926  0.00  0.00    -0.274 OA
ATOM     19  N   UNL     1       3.599  -8.391  -1.308  0.00  0.00    -0.311 N 
ATOM     20  H   UNL     1       2.952  -8.982  -0.892  0.00  0.00    +0.149 HD
BRANCH  19  21
ATOM     21  C   UNL     1       4.856  -8.931  -1.831  0.00  0.00    +0.073 C 
ATOM     22  C   UNL     1       4.696  -9.294  -3.322  0.00  0.00    +0.022 C 
ATOM     23  C   UNL     1       5.533 -10.586  -3.490  0.00  0.00    +0.002 C 
ATOM     24  C   UNL     1       5.260 -11.345  -2.168  0.00  0.00    +0.002 C 
ATOM     25  C   UNL     1       5.215 -10.235  -1.097  0.00  0.00    +0.022 C 
ENDBRANCH  19  21
ENDBRANCH   1  17
BRANCH   1  26
ATOM     26  C   UNL     1       0.869  -7.178  -1.586  0.00  0.00    +0.065 C 
BRANCH  26  27
ATOM     27  C   UNL     1      -0.424  -6.714  -0.965  0.00  0.00    -0.039 C 
ATOM     28  C   UNL     1      -1.211  -5.698  -1.388  0.00  0.00    -0.001 A 
ATOM     29  C   UNL     1      -1.103  -4.757  -2.509  0.00  0.00    +0.010 A 
ATOM     30  C   UNL     1      -2.069  -3.827  -2.680  0.00  0.00    +0.001 A 
ATOM     31  C   UNL     1      -3.169  -3.740  -1.816  0.00  0.00    +0.002 A 
ATOM     32  C   UNL     1      -3.338  -4.569  -0.764  0.00  0.00    +0.026 A 
ATOM     33  C   UNL     1      -2.382  -5.585  -0.490  0.00  0.00    +0.043 A 
ATOM     34  N   UNL     1      -2.322  -6.496   0.452  0.00  0.00    -0.380 N 
ATOM     35  C   UNL     1      -1.107  -7.294   0.253  0.00  0.00    +0.144 C 
ATOM     36  H   UNL     1      -2.973  -6.623   1.159  0.00  0.00    +0.160 HD
ENDBRANCH  26  27
ENDBRANCH   1  26
TORSDOF 6
