REMARK  Name = ZINC67237555
REMARK  10 active torsions:
REMARK  status: ('A' for Active; 'I' for Inactive)
REMARK    1  A    between atoms: C_1  and  N_2
REMARK    2  A    between atoms: N_2  and  C_3
REMARK    3  A    between atoms: N_2  and  C_24
REMARK    4  A    between atoms: C_3  and  C_4
REMARK    5  A    between atoms: C_4  and  N_5
REMARK    6  A    between atoms: C_6  and  C_8
REMARK    7  A    between atoms: C_8  and  C_9
REMARK    8  A    between atoms: C_9  and  C_10
REMARK    9  A    between atoms: C_10  and  C_11
REMARK   10  A    between atoms: C_11  and  C_12
REMARK                            x       y       z     vdW  Elec       q    Type
REMARK                         _______ _______ _______ _____ _____    ______ ____
ROOT
ATOM      1  N   UNL     1      -3.452  -0.617  -1.276  0.00  0.00    -0.317 N 
ATOM      2  C   UNL     1      -4.265  -0.382  -2.325  0.00  0.00    +0.213 C 
ATOM      3  O   UNL     1      -3.859   0.249  -3.277  0.00  0.00    -0.276 OA
ATOM      4  H   UNL     1      -3.777  -1.122  -0.514  0.00  0.00    +0.149 HD
ENDROOT
BRANCH   1   5
ATOM      5  C   UNL     1      -2.078  -0.110  -1.286  0.00  0.00    +0.085 C 
BRANCH   5   6
ATOM      6  C   UNL     1      -1.376  -0.512   0.012  0.00  0.00    -0.060 C 
BRANCH   6   8
ATOM      7  C   UNL     1      -0.018   1.465   0.010  0.00  0.00    -0.096 C 
ATOM      8  N   UNL     1       0.002  -0.004   0.002  0.00  0.00    +0.381 N 
ATOM      9  H   UNL     1       0.474  -0.330  -0.828  0.00  0.00    -0.082 HD
BRANCH   8  10
ATOM     10  C   UNL     1       0.713  -0.491   1.192  0.00  0.00    -0.069 C 
ATOM     11  C   UNL     1       2.148   0.039   1.181  0.00  0.00    -0.015 C 
ATOM     12  C   UNL     1       2.888  -0.468   2.421  0.00  0.00    -0.002 C 
ATOM     13  C   UNL     1       2.909  -1.998   2.412  0.00  0.00    -0.000 C 
ATOM     14  C   UNL     1       1.473  -2.527   2.423  0.00  0.00    -0.002 C 
ATOM     15  C   UNL     1       0.733  -2.021   1.184  0.00  0.00    -0.015 C 
ENDBRANCH   8  10
ENDBRANCH   6   8
ENDBRANCH   5   6
ENDBRANCH   1   5
BRANCH   2  16
ATOM     16  C   UNL     1      -5.679  -0.904  -2.314  0.00  0.00    +0.096 C 
BRANCH  16  17
ATOM     17  C   UNL     1      -6.381  -0.501  -3.612  0.00  0.00    +0.009 C 
BRANCH  17  18
ATOM     18  C   UNL     1      -7.816  -1.031  -3.602  0.00  0.00    +0.002 C 
BRANCH  18  19
ATOM     19  C   UNL     1      -8.518  -0.628  -4.900  0.00  0.00    +0.016 C 
BRANCH  19  20
ATOM     20  C   UNL     1      -9.954  -1.158  -4.889  0.00  0.00    +0.069 C 
ATOM     21  C   UNL     1     -10.672  -0.810  -6.168  0.00  0.00    +0.108 C 
ATOM     22  C   UNL     1     -12.203  -0.742  -5.875  0.00  0.00    +0.105 C 
ATOM     23  C   UNL     1     -12.362   0.327  -4.796  0.00  0.00    +0.093 C 
ATOM     24  S   UNL     1     -10.994  -0.249  -3.654  0.00  0.00    -0.154 S 
ATOM     25  N   UNL     1     -12.689  -0.534  -7.221  0.00  0.00    -0.294 N 
ATOM     26  C   UNL     1     -11.819  -1.210  -8.030  0.00  0.00    +0.300 C 
ATOM     27  O   UNL     1     -12.046  -1.466  -9.197  0.00  0.00    -0.253 OA
ATOM     28  N   UNL     1     -10.681  -1.576  -7.380  0.00  0.00    -0.294 N 
ATOM     29  H   UNL     1     -13.468  -0.024  -7.492  0.00  0.00    +0.151 HD
ATOM     30  H   UNL     1     -10.016  -2.215  -7.679  0.00  0.00    +0.151 HD
ENDBRANCH  19  20
ENDBRANCH  18  19
ENDBRANCH  17  18
ENDBRANCH  16  17
ENDBRANCH   2  16
TORSDOF 9
