REMARK  Name = ZINC33946071
REMARK  4 active torsions:
REMARK  status: ('A' for Active; 'I' for Inactive)
REMARK    1  A    between atoms: C_4  and  C_7
REMARK    2  A    between atoms: N_13  and  N_14
REMARK    3  A    between atoms: N_14  and  C_15
REMARK    4  A    between atoms: C_15  and  N_17
REMARK                            x       y       z     vdW  Elec       q    Type
REMARK                         _______ _______ _______ _____ _____    ______ ____
ROOT
ATOM      1  C   UNL     1       3.690  -0.678  -0.038  0.00  0.00    +0.028 C 
ATOM      2  C   UNL     1       3.716  -2.031   0.057  0.00  0.00    +0.078 C 
ATOM      3  C   UNL     1       2.592  -2.990   0.078  0.00  0.00    +0.256 C 
ATOM      4  O   UNL     1       1.436  -2.616   0.006  0.00  0.00    -0.269 OA
ATOM      5  N   UNL     1       2.898  -4.272   0.180  0.00  0.00    -0.259 N 
ATOM      6  C   UNL     1       4.224  -4.673   0.261  0.00  0.00    +0.183 C 
ATOM      7  N   UNL     1       4.700  -5.882   0.363  0.00  0.00    -0.158 NA
ATOM      8  S   UNL     1       5.119  -3.131   0.181  0.00  0.00    -0.048 S 
ATOM      9  H   UNL     1       2.192  -4.936   0.198  0.00  0.00    +0.157 HD
ENDROOT
BRANCH   1  13
ATOM     10  C   UNL     1       0.002   1.396   0.226  0.00  0.00    +0.000 A 
ATOM     11  C   UNL     1       0.236   0.303   1.042  0.00  0.00    +0.001 A 
ATOM     12  C   UNL     1       1.433  -0.377   0.962  0.00  0.00    +0.008 A 
ATOM     13  C   UNL     1       2.411   0.041   0.053  0.00  0.00    -0.024 A 
ATOM     14  C   UNL     1       2.166   1.147  -0.768  0.00  0.00    +0.008 A 
ATOM     15  C   UNL     1       0.964   1.816  -0.676  0.00  0.00    +0.001 A 
ENDBRANCH   1  13
BRANCH   7  16
ATOM     16  N   UNL     1       6.084  -6.086   0.433  0.00  0.00    -0.216 N 
ATOM     17  H   UNL     1       6.688  -5.328   0.405  0.00  0.00    +0.176 HD
BRANCH  16  18
ATOM     18  C   UNL     1       6.576  -7.336   0.539  0.00  0.00    +0.147 C 
ATOM     19  S   UNL     1       8.268  -7.586   0.624  0.00  0.00    -0.017 S 
BRANCH  18  20
ATOM     20  N   UNL     1       5.737  -8.390   0.578  0.00  0.00    -0.339 N 
ATOM     21  H   UNL     1       4.778  -8.248   0.530  0.00  0.00    +0.144 HD
ATOM     22  H   UNL     1       6.091  -9.290   0.654  0.00  0.00    +0.144 HD
ENDBRANCH  18  20
ENDBRANCH  16  18
ENDBRANCH   7  16
TORSDOF 4
