REMARK  Name = ZINC12159173
REMARK  4 active torsions:
REMARK  status: ('A' for Active; 'I' for Inactive)
REMARK    1  A    between atoms: C_9  and  C_20
REMARK    2  A    between atoms: N_12  and  C_13
REMARK    3  A    between atoms: C_13  and  C_14
REMARK    4  A    between atoms: C_20  and  N_51
REMARK                            x       y       z     vdW  Elec       q    Type
REMARK                         _______ _______ _______ _____ _____    ______ ____
ROOT
ATOM      1  C   UNL     1      -0.251  10.828   1.423  0.00  0.00    +0.021 A 
ATOM      2  C   UNL     1      -0.955   9.882   2.109  0.00  0.00    +0.015 A 
ATOM      3  C   UNL     1      -0.435   8.589   2.230  0.00  0.00    +0.040 A 
ATOM      4  C   UNL     1       0.815   8.276   1.642  0.00  0.00    +0.078 A 
ATOM      5  C   UNL     1       1.512   9.271   0.945  0.00  0.00    +0.048 A 
ATOM      6  C   UNL     1       0.979  10.523   0.843  0.00  0.00    +0.043 A 
ATOM      7 CL   UNL     1       1.845  11.753  -0.022  0.00  0.00    -0.083 Cl
ATOM      8  N   UNL     1       1.296   7.031   1.776  0.00  0.00    -0.234 NA
ATOM      9  C   UNL     1       0.615   6.122   2.431  0.00  0.00    +0.115 A 
ATOM     10  N   UNL     1      -0.556   6.367   2.998  0.00  0.00    -0.219 NA
ATOM     11  C   UNL     1      -1.120   7.566   2.930  0.00  0.00    +0.130 A 
ATOM     12  N   UNL     1      -2.340   7.808   3.524  0.00  0.00    -0.326 N 
ATOM     13  H   UNL     1      -2.741   8.690   3.467  0.00  0.00    +0.148 HD
ENDROOT
BRANCH  12  14
ATOM     14  C   UNL     1      -3.031   6.735   4.243  0.00  0.00    +0.134 C 
BRANCH  14  15
ATOM     15  C   UNL     1      -4.353   7.265   4.803  0.00  0.00    +0.135 C 
ATOM     16  C   UNL     1      -5.087   6.143   5.562  0.00  0.00    +0.035 C 
ATOM     17  C   UNL     1      -5.258   6.702   6.995  0.00  0.00    +0.031 C 
ATOM     18  C   UNL     1      -5.111   8.228   6.768  0.00  0.00    +0.160 C 
ATOM     19  O   UNL     1      -4.096   8.320   5.745  0.00  0.00    -0.375 OA
ENDBRANCH  14  15
ENDBRANCH  12  14
BRANCH   9  20
ATOM     20  C   UNL     1       1.195   4.736   2.550  0.00  0.00    -0.001 C 
BRANCH  20  29
ATOM     21  C   UNL     1       1.460   2.651   1.368  0.00  0.00    -0.069 C 
ATOM     22  C   UNL     1       1.286   1.985   0.000  0.00  0.00    +0.077 C 
ATOM     23  C   UNL     1      -0.014   1.209   0.009  0.00  0.00    +0.211 C 
ATOM     24  O   UNL     1       0.002  -0.004   0.002  0.00  0.00    -0.276 OA
ATOM     25  N   UNL     1      -1.180   1.862   0.018  0.00  0.00    -0.317 N 
ATOM     26  C   UNL     1      -1.201   3.334   0.026  0.00  0.00    +0.085 C 
ATOM     27  C   UNL     1      -0.712   3.826   1.391  0.00  0.00    -0.059 C 
ATOM     28  H   UNL     1      -2.013   1.365   0.022  0.00  0.00    +0.149 HD
ATOM     29  N   UNL     1       0.764   3.967   1.381  0.00  0.00    +0.386 N 
ATOM     30  H   UNL     1       1.031   4.480   0.532  0.00  0.00    -0.081 HD
ENDBRANCH  20  29
ENDBRANCH   9  20
TORSDOF 4
