REMARK  Name = ZINC56905680
REMARK  7 active torsions:
REMARK  status: ('A' for Active; 'I' for Inactive)
REMARK    1  A    between atoms: C_1  and  C_2
REMARK    2  A    between atoms: C_2  and  O_3
REMARK    3  A    between atoms: O_3  and  C_4
REMARK    4  A    between atoms: C_11  and  C_13
REMARK    5  A    between atoms: C_19  and  C_21
REMARK    6  A    between atoms: C_23  and  C_27
REMARK    7  A    between atoms: C_25  and  C_26
REMARK                            x       y       z     vdW  Elec       q    Type
REMARK                         _______ _______ _______ _____ _____    ______ ____
ROOT
ATOM      1  C   UNL     1       3.312  -2.500   5.538  0.00  0.00    +0.287 C 
ATOM      2  O   UNL     1       3.721  -3.432   6.204  0.00  0.00    -0.266 OA
ATOM      3  N   UNL     1       3.531  -1.234   5.944  0.00  0.00    -0.232 N 
ATOM      4  C   UNL     1       4.222  -0.993   7.121  0.00  0.00    +0.315 A 
ATOM      5  N   UNL     1       4.720  -1.899   7.926  0.00  0.00    -0.092 NA
ATOM      6  N   UNL     1       5.296  -1.319   8.920  0.00  0.00    -0.106 NA
ATOM      7  C   UNL     1       5.188  -0.019   8.787  0.00  0.00    +0.253 A 
ATOM      8  O   UNL     1       4.510   0.215   7.643  0.00  0.00    -0.405 OA
ATOM      9  H   UNL     1       3.204  -0.491   5.413  0.00  0.00    +0.160 HD
ENDROOT
BRANCH   1  17
ATOM     10  C   UNL     1       0.802  -1.825   1.306  0.00  0.00    +0.163 A 
ATOM     11  C   UNL     1       0.262  -2.672   0.355  0.00  0.00    +0.049 A 
ATOM     12  C   UNL     1       0.366  -4.048   0.493  0.00  0.00    +0.004 A 
ATOM     13  C   UNL     1       1.005  -4.591   1.572  0.00  0.00    +0.012 A 
ATOM     14  C   UNL     1       1.559  -3.754   2.545  0.00  0.00    +0.025 A 
ATOM     15  C   UNL     1       1.464  -2.358   2.412  0.00  0.00    +0.177 A 
ATOM     16  O   UNL     1       2.081  -1.803   3.474  0.00  0.00    -0.447 OA
ATOM     17  C   UNL     1       2.579  -2.755   4.290  0.00  0.00    +0.191 A 
ATOM     18  C   UNL     1       2.290  -3.985   3.790  0.00  0.00    +0.063 A 
BRANCH  10  19
ATOM     19  O   UNL     1       0.693  -0.477   1.160  0.00  0.00    -0.489 OA
BRANCH  19  21
ATOM     20  C   UNL     1      -0.019   1.526   0.010  0.00  0.00    +0.048 C 
ATOM     21  C   UNL     1       0.002  -0.004   0.002  0.00  0.00    +0.226 C 
ENDBRANCH  19  21
ENDBRANCH  10  19
ENDBRANCH   1  17
BRANCH   7  22
ATOM     22  C   UNL     1       5.715   1.002   9.716  0.00  0.00    +0.079 A 
ATOM     23  C   UNL     1       5.600   2.461   9.589  0.00  0.00    +0.058 A 
ATOM     24  C   UNL     1       6.226   2.977  10.660  0.00  0.00    +0.103 A 
ATOM     25  O   UNL     1       6.704   1.974  11.413  0.00  0.00    -0.464 OA
ATOM     26  C   UNL     1       6.405   0.786  10.870  0.00  0.00    +0.114 A 
ATOM     27  C   UNL     1       6.772  -0.560  11.438  0.00  0.00    +0.087 C 
ATOM     28  C   UNL     1       6.369   4.445  10.965  0.00  0.00    +0.086 C 
ENDBRANCH   7  22
TORSDOF 4
