REMARK  Name = ZINC63270101
REMARK  11 active torsions:
REMARK  status: ('A' for Active; 'I' for Inactive)
REMARK    1  A    between atoms: C_1  and  C_2
REMARK    2  A    between atoms: C_2  and  C_3
REMARK    3  A    between atoms: C_2  and  C_4
REMARK    4  A    between atoms: C_4  and  C_6
REMARK    5  A    between atoms: C_4  and  N_16
REMARK    6  A    between atoms: N_8  and  N_9
REMARK    7  A    between atoms: N_12  and  C_13
REMARK    8  A    between atoms: C_13  and  C_14
REMARK    9  A    between atoms: C_13  and  C_15
REMARK   10  A    between atoms: N_16  and  S_17
REMARK   11  A    between atoms: S_17  and  C_20
REMARK                            x       y       z     vdW  Elec       q    Type
REMARK                         _______ _______ _______ _____ _____    ______ ____
ROOT
ATOM      1  C   UNL     1      -1.657  -0.506   0.029  0.00  0.00    +0.166 C 
ENDROOT
BRANCH   1   2
ATOM      2  C   UNL     1      -2.676  -0.317   1.123  0.00  0.00    +0.248 C 
ATOM      3  O   UNL     1      -3.714   0.267   0.890  0.00  0.00    -0.273 OA
ATOM      4  N   UNL     1      -2.435  -0.796   2.359  0.00  0.00    -0.232 N 
ATOM      5  H   UNL     1      -1.575  -1.193   2.566  0.00  0.00    +0.173 HD
BRANCH   4   6
ATOM      6  N   UNL     1      -3.427  -0.720   3.346  0.00  0.00    -0.218 N 
ATOM      7  C   UNL     1      -3.185  -1.199   4.582  0.00  0.00    +0.316 C 
ATOM      8  O   UNL     1      -4.046  -1.133   5.438  0.00  0.00    -0.251 OA
ATOM      9  N   UNL     1      -1.990  -1.751   4.869  0.00  0.00    -0.296 N 
ATOM     10  H   UNL     1      -4.287  -0.323   3.139  0.00  0.00    +0.174 HD
ATOM     11  H   UNL     1      -1.303  -1.803   4.186  0.00  0.00    +0.151 HD
BRANCH   9  12
ATOM     12  C   UNL     1      -1.727  -2.272   6.213  0.00  0.00    +0.068 C 
ATOM     13  C   UNL     1      -0.643  -3.349   6.140  0.00  0.00    +0.027 C 
ATOM     14  C   UNL     1      -1.254  -1.132   7.118  0.00  0.00    +0.027 C 
ENDBRANCH   9  12
ENDBRANCH   4   6
ENDBRANCH   1   2
BRANCH   1  16
ATOM     15  C   UNL     1       0.619   0.149  -0.766  0.00  0.00    +0.009 C 
ATOM     16  C   UNL     1      -0.470   0.429   0.271  0.00  0.00    +0.010 C 
ATOM     17  C   UNL     1      -0.932   1.882   0.146  0.00  0.00    +0.009 C 
ENDBRANCH   1  16
BRANCH   1  18
ATOM     18  N   UNL     1      -2.267  -0.195  -1.266  0.00  0.00    -0.178 NA
ATOM     19  H   UNL     1      -2.582   0.704  -1.451  0.00  0.00    +0.149 HD
BRANCH  18  20
ATOM     20  S   UNL     1      -2.419  -1.378  -2.415  0.00  0.00    +0.059 S 
ATOM     21  O   UNL     1      -3.145  -0.805  -3.494  0.00  0.00    -0.153 OA
ATOM     22  O   UNL     1      -1.128  -1.948  -2.583  0.00  0.00    -0.153 OA
BRANCH  20  23
ATOM     23  C   UNL     1      -3.442  -2.639  -1.733  0.00  0.00    +0.107 A 
ATOM     24  C   UNL     1      -2.874  -3.681  -1.022  0.00  0.00    +0.028 A 
ATOM     25  C   UNL     1      -3.676  -4.670  -0.486  0.00  0.00    +0.003 A 
ATOM     26  C   UNL     1      -5.047  -4.620  -0.661  0.00  0.00    +0.020 A 
ATOM     27  C   UNL     1      -5.615  -3.579  -1.372  0.00  0.00    +0.043 A 
ATOM     28  C   UNL     1      -4.812  -2.584  -1.903  0.00  0.00    +0.048 A 
ATOM     29 CL   UNL     1      -7.336  -3.515  -1.591  0.00  0.00    -0.083 Cl
ENDBRANCH  20  23
ENDBRANCH  18  20
ENDBRANCH   1  18
TORSDOF 7
