REMARK  Name = ZINC28615162
REMARK  3 active torsions:
REMARK  status: ('A' for Active; 'I' for Inactive)
REMARK    1  A    between atoms: C_1  and  C_2
REMARK    2  A    between atoms: C_2  and  C_3
REMARK    3  A    between atoms: N_4  and  C_5
REMARK                            x       y       z     vdW  Elec       q    Type
REMARK                         _______ _______ _______ _____ _____    ______ ____
ROOT
ATOM      1  C   UNL     1      -1.897   3.121  -0.662  0.00  0.00    +0.127 C 
ATOM      2  C   UNL     1      -2.293   2.964   0.816  0.00  0.00    +0.051 C 
ATOM      3  C   UNL     1      -1.110   2.366   1.618  0.00  0.00    +0.168 C 
ATOM      4  S   UNL     1      -0.218   1.381   0.347  0.00  0.00    -0.029 S 
ATOM      5  O   UNL     1      -0.368  -0.000   0.643  0.00  0.00    -0.174 OA
ATOM      6  O   UNL     1       1.085   1.922   0.173  0.00  0.00    -0.174 OA
ATOM      7  C   UNL     1      -1.239   1.792  -1.131  0.00  0.00    +0.192 C 
ENDROOT
BRANCH   1   9
ATOM      8  C   UNL     1      -3.103   4.381  -2.280  0.00  0.00    +0.078 C 
ATOM      9  N   UNL     1      -3.091   3.393  -1.467  0.00  0.00    -0.291 NA
BRANCH   8  11
ATOM     10  C   UNL     1      -1.611   5.236  -4.067  0.00  0.00    +0.010 C 
ATOM     11  C   UNL     1      -1.833   5.145  -2.556  0.00  0.00    +0.043 C 
ENDBRANCH   8  11
ENDBRANCH   1   9
TORSDOF 2
