REMARK  Name = ZINC05710088
REMARK  7 active torsions:
REMARK  status: ('A' for Active; 'I' for Inactive)
REMARK    1  A    between atoms: C_3  and  N_27
REMARK    2  A    between atoms: C_4  and  N_24
REMARK    3  A    between atoms: C_6  and  C_7
REMARK    4  A    between atoms: C_7  and  O_9
REMARK    5  A    between atoms: O_9  and  C_10
REMARK    6  A    between atoms: C_10  and  C_11
REMARK    7  A    between atoms: N_13  and  C_14
REMARK                            x       y       z     vdW  Elec       q    Type
REMARK                         _______ _______ _______ _____ _____    ______ ____
ROOT
ATOM      1  O   UNL     1      -1.470  -0.484  -0.673  0.00  0.00    -0.452 OA
ENDROOT
BRANCH   1   2
ATOM      2  C   UNL     1      -1.583  -1.814  -0.483  0.00  0.00    +0.340 C 
ATOM      3  O   UNL     1      -0.594  -2.519  -0.528  0.00  0.00    -0.245 OA
BRANCH   2   9
ATOM      4  C   UNL     1      -4.041  -1.600  -0.161  0.00  0.00    +0.017 A 
ATOM      5  C   UNL     1      -5.273  -2.165   0.081  0.00  0.00    +0.026 A 
ATOM      6  C   UNL     1      -5.381  -3.540   0.277  0.00  0.00    +0.055 A 
ATOM      7  C   UNL     1      -4.246  -4.345   0.223  0.00  0.00    +0.147 A 
ATOM      8  C   UNL     1      -3.022  -3.791  -0.021  0.00  0.00    +0.049 A 
ATOM      9  C   UNL     1      -2.904  -2.412  -0.219  0.00  0.00    +0.061 A 
BRANCH   7  10
ATOM     10  N   UNL     1      -4.367  -5.805   0.432  0.00  0.00    +0.058 N 
ATOM     11  O   UNL     1      -3.366  -6.496   0.498  0.00  0.00    -0.126 OA
ATOM     12  O   UNL     1      -5.468  -6.316   0.536  0.00  0.00    -0.126 OA
ENDBRANCH   7  10
BRANCH   6  13
ATOM     13  N   UNL     1      -6.624  -4.109   0.526  0.00  0.00    -0.356 N 
ATOM     14  H   UNL     1      -6.685  -4.948   1.009  0.00  0.00    +0.142 HD
ATOM     15  H   UNL     1      -7.430  -3.667   0.217  0.00  0.00    +0.142 HD
ENDBRANCH   6  13
ENDBRANCH   2   9
ENDBRANCH   1   2
BRANCH   1  16
ATOM     16  C   UNL     1      -0.139   0.035  -0.928  0.00  0.00    +0.328 C 
BRANCH  16  17
ATOM     17  C   UNL     1      -0.209   1.529  -1.115  0.00  0.00    +0.251 C 
ATOM     18  O   UNL     1      -1.278   2.099  -1.045  0.00  0.00    -0.272 OA
ATOM     19  N   UNL     1       0.914   2.231  -1.364  0.00  0.00    -0.307 N 
ATOM     20  H   UNL     1       1.768   1.775  -1.423  0.00  0.00    +0.149 HD
BRANCH  19  21
ATOM     21  C   UNL     1       0.845   3.683  -1.545  0.00  0.00    +0.035 C 
ATOM     22  C   UNL     1      -0.064   4.006  -2.733  0.00  0.00    +0.029 C 
ATOM     23  C   UNL     1      -0.136   5.523  -2.922  0.00  0.00    -0.008 C 
ATOM     24  C   UNL     1       1.267   6.070  -3.191  0.00  0.00    +0.007 C 
ATOM     25  C   UNL     1       2.176   5.747  -2.003  0.00  0.00    -0.008 C 
ATOM     26  C   UNL     1       2.248   4.230  -1.814  0.00  0.00    +0.029 C 
ATOM     27  C   UNL     1       1.610   6.393  -0.737  0.00  0.00    +0.007 C 
ATOM     28  C   UNL     1       0.207   5.845  -0.469  0.00  0.00    -0.008 C 
ATOM     29  C   UNL     1      -0.702   6.168  -1.656  0.00  0.00    +0.007 C 
ATOM     30  C   UNL     1       0.279   4.329  -0.279  0.00  0.00    +0.029 C 
ENDBRANCH  19  21
ENDBRANCH  16  17
ENDBRANCH   1  16
TORSDOF 7
