REMARK  Name = ZINC26680988
REMARK  12 active torsions:
REMARK  status: ('A' for Active; 'I' for Inactive)
REMARK    1  A    between atoms: C_1  and  C_2
REMARK    2  A    between atoms: C_2  and  C_3
REMARK    3  A    between atoms: C_9  and  C_10
REMARK    4  A    between atoms: C_13  and  O_18
REMARK    5  A    between atoms: C_14  and  O_16
REMARK    6  A    between atoms: O_16  and  C_17
REMARK    7  A    between atoms: O_18  and  C_19
REMARK    8  A    between atoms: C_19  and  C_20
REMARK    9  A    between atoms: C_20  and  O_21
REMARK   10  A    between atoms: O_21  and  C_22
REMARK   11  A    between atoms: C_27  and  O_28
REMARK   12  A    between atoms: O_28  and  C_29
REMARK                            x       y       z     vdW  Elec       q    Type
REMARK                         _______ _______ _______ _____ _____    ______ ____
ROOT
ATOM      1  C   UNL     1       7.933  -2.216  -1.646  0.00  0.00    -0.021 A 
ATOM      2  C   UNL     1       7.778  -1.806  -0.314  0.00  0.00    +0.012 A 
ATOM      3  C   UNL     1       6.663  -1.091   0.059  0.00  0.00    +0.050 A 
ATOM      4  C   UNL     1       5.690  -0.773  -0.880  0.00  0.00    +0.162 A 
ATOM      5  C   UNL     1       5.833  -1.181  -2.207  0.00  0.00    +0.162 A 
ATOM      6  C   UNL     1       6.950  -1.895  -2.592  0.00  0.00    +0.057 A 
ENDROOT
BRANCH   1  13
ATOM      7  C   UNL     1      12.603  -1.120   2.353  0.00  0.00    +0.100 C 
ATOM      8  N   UNL     1      11.640  -0.908   1.504  0.00  0.00    -0.169 NA
ATOM      9  N   UNL     1      11.528  -1.649   0.346  0.00  0.00    -0.152 N 
ATOM     10  C   UNL     1      10.554  -1.466  -0.658  0.00  0.00    +0.152 C 
ATOM     11  N   UNL     1       9.897  -0.349  -0.825  0.00  0.00    -0.283 NA
ATOM     12  C   UNL     1      10.348  -2.670  -1.511  0.00  0.00    +0.081 C 
ATOM     13  C   UNL     1       9.118  -2.978  -2.047  0.00  0.00    +0.024 C 
ATOM     14  C   UNL     1      11.540  -3.523  -1.747  0.00  0.00    +0.273 C 
ATOM     15  O   UNL     1      11.624  -4.224  -2.743  0.00  0.00    -0.268 OA
ATOM     16  N   UNL     1      12.527  -3.500  -0.834  0.00  0.00    -0.152 NA
ATOM     17  C   UNL     1      12.465  -2.641   0.152  0.00  0.00    +0.181 C 
ATOM     18  S   UNL     1      13.498  -2.463   1.583  0.00  0.00    -0.038 S 
ATOM     19  H   UNL     1      10.092   0.508  -0.163  0.00  0.00    +0.188 HD
BRANCH   7  21
ATOM     20  C   UNL     1      11.839   0.671   3.888  0.00  0.00    +0.011 C 
ATOM     21  C   UNL     1      12.891  -0.415   3.653  0.00  0.00    +0.061 C 
ENDBRANCH   7  21
ENDBRANCH   1  13
BRANCH   5  22
ATOM     22  O   UNL     1       4.875  -0.871  -3.121  0.00  0.00    -0.491 OA
ATOM     23  C   UNL     1       5.088  -1.321  -4.460  0.00  0.00    +0.277 C 
ENDBRANCH   5  22
BRANCH   4  24
ATOM     24  O   UNL     1       4.593  -0.067  -0.505  0.00  0.00    -0.485 OA
BRANCH  24  25
ATOM     25  C   UNL     1       4.505   0.315   0.869  0.00  0.00    +0.270 C 
BRANCH  25  26
ATOM     26  C   UNL     1       3.211   1.097   1.100  0.00  0.00    +0.270 C 
BRANCH  26  27
ATOM     27  O   UNL     1       2.090   0.240   0.874  0.00  0.00    -0.485 OA
BRANCH  27  28
ATOM     28  C   UNL     1       0.854   0.783   1.038  0.00  0.00    +0.162 A 
ATOM     29  C   UNL     1       0.723   2.112   1.408  0.00  0.00    +0.049 A 
ATOM     30  C   UNL     1      -0.534   2.663   1.574  0.00  0.00    +0.004 A 
ATOM     31  C   UNL     1      -1.663   1.891   1.371  0.00  0.00    +0.004 A 
ATOM     32  C   UNL     1      -1.539   0.566   0.997  0.00  0.00    +0.049 A 
ATOM     33  C   UNL     1      -0.282   0.006   0.834  0.00  0.00    +0.161 A 
BRANCH  33  34
ATOM     34  O   UNL     1      -0.159  -1.298   0.471  0.00  0.00    -0.491 OA
ATOM     35  C   UNL     1      -1.369  -2.035   0.279  0.00  0.00    +0.277 C 
ENDBRANCH  33  34
ENDBRANCH  27  28
ENDBRANCH  26  27
ENDBRANCH  25  26
ENDBRANCH  24  25
ENDBRANCH   4  24
TORSDOF 9
