REMARK  Name = ZINC18104100
REMARK  8 active torsions:
REMARK  status: ('A' for Active; 'I' for Inactive)
REMARK    1  A    between atoms: C_1  and  C_2
REMARK    2  A    between atoms: C_3  and  C_29
REMARK    3  A    between atoms: C_4  and  C_28
REMARK    4  A    between atoms: C_7  and  C_8
REMARK    5  A    between atoms: N_13  and  S_16
REMARK    6  A    between atoms: S_16  and  C_19
REMARK    7  A    between atoms: C_29  and  O_31
REMARK    8  A    between atoms: O_31  and  C_32
REMARK                            x       y       z     vdW  Elec       q    Type
REMARK                         _______ _______ _______ _____ _____    ______ ____
ROOT
ATOM      1  C   UNL     1      -1.121   0.694   2.155  0.00  0.00    +0.263 C 
ATOM      2  O   UNL     1      -0.307  -0.209   2.187  0.00  0.00    -0.268 OA
ATOM      3  N   UNL     1      -1.479   1.237   0.975  0.00  0.00    -0.294 N 
ATOM      4  C   UNL     1      -0.808   0.833  -0.269  0.00  0.00    +0.125 C 
ATOM      5  C   UNL     1      -1.868   0.357  -1.269  0.00  0.00    +0.128 C 
ATOM      6  N   UNL     1      -2.937   1.363  -1.336  0.00  0.00    -0.174 NA
ATOM      7  C   UNL     1      -3.611   1.765  -0.093  0.00  0.00    +0.128 C 
ATOM      8  C   UNL     1      -2.551   2.241   0.907  0.00  0.00    +0.125 C 
ENDROOT
BRANCH   1  15
ATOM      9  C   UNL     1      -1.970  -1.070   4.584  0.00  0.00    +0.047 C 
ATOM     10  C   UNL     1      -2.089   0.428   4.468  0.00  0.00    -0.006 A 
ATOM     11  C   UNL     1      -2.607   1.309   5.446  0.00  0.00    +0.083 A 
ATOM     12  C   UNL     1      -2.531   2.586   4.921  0.00  0.00    +0.028 A 
ATOM     13  N   UNL     1      -1.995   2.509   3.693  0.00  0.00    -0.354 N 
ATOM     14  H   UNL     1      -1.830   3.261   3.104  0.00  0.00    +0.166 HD
ATOM     15  C   UNL     1      -1.715   1.191   3.402  0.00  0.00    +0.106 A 
ATOM     16  C   UNL     1      -2.977   3.850   5.611  0.00  0.00    +0.064 C 
BRANCH  11  17
ATOM     17  C   UNL     1      -3.132   0.936   6.770  0.00  0.00    +0.341 C 
ATOM     18  O   UNL     1      -4.310   0.669   6.903  0.00  0.00    -0.245 OA
BRANCH  17  19
ATOM     19  O   UNL     1      -2.306   0.889   7.833  0.00  0.00    -0.464 OA
ATOM     20  C   UNL     1      -2.893   0.514   9.108  0.00  0.00    +0.280 C 
ENDBRANCH  17  19
ENDBRANCH  11  17
ENDBRANCH   1  15
BRANCH   6  21
ATOM     21  S   UNL     1      -3.373   2.034  -2.786  0.00  0.00    +0.061 S 
ATOM     22  O   UNL     1      -3.966   3.291  -2.490  0.00  0.00    -0.153 OA
ATOM     23  O   UNL     1      -2.251   1.905  -3.648  0.00  0.00    -0.153 OA
BRANCH  21  24
ATOM     24  C   UNL     1      -4.647   1.024  -3.465  0.00  0.00    +0.106 A 
ATOM     25  C   UNL     1      -5.972   1.293  -3.175  0.00  0.00    +0.029 A 
ATOM     26  C   UNL     1      -6.969   0.500  -3.709  0.00  0.00    +0.006 A 
ATOM     27  C   UNL     1      -6.646  -0.565  -4.533  0.00  0.00    -0.044 A 
ATOM     28  C   UNL     1      -5.322  -0.834  -4.823  0.00  0.00    -0.042 A 
ATOM     29  C   UNL     1      -4.324  -0.035  -4.292  0.00  0.00    +0.032 A 
ATOM     30  C   UNL     1      -5.232  -2.037  -5.737  0.00  0.00    +0.036 C 
ATOM     31  C   UNL     1      -6.650  -2.205  -6.324  0.00  0.00    +0.009 C 
ATOM     32  C   UNL     1      -7.537  -1.569  -5.233  0.00  0.00    +0.036 C 
ENDBRANCH  21  24
ENDBRANCH   6  21
TORSDOF 5
