REMARK  Name = ZINC04132317
REMARK  4 active torsions:
REMARK  status: ('A' for Active; 'I' for Inactive)
REMARK    1  A    between atoms: C_1  and  O_2
REMARK    2  A    between atoms: O_2  and  C_3
REMARK    3  A    between atoms: C_5  and  N_26
REMARK    4  A    between atoms: C_10  and  C_19
REMARK                            x       y       z     vdW  Elec       q    Type
REMARK                         _______ _______ _______ _____ _____    ______ ____
ROOT
ATOM      1  C   UNL     1       5.743   3.326   1.365  0.00  0.00    +0.143 A 
ATOM      2  C   UNL     1       6.978   3.948   1.388  0.00  0.00    +0.080 A 
ATOM      3  C   UNL     1       7.244   4.976   0.502  0.00  0.00    +0.130 A 
ATOM      4  C   UNL     1       6.282   5.378  -0.400  0.00  0.00    +0.039 A 
ATOM      5  C   UNL     1       5.037   4.760  -0.432  0.00  0.00    -0.014 A 
ATOM      6  C   UNL     1       4.767   3.733   0.451  0.00  0.00    +0.074 A 
ATOM      7  N   UNL     1       3.536   3.070   0.467  0.00  0.00    -0.334 N 
ATOM      8  C   UNL     1       2.452   3.936  -0.001  0.00  0.00    +0.106 C 
ATOM      9  C   UNL     1       2.744   4.416  -1.413  0.00  0.00    +0.029 C 
ATOM     10  C   UNL     1       4.038   5.255  -1.444  0.00  0.00    +0.049 C 
ATOM     11  C   UNL     1       4.598   4.980  -2.830  0.00  0.00    -0.023 C 
ATOM     12  C   UNL     1       4.115   3.861  -3.307  0.00  0.00    -0.030 C 
ATOM     13  C   UNL     1       3.163   3.225  -2.311  0.00  0.00    +0.033 C 
ATOM     14  H   UNL     1       3.335   2.703   1.385  0.00  0.00    +0.147 HD
ENDROOT
BRANCH   8  15
ATOM     15  C   UNL     1       1.157   3.165   0.008  0.00  0.00    -0.009 A 
ATOM     16  C   UNL     1       1.175   1.783   0.000  0.00  0.00    +0.007 A 
ATOM     17  C   UNL     1      -0.013   1.076   0.008  0.00  0.00    +0.000 A 
ATOM     18  C   UNL     1      -1.219   1.750   0.017  0.00  0.00    +0.001 A 
ATOM     19  C   UNL     1      -1.239   3.132   0.031  0.00  0.00    +0.020 A 
ATOM     20  C   UNL     1      -0.050   3.841   0.023  0.00  0.00    +0.046 A 
ATOM     21 CL   UNL     1      -0.074   5.576   0.032  0.00  0.00    -0.083 Cl
ENDBRANCH   8  15
BRANCH   3  22
ATOM     22  N   UNL     1       8.564   5.645   0.522  0.00  0.00    +0.057 N 
ATOM     23  O   UNL     1       8.800   6.550  -0.259  0.00  0.00    -0.126 OA
ATOM     24  O   UNL     1       9.415   5.290   1.318  0.00  0.00    -0.126 OA
ENDBRANCH   3  22
BRANCH   1  26
ATOM     25  C   UNL     1       6.518   1.949   3.143  0.00  0.00    +0.277 C 
ATOM     26  O   UNL     1       5.477   2.315   2.235  0.00  0.00    -0.493 OA
ENDBRANCH   1  26
TORSDOF 3
