REMARK  Name = ZINC00971252
REMARK  5 active torsions:
REMARK  status: ('A' for Active; 'I' for Inactive)
REMARK    1  A    between atoms: C_6  and  C_7
REMARK    2  A    between atoms: C_8  and  C_17
REMARK    3  A    between atoms: C_12  and  C_13
REMARK    4  A    between atoms: C_20  and  O_24
REMARK    5  A    between atoms: C_22  and  O_23
REMARK                            x       y       z     vdW  Elec       q    Type
REMARK                         _______ _______ _______ _____ _____    ______ ____
ROOT
ATOM      1  C   UNL     1      -1.350  -0.652  -0.037  0.00  0.00    +0.039 A 
ATOM      2  C   UNL     1      -2.185  -0.861   1.089  0.00  0.00    +0.104 A 
ATOM      3  N   UNL     1      -3.114  -1.726   0.746  0.00  0.00    -0.173 NA
ATOM      4  N   UNL     1      -2.906  -2.094  -0.589  0.00  0.00    -0.272 N 
ATOM      5  H   UNL     1      -3.446  -2.720  -1.096  0.00  0.00    +0.189 HD
ATOM      6  C   UNL     1      -1.829  -1.425  -1.052  0.00  0.00    +0.147 A 
ENDROOT
BRANCH   1  12
ATOM      7  C   UNL     1      -0.343   1.629  -0.016  0.00  0.00    +0.012 A 
ATOM      8  C   UNL     1       0.753   2.465  -0.077  0.00  0.00    +0.050 A 
ATOM      9  C   UNL     1       2.028   1.936  -0.222  0.00  0.00    +0.162 A 
ATOM     10  C   UNL     1       2.205   0.558  -0.305  0.00  0.00    +0.163 A 
ATOM     11  C   UNL     1       1.107  -0.284  -0.246  0.00  0.00    +0.058 A 
ATOM     12  C   UNL     1      -0.172   0.249  -0.101  0.00  0.00    -0.010 A 
ATOM     13  O   UNL     1       3.449   0.023  -0.440  0.00  0.00    -0.485 OA
ATOM     14  C   UNL     1       4.488   0.909  -0.869  0.00  0.00    +0.270 C 
ATOM     15  C   UNL     1       4.385   2.203  -0.051  0.00  0.00    +0.270 C 
ATOM     16  O   UNL     1       3.095   2.779  -0.284  0.00  0.00    -0.485 OA
ENDBRANCH   1  12
BRANCH   2  17
ATOM     17  C   UNL     1      -2.038  -0.217   2.417  0.00  0.00    +0.044 A 
ATOM     18  C   UNL     1      -0.790  -0.166   3.034  0.00  0.00    +0.017 A 
ATOM     19  C   UNL     1      -0.656   0.433   4.269  0.00  0.00    +0.046 A 
ATOM     20  C   UNL     1      -1.762   0.986   4.900  0.00  0.00    +0.120 A 
ATOM     21  C   UNL     1      -3.008   0.939   4.293  0.00  0.00    +0.091 A 
ATOM     22  C   UNL     1      -3.151   0.345   3.051  0.00  0.00    +0.130 A 
BRANCH  22  23
ATOM     23  O   UNL     1      -4.370   0.303   2.452  0.00  0.00    -0.506 OA
ATOM     24  H   UNL     1      -4.889  -0.482   2.671  0.00  0.00    +0.292 HD
ENDBRANCH  22  23
BRANCH  20  25
ATOM     25  O   UNL     1      -1.624   1.575   6.117  0.00  0.00    -0.507 OA
ATOM     26  H   UNL     1      -1.421   2.519   6.076  0.00  0.00    +0.292 HD
ENDBRANCH  20  25
ENDBRANCH   2  17
BRANCH   6  27
ATOM     27  C   UNL     1      -1.256  -1.519  -2.443  0.00  0.00    +0.434 C 
ATOM     28  F   UNL     1      -2.018  -2.414  -3.201  0.00  0.00    -0.164 F 
ATOM     29  F   UNL     1      -1.285  -0.256  -3.044  0.00  0.00    -0.164 F 
ATOM     30  F   UNL     1       0.065  -1.973  -2.373  0.00  0.00    -0.164 F 
ENDBRANCH   6  27
TORSDOF 5
