REMARK  Name = ZINC65021173
REMARK  7 active torsions:
REMARK  status: ('A' for Active; 'I' for Inactive)
REMARK    1  A    between atoms: C_1  and  C_2
REMARK    2  A    between atoms: C_2  and  C_30
REMARK    3  A    between atoms: C_8  and  S_11
REMARK    4  A    between atoms: S_11  and  N_14
REMARK    5  A    between atoms: N_14  and  C_15
REMARK    6  A    between atoms: C_20  and  C_21
REMARK    7  A    between atoms: C_25  and  C_27
REMARK                            x       y       z     vdW  Elec       q    Type
REMARK                         _______ _______ _______ _____ _____    ______ ____
ROOT
ATOM      1  C   UNL     1       2.339   2.596  -0.189  0.00  0.00    +0.017 C 
ATOM      2  C   UNL     1       1.514   1.308  -0.148  0.00  0.00    +0.008 C 
ATOM      3  C   UNL     1       1.897   0.389  -1.320  0.00  0.00    +0.124 C 
ATOM      4  N   UNL     1       2.407  -0.836  -0.697  0.00  0.00    -0.270 N 
ATOM      5  C   UNL     1       2.359  -0.720   0.696  0.00  0.00    +0.040 A 
ATOM      6  C   UNL     1       1.848   0.506   1.089  0.00  0.00    -0.017 A 
ATOM      7  C   UNL     1       1.720   0.814   2.430  0.00  0.00    +0.035 A 
ATOM      8  C   UNL     1       2.102  -0.102   3.393  0.00  0.00    +0.111 A 
ATOM      9  C   UNL     1       2.613  -1.328   3.010  0.00  0.00    +0.031 A 
ATOM     10  C   UNL     1       2.742  -1.640   1.673  0.00  0.00    +0.026 A 
ATOM     11  C   UNL     1       2.856  -1.915  -1.368  0.00  0.00    +0.223 C 
ATOM     12  O   UNL     1       3.345  -2.845  -0.763  0.00  0.00    -0.275 OA
ATOM     13  C   UNL     1       0.019   1.632  -0.187  0.00  0.00    +0.017 C 
ENDROOT
BRANCH   8  14
ATOM     14  S   UNL     1       1.938   0.293   5.102  0.00  0.00    +0.092 S 
ATOM     15  O   UNL     1       2.874  -0.519   5.798  0.00  0.00    -0.148 OA
ATOM     16  O   UNL     1       1.944   1.711   5.194  0.00  0.00    -0.148 OA
BRANCH  14  17
ATOM     17  N   UNL     1       0.432  -0.206   5.577  0.00  0.00    -0.097 NA
BRANCH  17  18
ATOM     18  C   UNL     1       0.020  -0.021   6.899  0.00  0.00    +0.086 A 
ATOM     19  C   UNL     1       0.869   0.588   7.814  0.00  0.00    +0.027 A 
ATOM     20  C   UNL     1       0.458   0.771   9.120  0.00  0.00    +0.002 A 
ATOM     21  C   UNL     1      -0.798   0.348   9.516  0.00  0.00    +0.001 A 
ATOM     22  C   UNL     1      -1.645  -0.259   8.608  0.00  0.00    +0.014 A 
ATOM     23  C   UNL     1      -1.243  -0.439   7.299  0.00  0.00    +0.079 A 
BRANCH  23  24
ATOM     24  C   UNL     1      -2.170  -1.094   6.308  0.00  0.00    +0.419 C 
ATOM     25  F   UNL     1      -3.372  -1.424   6.942  0.00  0.00    -0.166 F 
ATOM     26  F   UNL     1      -2.425  -0.210   5.254  0.00  0.00    -0.166 F 
ATOM     27  F   UNL     1      -1.572  -2.256   5.808  0.00  0.00    -0.166 F 
ENDBRANCH  23  24
ENDBRANCH  17  18
ENDBRANCH  14  17
ENDBRANCH   8  14
BRANCH  11  28
ATOM     28  C   UNL     1       2.751  -1.965  -2.870  0.00  0.00    +0.076 C 
ATOM     29  C   UNL     1       2.352  -3.299  -3.506  0.00  0.00    +0.013 C 
ATOM     30  C   UNL     1       3.792  -2.795  -3.624  0.00  0.00    +0.013 C 
ENDBRANCH  11  28
TORSDOF 5
