REMARK  Name = ZINC18366919
REMARK  8 active torsions:
REMARK  status: ('A' for Active; 'I' for Inactive)
REMARK    1  A    between atoms: C_1  and  C_2
REMARK    2  A    between atoms: C_2  and  C_3
REMARK    3  A    between atoms: C_2  and  C_4
REMARK    4  A    between atoms: C_7  and  C_10
REMARK    5  A    between atoms: C_12  and  C_15
REMARK    6  A    between atoms: C_15  and  S_16
REMARK    7  A    between atoms: S_16  and  C_17
REMARK    8  A    between atoms: C_20  and  C_22
REMARK                            x       y       z     vdW  Elec       q    Type
REMARK                         _______ _______ _______ _____ _____    ______ ____
ROOT
ATOM      1  C   UNL     1      10.626   0.604   1.064  0.00  0.00    +0.109 A 
ATOM      2  N   UNL     1       9.310   0.447   1.048  0.00  0.00    -0.243 NA
ATOM      3  C   UNL     1       8.646   0.376  -0.082  0.00  0.00    +0.059 A 
ATOM      4  C   UNL     1       9.311   0.458  -1.265  0.00  0.00    +0.071 A 
ATOM      5  S   UNL     1      10.991   0.660  -0.686  0.00  0.00    -0.075 S 
ENDROOT
BRANCH   1   9
ATOM      6  C   UNL     1      13.266   0.896   4.379  0.00  0.00    -0.045 A 
ATOM      7  C   UNL     1      13.767   0.965   3.091  0.00  0.00    +0.004 A 
ATOM      8  C   UNL     1      12.915   0.871   2.010  0.00  0.00    +0.011 A 
ATOM      9  C   UNL     1      11.545   0.706   2.218  0.00  0.00    +0.007 A 
ATOM     10  C   UNL     1      11.046   0.643   3.519  0.00  0.00    +0.011 A 
ATOM     11  C   UNL     1      11.909   0.732   4.591  0.00  0.00    +0.004 A 
BRANCH   6  13
ATOM     12  C   UNL     1      13.813   2.206   6.412  0.00  0.00    +0.012 C 
ATOM     13  C   UNL     1      14.203   1.000   5.555  0.00  0.00    +0.013 C 
ATOM     14  C   UNL     1      14.110  -0.275   6.395  0.00  0.00    +0.012 C 
ENDBRANCH   6  13
ENDBRANCH   1   9
BRANCH   3  15
ATOM     15  C   UNL     1       7.150   0.196  -0.068  0.00  0.00    +0.135 C 
BRANCH  15  16
ATOM     16  S   UNL     1       6.348   1.819  -0.050  0.00  0.00    -0.059 S 
BRANCH  16  17
ATOM     17  C   UNL     1       4.657   1.324  -0.036  0.00  0.00    +0.278 A 
ATOM     18  N   UNL     1       4.209   0.090  -0.039  0.00  0.00    -0.101 NA
ATOM     19  N   UNL     1       2.922   0.101  -0.027  0.00  0.00    -0.105 NA
ATOM     20  C   UNL     1       2.497   1.343  -0.015  0.00  0.00    +0.265 A 
ATOM     21  O   UNL     1       3.587   2.143  -0.027  0.00  0.00    -0.410 OA
BRANCH  20  22
ATOM     22  C   UNL     1       1.093   1.783   0.001  0.00  0.00    +0.104 A 
ATOM     23  C   UNL     1       0.655   3.077   0.012  0.00  0.00    +0.032 A 
ATOM     24  C   UNL     1      -0.747   3.043   0.026  0.00  0.00    +0.020 A 
ATOM     25  C   UNL     1      -1.129   1.746   0.016  0.00  0.00    +0.083 A 
ATOM     26  N   UNL     1      -0.011   0.966   0.007  0.00  0.00    -0.357 N 
ATOM     27  H   UNL     1       0.002  -0.004   0.002  0.00  0.00    +0.165 HD
ENDBRANCH  20  22
ENDBRANCH  16  17
ENDBRANCH  15  16
ENDBRANCH   3  15
TORSDOF 6
