REMARK  Name = ZINC54911710
REMARK  8 active torsions:
REMARK  status: ('A' for Active; 'I' for Inactive)
REMARK    1  A    between atoms: C_1  and  C_2
REMARK    2  A    between atoms: C_2  and  C_4
REMARK    3  A    between atoms: C_2  and  N_8
REMARK    4  A    between atoms: C_4  and  C_5
REMARK    5  A    between atoms: C_4  and  C_6
REMARK    6  A    between atoms: C_4  and  C_7
REMARK    7  A    between atoms: N_8  and  C_9
REMARK    8  A    between atoms: C_15  and  O_20
REMARK                            x       y       z     vdW  Elec       q    Type
REMARK                         _______ _______ _______ _____ _____    ______ ____
ROOT
ATOM      1  N   UNL     1      -1.372  -0.296  -0.182  0.00  0.00    -0.309 N 
ATOM      2  C   UNL     1      -2.459   0.273   0.618  0.00  0.00    +0.131 C 
ATOM      3  C   UNL     1      -1.657  -1.189  -1.204  0.00  0.00    +0.161 A 
ATOM      4  N   UNL     1      -0.820  -1.799  -2.013  0.00  0.00    -0.229 NA
ATOM      5  C   UNL     1      -1.240  -2.639  -2.957  0.00  0.00    +0.056 A 
ATOM      6  C   UNL     1      -2.585  -2.809  -3.012  0.00  0.00    +0.042 A 
ATOM      7  S   UNL     1      -3.161  -1.761  -1.706  0.00  0.00    -0.054 S 
ATOM      8  C   UNL     1      -3.357  -3.676  -3.947  0.00  0.00    +0.153 C 
ATOM      9  C   UNL     1      -2.375  -4.648  -4.622  0.00  0.00    +0.037 C 
ATOM     10  C   UNL     1      -1.160  -3.857  -5.116  0.00  0.00    +0.009 C 
ATOM     11  C   UNL     1      -0.326  -3.375  -3.927  0.00  0.00    +0.056 C 
ENDROOT
BRANCH   1  13
ATOM     12  C   UNL     1       0.956  -0.771  -0.761  0.00  0.00    +0.028 C 
ATOM     13  C   UNL     1       0.017   0.077   0.099  0.00  0.00    +0.077 C 
BRANCH  13  14
ATOM     14  C   UNL     1       0.223   1.557  -0.229  0.00  0.00    -0.019 C 
ATOM     15  C   UNL     1      -0.239   1.832  -1.661  0.00  0.00    +0.012 C 
ATOM     16  C   UNL     1      -0.592   2.413   0.743  0.00  0.00    +0.012 C 
ATOM     17  C   UNL     1       1.707   1.907  -0.096  0.00  0.00    +0.012 C 
ENDBRANCH  13  14
ENDBRANCH   1  13
BRANCH   8  18
ATOM     18  O   UNL     1      -4.342  -4.413  -3.219  0.00  0.00    -0.387 OA
ATOM     19  H   UNL     1      -4.982  -3.859  -2.753  0.00  0.00    +0.210 HD
ENDBRANCH   8  18
TORSDOF 3
