REMARK  Name = ZINC39858773
REMARK  10 active torsions:
REMARK  status: ('A' for Active; 'I' for Inactive)
REMARK    1  A    between atoms: C_1  and  C_2
REMARK    2  A    between atoms: C_5  and  N_9
REMARK    3  A    between atoms: C_7  and  C_8
REMARK    4  A    between atoms: C_10  and  C_12
REMARK    5  A    between atoms: C_12  and  C_34
REMARK    6  A    between atoms: C_13  and  C_14
REMARK    7  A    between atoms: C_15  and  O_25
REMARK    8  A    between atoms: O_25  and  C_26
REMARK    9  A    between atoms: C_28  and  C_33
REMARK   10  A    between atoms: C_30  and  C_32
REMARK                            x       y       z     vdW  Elec       q    Type
REMARK                         _______ _______ _______ _____ _____    ______ ____
ROOT
ATOM      1  C   UNL     1      -0.064  -6.129  -3.515  0.00  0.00    +0.103 A 
ATOM      2  C   UNL     1      -0.183  -6.815  -4.749  0.00  0.00    +0.235 A 
ATOM      3  N   UNL     1      -0.233  -6.125  -5.875  0.00  0.00    -0.194 NA
ATOM      4  C   UNL     1      -0.174  -4.792  -5.886  0.00  0.00    +0.144 A 
ATOM      5  C   UNL     1      -0.233  -4.115  -7.117  0.00  0.00    +0.047 A 
ATOM      6  C   UNL     1      -0.173  -2.753  -7.139  0.00  0.00    +0.005 A 
ATOM      7  C   UNL     1      -0.055  -2.046  -5.935  0.00  0.00    +0.018 A 
ATOM      8  C   UNL     1       0.000  -2.715  -4.760  0.00  0.00    +0.096 A 
ATOM      9  N   UNL     1      -0.059  -4.075  -4.728  0.00  0.00    -0.268 N 
ATOM     10  C   UNL     1      -0.007  -4.711  -3.537  0.00  0.00    +0.269 A 
ATOM     11  O   UNL     1       0.091  -4.078  -2.501  0.00  0.00    -0.266 OA
ENDROOT
BRANCH   1  13
ATOM     12  C   UNL     1       1.211  -7.028  -1.665  0.00  0.00    +0.114 C 
ATOM     13  C   UNL     1      -0.008  -6.835  -2.300  0.00  0.00    +0.042 C 
BRANCH  12  15
ATOM     14  N   UNL     1       3.601  -6.558  -1.575  0.00  0.00    -0.281 N 
ATOM     15  C   UNL     1       2.438  -6.482  -2.252  0.00  0.00    +0.259 C 
ATOM     16  O   UNL     1       2.408  -5.961  -3.352  0.00  0.00    -0.269 OA
ATOM     17  H   UNL     1       3.639  -7.027  -0.727  0.00  0.00    +0.155 HD
BRANCH  14  22
ATOM     18  C   UNL     1       8.276  -4.137  -3.687  0.00  0.00    +0.044 C 
ATOM     19  C   UNL     1       7.034  -4.780  -3.126  0.00  0.00    -0.047 A 
ATOM     20  C   UNL     1       6.074  -5.289  -3.981  0.00  0.00    +0.005 A 
ATOM     21  C   UNL     1       4.935  -5.879  -3.470  0.00  0.00    +0.023 A 
ATOM     22  C   UNL     1       4.754  -5.962  -2.095  0.00  0.00    +0.034 A 
ATOM     23  C   UNL     1       5.720  -5.451  -1.239  0.00  0.00    +0.027 A 
ATOM     24  C   UNL     1       6.860  -4.866  -1.757  0.00  0.00    -0.046 A 
ATOM     25  C   UNL     1       7.912  -4.317  -0.828  0.00  0.00    +0.044 C 
ENDBRANCH  14  22
ENDBRANCH  12  15
BRANCH  12  26
ATOM     26  C   UNL     1       1.269  -7.759  -0.435  0.00  0.00    +0.104 C 
ATOM     27  N   UNL     1       1.315  -8.340   0.540  0.00  0.00    -0.191 NA
ENDBRANCH  12  26
ENDBRANCH   1  13
BRANCH   2  28
ATOM     28  O   UNL     1      -0.245  -8.165  -4.774  0.00  0.00    -0.437 OA
BRANCH  28  29
ATOM     29  C   UNL     1      -0.248  -8.781  -5.985  0.00  0.00    +0.131 A 
ATOM     30  C   UNL     1       0.931  -8.900  -6.707  0.00  0.00    +0.049 A 
ATOM     31  C   UNL     1       0.925  -9.527  -7.939  0.00  0.00    -0.047 A 
ATOM     32  C   UNL     1      -0.254 -10.035  -8.451  0.00  0.00    +0.007 A 
ATOM     33  C   UNL     1      -1.430  -9.918  -7.734  0.00  0.00    -0.047 A 
ATOM     34  C   UNL     1      -1.429  -9.297  -6.500  0.00  0.00    +0.049 A 
ATOM     35  C   UNL     1      -2.714 -10.473  -8.296  0.00  0.00    +0.044 C 
ATOM     36  C   UNL     1       2.205  -9.656  -8.724  0.00  0.00    +0.044 C 
ENDBRANCH  28  29
ENDBRANCH   2  28
TORSDOF 6
