REMARK  Name = ZINC45166674
REMARK  7 active torsions:
REMARK  status: ('A' for Active; 'I' for Inactive)
REMARK    1  A    between atoms: C_1  and  C_2
REMARK    2  A    between atoms: C_2  and  C_4
REMARK    3  A    between atoms: C_2  and  N_11
REMARK    4  A    between atoms: C_4  and  N_5
REMARK    5  A    between atoms: N_11  and  S_12
REMARK    6  A    between atoms: S_12  and  C_15
REMARK    7  A    between atoms: C_16  and  N_22
REMARK                            x       y       z     vdW  Elec       q    Type
REMARK                         _______ _______ _______ _____ _____    ______ ____
ROOT
ATOM      1  S   UNL     1      -0.119  -0.608   2.857  0.00  0.00    +0.062 S 
ATOM      2  O   UNL     1       0.797  -0.785   3.929  0.00  0.00    -0.153 OA
ATOM      3  O   UNL     1      -1.255   0.241   2.958  0.00  0.00    -0.153 OA
ENDROOT
BRANCH   1   4
ATOM      4  C   UNL     1      -0.724  -2.209   2.441  0.00  0.00    +0.144 A 
ATOM      5  C   UNL     1      -1.904  -2.342   1.720  0.00  0.00    +0.053 A 
ATOM      6  C   UNL     1      -2.377  -3.606   1.393  0.00  0.00    +0.025 A 
ATOM      7  C   UNL     1      -1.673  -4.728   1.786  0.00  0.00    +0.003 A 
ATOM      8  C   UNL     1      -0.499  -4.594   2.504  0.00  0.00    +0.022 A 
ATOM      9  C   UNL     1      -0.021  -3.336   2.826  0.00  0.00    +0.069 A 
ATOM     10 CL   UNL     1       1.457  -3.172   3.720  0.00  0.00    -0.081 Cl
BRANCH   5  11
ATOM     11  N   UNL     1      -2.613  -1.205   1.325  0.00  0.00    -0.356 N 
ATOM     12  H   UNL     1      -2.212  -0.327   1.416  0.00  0.00    +0.142 HD
ATOM     13  H   UNL     1      -3.507  -1.295   0.959  0.00  0.00    +0.142 HD
ENDBRANCH   5  11
ENDBRANCH   1   4
BRANCH   1  14
ATOM     14  N   UNL     1       0.763  -0.066   1.565  0.00  0.00    -0.189 NA
ATOM     15  H   UNL     1       1.718   0.081   1.657  0.00  0.00    +0.148 HD
BRANCH  14  17
ATOM     16  C   UNL     1      -0.311   1.663   0.209  0.00  0.00    +0.024 C 
ATOM     17  C   UNL     1       0.103   0.192   0.283  0.00  0.00    +0.057 C 
BRANCH  17  18
ATOM     18  C   UNL     1       1.068  -0.125  -0.861  0.00  0.00    -0.059 C 
BRANCH  18  19
ATOM     19  N   UNL     1       1.511  -1.521  -0.755  0.00  0.00    +0.381 N 
ATOM     20  C   UNL     1       2.561  -1.776  -1.748  0.00  0.00    -0.079 C 
ATOM     21  C   UNL     1       3.084  -3.205  -1.589  0.00  0.00    -0.019 C 
ATOM     22  C   UNL     1       1.930  -4.191  -1.799  0.00  0.00    -0.004 C 
ATOM     23  C   UNL     1       0.809  -3.868  -0.806  0.00  0.00    -0.019 C 
ATOM     24  C   UNL     1       0.371  -2.414  -0.995  0.00  0.00    -0.079 C 
ATOM     25  H   UNL     1       1.879  -1.687   0.170  0.00  0.00    -0.082 HD
ENDBRANCH  18  19
ENDBRANCH  17  18
ENDBRANCH  14  17
ENDBRANCH   1  14
TORSDOF 6
