REMARK  Name = ZINC20153151
REMARK  11 active torsions:
REMARK  status: ('A' for Active; 'I' for Inactive)
REMARK    1  A    between atoms: C_1  and  O_2
REMARK    2  A    between atoms: O_2  and  C_3
REMARK    3  A    between atoms: C_6  and  C_30
REMARK    4  A    between atoms: C_8  and  N_9
REMARK    5  A    between atoms: N_9  and  C_10
REMARK    6  A    between atoms: C_10  and  N_12
REMARK    7  A    between atoms: C_13  and  C_15
REMARK    8  A    between atoms: C_18  and  N_24
REMARK    9  A    between atoms: C_19  and  N_21
REMARK   10  A    between atoms: C_33  and  C_35
REMARK   11  A    between atoms: C_35  and  O_36
REMARK                            x       y       z     vdW  Elec       q    Type
REMARK                         _______ _______ _______ _____ _____    ______ ____
ROOT
ATOM      1  C   UNL     1      -0.115  -4.120   0.083  0.00  0.00    +0.141 C 
ATOM      2  S   UNL     1      -1.627  -4.925   0.093  0.00  0.00    -0.018 S 
ENDROOT
BRANCH   1   3
ATOM      3  N   UNL     1       1.027  -4.831   0.170  0.00  0.00    -0.264 N 
ATOM      4  C   UNL     1       0.979  -6.175   0.265  0.00  0.00    +0.250 C 
ATOM      5  O   UNL     1      -0.094  -6.746   0.272  0.00  0.00    -0.270 OA
ATOM      6  H   UNL     1       1.883  -4.375   0.164  0.00  0.00    +0.157 HD
BRANCH   4   7
ATOM      7  C   UNL     1       2.228  -6.952   0.360  0.00  0.00    +0.039 A 
ATOM      8  C   UNL     1       3.463  -6.296   0.357  0.00  0.00    +0.015 A 
ATOM      9  C   UNL     1       4.620  -7.017   0.445  0.00  0.00    +0.026 A 
ATOM     10  C   UNL     1       4.575  -8.405   0.537  0.00  0.00    +0.060 A 
ATOM     11  C   UNL     1       3.350  -9.066   0.540  0.00  0.00    +0.148 A 
ATOM     12  C   UNL     1       2.180  -8.346   0.458  0.00  0.00    +0.047 A 
BRANCH  10  13
ATOM     13  N   UNL     1       5.757  -9.133   0.626  0.00  0.00    -0.324 N 
ATOM     14  C   UNL     1       6.446  -9.609  -0.584  0.00  0.00    +0.133 C 
ATOM     15  C   UNL     1       7.919  -9.195  -0.495  0.00  0.00    +0.178 C 
ATOM     16  O   UNL     1       8.457  -9.633   0.755  0.00  0.00    -0.377 OA
ATOM     17  C   UNL     1       7.833  -9.044   1.899  0.00  0.00    +0.178 C 
ATOM     18  C   UNL     1       6.358  -9.445   1.933  0.00  0.00    +0.133 C 
ENDBRANCH  10  13
BRANCH  11  19
ATOM     19  N   UNL     1       3.306 -10.543   0.637  0.00  0.00    +0.058 N 
ATOM     20  O   UNL     1       2.241 -11.117   0.640  0.00  0.00    -0.126 OA
ATOM     21  O   UNL     1       4.333 -11.175   0.715  0.00  0.00    -0.126 OA
ENDBRANCH  11  19
ENDBRANCH   4   7
ENDBRANCH   1   3
BRANCH   1  22
ATOM     22  N   UNL     1      -0.068  -2.777  -0.012  0.00  0.00    -0.294 N 
ATOM     23  H   UNL     1       0.788  -2.326  -0.081  0.00  0.00    +0.154 HD
BRANCH  22  29
ATOM     24  C   UNL     1      -1.375  -0.913   0.811  0.00  0.00    +0.141 A 
ATOM     25  C   UNL     1      -2.546  -0.171   0.809  0.00  0.00    +0.048 A 
ATOM     26  C   UNL     1      -3.599  -0.539  -0.002  0.00  0.00    +0.015 A 
ATOM     27  C   UNL     1      -3.488  -1.662  -0.824  0.00  0.00    +0.019 A 
ATOM     28  C   UNL     1      -2.310  -2.410  -0.823  0.00  0.00    +0.038 A 
ATOM     29  C   UNL     1      -1.254  -2.032  -0.011  0.00  0.00    +0.076 A 
BRANCH  27  30
ATOM     30  C   UNL     1      -4.616  -2.058  -1.692  0.00  0.00    +0.135 A 
ATOM     31  C   UNL     1      -5.811  -1.417  -1.791  0.00  0.00    +0.050 A 
ATOM     32  C   UNL     1      -6.581  -2.134  -2.729  0.00  0.00    +0.047 A 
ATOM     33  C   UNL     1      -5.826  -3.166  -3.152  0.00  0.00    +0.131 A 
ATOM     34  O   UNL     1      -4.638  -3.114  -2.528  0.00  0.00    -0.457 OA
BRANCH  33  35
ATOM     35  C   UNL     1      -6.243  -4.204  -4.162  0.00  0.00    +0.230 C 
BRANCH  35  36
ATOM     36  O   UNL     1      -5.881  -3.764  -5.473  0.00  0.00    -0.387 OA
ATOM     37  H   UNL     1      -6.120  -4.384  -6.176  0.00  0.00    +0.210 HD
ENDBRANCH  35  36
ENDBRANCH  33  35
ENDBRANCH  27  30
BRANCH  24  39
ATOM     38  C   UNL     1      -0.530   0.611   2.430  0.00  0.00    +0.277 C 
ATOM     39  O   UNL     1      -0.339  -0.545   1.612  0.00  0.00    -0.493 OA
ENDBRANCH  24  39
ENDBRANCH  22  29
ENDBRANCH   1  22
TORSDOF 10
