REMARK  Name = ZINC28875605
REMARK  4 active torsions:
REMARK  status: ('A' for Active; 'I' for Inactive)
REMARK    1  A    between atoms: C_5  and  C_7
REMARK    2  A    between atoms: C_8  and  C_22
REMARK    3  A    between atoms: C_9  and  N_21
REMARK    4  A    between atoms: C_12  and  C_13
REMARK                            x       y       z     vdW  Elec       q    Type
REMARK                         _______ _______ _______ _____ _____    ______ ____
ROOT
ATOM      1  C   UNL     1      -1.312   2.107   0.018  0.00  0.00    +0.042 A 
ATOM      2  C   UNL     1      -2.529   1.406  -0.089  0.00  0.00    +0.102 A 
ATOM      3  C   UNL     1      -3.736   2.129  -0.069  0.00  0.00    +0.137 A 
ATOM      4  N   UNL     1      -3.737   3.449   0.039  0.00  0.00    -0.215 NA
ATOM      5  C   UNL     1      -2.618   4.148   0.138  0.00  0.00    +0.142 A 
ATOM      6  C   UNL     1      -1.363   3.510   0.131  0.00  0.00    +0.102 A 
ATOM      7  N   UNL     1      -2.682   5.522   0.248  0.00  0.00    -0.313 N 
ATOM      8  C   UNL     1      -3.196   5.920   1.560  0.00  0.00    +0.117 C 
ATOM      9  C   UNL     1      -2.837   7.385   1.838  0.00  0.00    +0.088 C 
ATOM     10  S   UNL     1      -3.624   8.419   0.564  0.00  0.00    -0.158 S 
ATOM     11  C   UNL     1      -3.128   7.597  -0.982  0.00  0.00    +0.088 C 
ATOM     12  C   UNL     1      -3.447   6.103  -0.858  0.00  0.00    +0.117 C 
ENDROOT
BRANCH   1  17
ATOM     13  C   UNL     1       2.206   1.134  -0.847  0.00  0.00    +0.004 A 
ATOM     14  C   UNL     1       2.360   0.059   0.017  0.00  0.00    +0.020 A 
ATOM     15  C   UNL     1       1.310  -0.304   0.843  0.00  0.00    +0.111 A 
ATOM     16  N   UNL     1       0.171   0.357   0.818  0.00  0.00    -0.255 NA
ATOM     17  C   UNL     1      -0.017   1.391   0.007  0.00  0.00    +0.074 A 
ATOM     18  C   UNL     1       0.999   1.810  -0.852  0.00  0.00    +0.028 A 
ENDBRANCH   1  17
BRANCH   3  19
ATOM     19  N   UNL     1      -4.936   1.454  -0.168  0.00  0.00    -0.342 N 
ATOM     20  H   UNL     1      -5.884   2.011  -0.153  0.00  0.00    +0.144 HD
ATOM     21  H   UNL     1      -4.944   0.358  -0.263  0.00  0.00    +0.144 HD
ENDBRANCH   3  19
BRANCH   6  22
ATOM     22  C   UNL     1      -0.158   4.275   0.239  0.00  0.00    +0.103 C 
ATOM     23  N   UNL     1       0.799   4.882   0.324  0.00  0.00    -0.191 NA
ENDBRANCH   6  22
BRANCH   2  24
ATOM     24  C   UNL     1      -2.538  -0.020  -0.213  0.00  0.00    +0.103 C 
ATOM     25  N   UNL     1      -2.545  -1.152  -0.312  0.00  0.00    -0.191 NA
ENDBRANCH   2  24
TORSDOF 4
