REMARK  Name = ZINC39710428
REMARK  9 active torsions:
REMARK  status: ('A' for Active; 'I' for Inactive)
REMARK    1  A    between atoms: C_1  and  C_2
REMARK    2  A    between atoms: C_2  and  C_3
REMARK    3  A    between atoms: C_10  and  C_15
REMARK    4  A    between atoms: C_15  and  C_17
REMARK    5  A    between atoms: C_15  and  N_27
REMARK    6  A    between atoms: N_22  and  C_23
REMARK    7  A    between atoms: C_23  and  C_24
REMARK    8  A    between atoms: C_23  and  C_25
REMARK    9  A    between atoms: C_23  and  C_26
REMARK                            x       y       z     vdW  Elec       q    Type
REMARK                         _______ _______ _______ _____ _____    ______ ____
ROOT
ATOM      1  C   UNL     1       5.789  -3.118  -3.074  0.00  0.00    -0.010 C 
ENDROOT
BRANCH   1   9
ATOM      2  C   UNL     1       2.966  -4.192  -8.067  0.00  0.00    -0.047 A 
ATOM      3  C   UNL     1       3.669  -3.190  -8.736  0.00  0.00    +0.005 A 
ATOM      4  C   UNL     1       4.428  -2.269  -8.087  0.00  0.00    +0.024 A 
ATOM      5  C   UNL     1       4.536  -2.293  -6.684  0.00  0.00    +0.040 A 
ATOM      6  N   UNL     1       5.283  -1.384  -6.058  0.00  0.00    -0.285 N 
ATOM      7  C   UNL     1       5.428  -1.349  -4.744  0.00  0.00    +0.223 C 
ATOM      8  O   UNL     1       6.123  -0.495  -4.229  0.00  0.00    -0.275 OA
ATOM      9  C   UNL     1       4.724  -2.375  -3.885  0.00  0.00    +0.088 C 
ATOM     10  C   UNL     1       3.873  -3.411  -4.592  0.00  0.00    -0.006 C 
ATOM     11  C   UNL     1       3.804  -3.341  -5.952  0.00  0.00    -0.007 A 
ATOM     12  C   UNL     1       3.001  -4.298  -6.714  0.00  0.00    +0.013 A 
ATOM     13  H   UNL     1       5.743  -0.716  -6.591  0.00  0.00    +0.155 HD
BRANCH   2  15
ATOM     14  C   UNL     1       0.726  -4.633  -9.035  0.00  0.00    +0.009 C 
ATOM     15  C   UNL     1       2.146  -5.175  -8.863  0.00  0.00    +0.032 C 
ENDBRANCH   2  15
ENDBRANCH   1   9
BRANCH   1  16
ATOM     16  N   UNL     1       6.881  -3.532  -3.965  0.00  0.00    +0.385 N 
ATOM     17  C   UNL     1       7.609  -4.652  -3.355  0.00  0.00    -0.078 C 
ATOM     18  C   UNL     1       8.697  -5.140  -4.314  0.00  0.00    -0.019 C 
ATOM     19  C   UNL     1       9.670  -3.992  -4.601  0.00  0.00    -0.004 C 
ATOM     20  C   UNL     1       8.888  -2.803  -5.167  0.00  0.00    -0.019 C 
ATOM     21  C   UNL     1       7.793  -2.401  -4.176  0.00  0.00    -0.078 C 
ATOM     22  H   UNL     1       6.499  -3.825  -4.851  0.00  0.00    -0.081 HD
ENDBRANCH   1  16
BRANCH   1  23
ATOM     23  C   UNL     1       5.164  -4.354  -2.424  0.00  0.00    +0.205 C 
ATOM     24  N   UNL     1       4.525  -5.201  -3.441  0.00  0.00    -0.152 NA
ATOM     25  N   UNL     1       3.321  -5.284  -3.191  0.00  0.00    -0.070 NA
ATOM     26  N   UNL     1       2.952  -4.568  -2.052  0.00  0.00    -0.179 N 
ATOM     27  N   UNL     1       4.063  -3.961  -1.520  0.00  0.00    -0.183 NA
ATOM     28  H   UNL     1       2.054  -4.509  -1.692  0.00  0.00    +0.191 HD
BRANCH  27  29
ATOM     29  C   UNL     1       3.902  -2.501  -1.490  0.00  0.00    +0.035 C 
ATOM     30  C   UNL     1       2.963  -2.068  -2.617  0.00  0.00    +0.029 C 
ATOM     31  C   UNL     1       3.311  -2.081  -0.143  0.00  0.00    +0.029 C 
ATOM     32  C   UNL     1       5.266  -1.834  -1.679  0.00  0.00    +0.029 C 
ENDBRANCH  27  29
ENDBRANCH   1  23
TORSDOF 5
