REMARK  Name = ZINC13572080
REMARK  5 active torsions:
REMARK  status: ('A' for Active; 'I' for Inactive)
REMARK    1  A    between atoms: C_1  and  C_2
REMARK    2  A    between atoms: C_5  and  C_8
REMARK    3  A    between atoms: C_13  and  C_29
REMARK    4  A    between atoms: C_25  and  C_27
REMARK    5  A    between atoms: C_25  and  C_28
REMARK                            x       y       z     vdW  Elec       q    Type
REMARK                         _______ _______ _______ _____ _____    ______ ____
ROOT
ATOM      1  C   UNL     1      -0.403  -4.209  -0.725  0.00  0.00    +0.094 C 
ATOM      2  C   UNL     1      -1.290  -4.766   0.344  0.00  0.00    +0.071 A 
ATOM      3  C   UNL     1      -1.183  -6.097   0.778  0.00  0.00    +0.167 A 
ATOM      4  N   UNL     1      -0.404  -7.091   0.427  0.00  0.00    -0.206 NA
ATOM      5  C   UNL     1      -0.705  -8.173   1.155  0.00  0.00    +0.182 A 
ATOM      6  N   UNL     1      -1.690  -7.885   1.991  0.00  0.00    -0.143 NA
ATOM      7  N   UNL     1      -2.026  -6.556   1.776  0.00  0.00    -0.201 N 
ATOM      8  C   UNL     1      -2.951  -5.737   2.337  0.00  0.00    +0.229 A 
ATOM      9  N   UNL     1      -3.032  -4.500   1.910  0.00  0.00    -0.201 NA
ATOM     10  C   UNL     1      -2.248  -3.994   0.945  0.00  0.00    +0.229 A 
ATOM     11  O   UNL     1      -2.413  -2.709   0.562  0.00  0.00    -0.441 OA
ATOM     12  C   UNL     1      -1.411  -2.048  -0.043  0.00  0.00    +0.115 C 
ATOM     13  C   UNL     1      -0.418  -2.700  -0.676  0.00  0.00    +0.045 C 
ATOM     14  C   UNL     1       0.634  -2.005  -1.301  0.00  0.00    +0.164 C 
ATOM     15  O   UNL     1       1.499  -2.630  -1.881  0.00  0.00    -0.292 OA
ATOM     16  C   UNL     1       0.710  -0.502  -1.262  0.00  0.00    +0.086 C 
ATOM     17  C   UNL     1       0.002  -0.004   0.002  0.00  0.00    -0.021 C 
ATOM     18  C   UNL     1      -1.432  -0.538   0.003  0.00  0.00    +0.081 C 
ATOM     19  C   UNL     1      -0.019   1.526   0.010  0.00  0.00    +0.012 C 
ATOM     20  C   UNL     1       0.741  -0.515   1.240  0.00  0.00    +0.012 C 
ENDROOT
BRANCH   1  25
ATOM     21  C   UNL     1      -2.300  -5.979  -5.888  0.00  0.00    +0.044 C 
ATOM     22  C   UNL     1      -1.805  -5.517  -4.542  0.00  0.00    -0.050 A 
ATOM     23  C   UNL     1      -0.532  -5.854  -4.121  0.00  0.00    +0.003 A 
ATOM     24  C   UNL     1      -0.079  -5.431  -2.885  0.00  0.00    +0.005 A 
ATOM     25  C   UNL     1      -0.898  -4.670  -2.071  0.00  0.00    -0.035 A 
ATOM     26  C   UNL     1      -2.172  -4.338  -2.491  0.00  0.00    +0.005 A 
ATOM     27  C   UNL     1      -2.624  -4.757  -3.728  0.00  0.00    +0.003 A 
ENDBRANCH   1  25
BRANCH   5  28
ATOM     28  C   UNL     1      -0.035  -9.494   1.044  0.00  0.00    +0.024 A 
ATOM     29  C   UNL     1       0.996  -9.700   0.123  0.00  0.00    +0.031 A 
ATOM     30  C   UNL     1       1.595 -10.942   0.057  0.00  0.00    +0.111 A 
ATOM     31  N   UNL     1       1.199 -11.928   0.839  0.00  0.00    -0.263 NA
ATOM     32  C   UNL     1       0.226 -11.776   1.717  0.00  0.00    +0.111 A 
ATOM     33  C   UNL     1      -0.423 -10.565   1.853  0.00  0.00    +0.031 A 
ENDBRANCH   5  28
TORSDOF 2
