REMARK  Name = ZINC48284143
REMARK  6 active torsions:
REMARK  status: ('A' for Active; 'I' for Inactive)
REMARK    1  A    between atoms: C_3  and  N_9
REMARK    2  A    between atoms: C_6  and  C_7
REMARK    3  A    between atoms: N_12  and  C_13
REMARK    4  A    between atoms: N_12  and  C_16
REMARK    5  A    between atoms: C_13  and  C_14
REMARK    6  A    between atoms: C_14  and  O_15
REMARK                            x       y       z     vdW  Elec       q    Type
REMARK                         _______ _______ _______ _____ _____    ______ ____
ROOT
ATOM      1  N   UNL     1       3.579   2.133  -0.022  0.00  0.00    -0.269 N 
ATOM      2  C   UNL     1       4.755   1.480   0.065  0.00  0.00    +0.307 C 
ATOM      3  O   UNL     1       4.777   0.265   0.058  0.00  0.00    -0.252 OA
ATOM      4  N   UNL     1       5.906   2.175   0.159  0.00  0.00    -0.280 N 
ATOM      5  H   UNL     1       3.565   3.100  -0.094  0.00  0.00    +0.156 HD
ENDROOT
BRANCH   1   8
ATOM      6  C   UNL     1       1.097  -0.457   0.761  0.00  0.00    +0.020 A 
ATOM      7  C   UNL     1       2.278   0.252   0.744  0.00  0.00    +0.024 A 
ATOM      8  C   UNL     1       2.381   1.418  -0.007  0.00  0.00    +0.035 A 
ATOM      9  C   UNL     1       1.292   1.873  -0.744  0.00  0.00    +0.024 A 
ATOM     10  C   UNL     1       0.108   1.170  -0.732  0.00  0.00    +0.020 A 
ATOM     11  C   UNL     1       0.001  -0.002   0.022  0.00  0.00    +0.052 A 
BRANCH  11  12
ATOM     12  C   UNL     1      -1.228  -0.737   0.037  0.00  0.00    +0.099 C 
ATOM     13  N   UNL     1      -2.204  -1.319   0.049  0.00  0.00    -0.191 NA
ENDBRANCH  11  12
ENDBRANCH   1   8
BRANCH   4  14
ATOM     14  C   UNL     1       7.184   1.465   0.253  0.00  0.00    +0.078 C 
ATOM     15  C   UNL     1       7.360   0.530  -0.961  0.00  0.00    +0.022 C 
ATOM     16  C   UNL     1       8.060  -0.723  -0.378  0.00  0.00    +0.002 C 
ATOM     17  C   UNL     1       7.382  -0.880   1.006  0.00  0.00    +0.002 C 
ATOM     18  C   UNL     1       7.198   0.569   1.504  0.00  0.00    +0.022 C 
ENDBRANCH   4  14
BRANCH   4  19
ATOM     19  C   UNL     1       5.879   3.639   0.167  0.00  0.00    +0.137 C 
BRANCH  19  20
ATOM     20  C   UNL     1       5.758   4.139   1.608  0.00  0.00    +0.175 C 
BRANCH  20  21
ATOM     21  O   UNL     1       6.933   3.779   2.337  0.00  0.00    -0.393 OA
ATOM     22  H   UNL     1       6.926   4.065   3.261  0.00  0.00    +0.209 HD
ENDBRANCH  20  21
ENDBRANCH  19  20
ENDBRANCH   4  19
TORSDOF 6
