REMARK  Name = ZINC52015726
REMARK  6 active torsions:
REMARK  status: ('A' for Active; 'I' for Inactive)
REMARK    1  A    between atoms: C_3  and  S_11
REMARK    2  A    between atoms: C_4  and  N_10
REMARK    3  A    between atoms: C_6  and  N_7
REMARK    4  A    between atoms: S_11  and  N_14
REMARK    5  A    between atoms: N_14  and  C_15
REMARK    6  A    between atoms: C_21  and  O_23
REMARK                            x       y       z     vdW  Elec       q    Type
REMARK                         _______ _______ _______ _____ _____    ______ ____
ROOT
ATOM      1  S   UNL     1       3.810   2.343   0.096  0.00  0.00    +0.060 S 
ATOM      2  O   UNL     1       4.641   1.763  -0.900  0.00  0.00    -0.153 OA
ATOM      3  O   UNL     1       3.330   3.678   0.005  0.00  0.00    -0.153 OA
ENDROOT
BRANCH   1   6
ATOM      4  C   UNL     1       1.143  -0.608  -0.478  0.00  0.00    +0.035 A 
ATOM      5  C   UNL     1       2.256   0.206  -0.587  0.00  0.00    +0.032 A 
ATOM      6  C   UNL     1       2.391   1.307   0.235  0.00  0.00    +0.126 A 
ATOM      7  C   UNL     1       1.408   1.597   1.173  0.00  0.00    +0.053 A 
ATOM      8  C   UNL     1       0.292   0.777   1.280  0.00  0.00    +0.057 A 
ATOM      9  C   UNL     1       0.163  -0.323   0.454  0.00  0.00    +0.128 A 
BRANCH   9  10
ATOM     10  N   UNL     1      -1.026  -1.196   0.567  0.00  0.00    +0.056 N 
ATOM     11  O   UNL     1      -1.140  -2.159  -0.156  0.00  0.00    -0.126 OA
ATOM     12  O   UNL     1      -1.884  -0.948   1.381  0.00  0.00    -0.126 OA
ENDBRANCH   9  10
BRANCH   7  13
ATOM     13  N   UNL     1       1.542   2.709   2.007  0.00  0.00    -0.356 N 
ATOM     14  H   UNL     1       2.292   3.314   1.892  0.00  0.00    +0.142 HD
ATOM     15  H   UNL     1       0.885   2.877   2.701  0.00  0.00    +0.142 HD
ENDBRANCH   7  13
ENDBRANCH   1   6
BRANCH   1  16
ATOM     16  N   UNL     1       4.638   2.234   1.526  0.00  0.00    -0.184 NA
ATOM     17  H   UNL     1       4.717   3.011   2.101  0.00  0.00    +0.148 HD
BRANCH  16  18
ATOM     18  C   UNL     1       5.251   0.964   1.923  0.00  0.00    +0.105 C 
ATOM     19  C   UNL     1       6.724   0.958   1.510  0.00  0.00    +0.023 C 
ATOM     20  C   UNL     1       7.364  -0.368   1.925  0.00  0.00    +0.002 C 
ATOM     21  C   UNL     1       7.259  -0.534   3.442  0.00  0.00    +0.003 C 
ATOM     22  C   UNL     1       5.785  -0.528   3.854  0.00  0.00    +0.033 C 
ATOM     23  C   UNL     1       5.145   0.799   3.440  0.00  0.00    +0.133 C 
BRANCH  23  24
ATOM     24  O   UNL     1       3.769   0.805   3.825  0.00  0.00    -0.390 OA
ATOM     25  H   UNL     1       3.627   0.704   4.776  0.00  0.00    +0.210 HD
ENDBRANCH  23  24
ENDBRANCH  16  18
ENDBRANCH   1  16
TORSDOF 6
