REMARK  Name = ZINC01768091
REMARK  4 active torsions:
REMARK  status: ('A' for Active; 'I' for Inactive)
REMARK    1  A    between atoms: C_6  and  N_7
REMARK    2  A    between atoms: N_7  and  C_8
REMARK    3  A    between atoms: C_8  and  C_9
REMARK    4  A    between atoms: C_15  and  N_20
REMARK                            x       y       z     vdW  Elec       q    Type
REMARK                         _______ _______ _______ _____ _____    ______ ____
ROOT
ATOM      1  C   UNL     1       2.265  -4.276  -0.043  0.00  0.00    -0.030 A 
ATOM      2  C   UNL     1       2.167  -4.961   1.164  0.00  0.00    +0.007 A 
ATOM      3  C   UNL     1       1.935  -6.304   1.194  0.00  0.00    +0.029 A 
ATOM      4  C   UNL     1       1.802  -7.010  -0.010  0.00  0.00    +0.078 A 
ATOM      5  C   UNL     1       1.908  -6.312  -1.238  0.00  0.00    +0.040 A 
ATOM      6  C   UNL     1       2.141  -4.933  -1.233  0.00  0.00    +0.018 A 
ATOM      7  C   UNL     1       1.770  -7.047  -2.442  0.00  0.00    +0.129 A 
ATOM      8  N   UNL     1       1.550  -8.351  -2.361  0.00  0.00    -0.200 NA
ATOM      9  C   UNL     1       1.458  -8.967  -1.186  0.00  0.00    +0.215 A 
ATOM     10  N   UNL     1       1.577  -8.332  -0.036  0.00  0.00    -0.215 NA
ATOM     11  N   UNL     1       1.227 -10.330  -1.169  0.00  0.00    -0.327 N 
ATOM     12  H   UNL     1       1.135 -10.817  -2.003  0.00  0.00    +0.145 HD
ATOM     13  H   UNL     1       1.156 -10.800  -0.323  0.00  0.00    +0.145 HD
ENDROOT
BRANCH   7  14
ATOM     14  N   UNL     1       1.863  -6.420  -3.667  0.00  0.00    -0.343 N 
ATOM     15  H   UNL     1       2.024  -5.465  -3.712  0.00  0.00    +0.144 HD
ATOM     16  H   UNL     1       1.767  -6.935  -4.483  0.00  0.00    +0.144 HD
ENDBRANCH   7  14
BRANCH   1  17
ATOM     17  C   UNL     1       2.517  -2.790  -0.037  0.00  0.00    +0.137 C 
BRANCH  17  18
ATOM     18  N   UNL     1       1.237  -2.078  -0.021  0.00  0.00    -0.340 N 
ATOM     19  H   UNL     1       0.405  -2.576  -0.016  0.00  0.00    +0.146 HD
BRANCH  18  25
ATOM     20  C   UNL     1       0.002  -0.004   0.002  0.00  0.00    +0.024 A 
ATOM     21  C   UNL     1      -0.017   1.377   0.010  0.00  0.00    +0.022 A 
ATOM     22  C   UNL     1       1.171   2.086   0.002  0.00  0.00    +0.041 A 
ATOM     23  C   UNL     1       2.381   1.415  -0.013  0.00  0.00    +0.022 A 
ATOM     24  C   UNL     1       2.406   0.034  -0.021  0.00  0.00    +0.024 A 
ATOM     25  C   UNL     1       1.215  -0.681  -0.013  0.00  0.00    +0.027 A 
ATOM     26 CL   UNL     1       1.144   3.822   0.012  0.00  0.00    -0.084 Cl
ENDBRANCH  18  25
ENDBRANCH  17  18
ENDBRANCH   1  17
TORSDOF 4
