REMARK  Name = ZINC46905837
REMARK  12 active torsions:
REMARK  status: ('A' for Active; 'I' for Inactive)
REMARK    1  A    between atoms: C_1  and  C_2
REMARK    2  A    between atoms: C_2  and  C_3
REMARK    3  A    between atoms: C_2  and  C_4
REMARK    4  A    between atoms: C_4  and  C_6
REMARK    5  A    between atoms: C_4  and  N_21
REMARK    6  A    between atoms: C_6  and  N_7
REMARK    7  A    between atoms: N_10  and  N_11
REMARK    8  A    between atoms: C_12  and  C_14
REMARK    9  A    between atoms: N_21  and  C_22
REMARK   10  A    between atoms: N_21  and  C_25
REMARK   11  A    between atoms: C_22  and  C_23
REMARK   12  A    between atoms: C_25  and  C_26
REMARK                            x       y       z     vdW  Elec       q    Type
REMARK                         _______ _______ _______ _____ _____    ______ ____
ROOT
ATOM      1  N   UNL     1      -4.159  -0.308   0.742  0.00  0.00    -0.300 N 
ATOM      2  C   UNL     1      -5.229   0.219   1.370  0.00  0.00    +0.316 C 
ATOM      3  O   UNL     1      -5.074   1.074   2.221  0.00  0.00    -0.251 OA
ATOM      4  N   UNL     1      -6.470  -0.201   1.055  0.00  0.00    -0.218 N 
ATOM      5  H   UNL     1      -4.285  -0.935   0.013  0.00  0.00    +0.150 HD
ATOM      6  H   UNL     1      -7.243   0.230   1.452  0.00  0.00    +0.174 HD
ENDROOT
BRANCH   4   7
ATOM      7  N   UNL     1      -6.644  -1.260   0.154  0.00  0.00    -0.229 N 
ATOM      8  C   UNL     1      -7.883  -1.611  -0.242  0.00  0.00    +0.260 C 
ATOM      9  O   UNL     1      -8.850  -1.009   0.182  0.00  0.00    -0.269 OA
ATOM     10  H   UNL     1      -5.872  -1.741  -0.184  0.00  0.00    +0.173 HD
BRANCH   8  11
ATOM     11  C   UNL     1      -8.066  -2.728  -1.192  0.00  0.00    +0.038 A 
ATOM     12  C   UNL     1      -6.957  -3.425  -1.676  0.00  0.00    +0.016 A 
ATOM     13  C   UNL     1      -7.133  -4.467  -2.561  0.00  0.00    +0.039 A 
ATOM     14  C   UNL     1      -8.409  -4.822  -2.972  0.00  0.00    +0.123 A 
ATOM     15  C   UNL     1      -9.513  -4.133  -2.495  0.00  0.00    +0.039 A 
ATOM     16  C   UNL     1      -9.349  -3.094  -1.604  0.00  0.00    +0.016 A 
ATOM     17  F   UNL     1      -8.576  -5.844  -3.840  0.00  0.00    -0.205 F 
ENDBRANCH   8  11
ENDBRANCH   4   7
BRANCH   1  18
ATOM     18  C   UNL     1      -2.806   0.066   1.161  0.00  0.00    +0.091 C 
BRANCH  18  19
ATOM     19  C   UNL     1      -1.786  -0.567   0.213  0.00  0.00    -0.048 C 
BRANCH  19  21
ATOM     20  C   UNL     1      -0.416   1.300   1.153  0.00  0.00    +0.005 C 
ATOM     21  C   UNL     1      -0.376  -0.134   0.619  0.00  0.00    -0.029 C 
ATOM     22  C   UNL     1       0.152  -1.069   1.708  0.00  0.00    +0.005 C 
ENDBRANCH  19  21
BRANCH  19  23
ATOM     23  N   UNL     1      -2.057  -0.128  -1.162  0.00  0.00    +0.387 N 
ATOM     24  H   UNL     1      -3.022  -0.311  -1.390  0.00  0.00    -0.080 HD
BRANCH  23  25
ATOM     25  C   UNL     1      -1.792   1.313  -1.277  0.00  0.00    -0.051 C 
BRANCH  25  26
ATOM     26  C   UNL     1      -2.253   1.802  -2.626  0.00  0.00    -0.053 C 
ATOM     27  C   UNL     1      -3.098   2.800  -2.706  0.00  0.00    +0.002 C 
ENDBRANCH  25  26
ENDBRANCH  23  25
BRANCH  23  28
ATOM     28  C   UNL     1      -1.186  -0.861  -2.091  0.00  0.00    -0.051 C 
BRANCH  28  29
ATOM     29  C   UNL     1      -1.510  -2.331  -2.027  0.00  0.00    -0.053 C 
ATOM     30  C   UNL     1      -1.867  -2.971  -3.113  0.00  0.00    +0.002 C 
ENDBRANCH  28  29
ENDBRANCH  23  28
ENDBRANCH  19  23
ENDBRANCH  18  19
ENDBRANCH   1  18
TORSDOF 10
