REMARK  Name = ZINC63394684
REMARK  7 active torsions:
REMARK  status: ('A' for Active; 'I' for Inactive)
REMARK    1  A    between atoms: C_1  and  N_2
REMARK    2  A    between atoms: C_3  and  C_5
REMARK    3  A    between atoms: C_8  and  N_11
REMARK    4  A    between atoms: N_14  and  C_15
REMARK    5  A    between atoms: C_18  and  O_21
REMARK    6  A    between atoms: O_21  and  C_22
REMARK    7  A    between atoms: C_25  and  C_28
REMARK                            x       y       z     vdW  Elec       q    Type
REMARK                         _______ _______ _______ _____ _____    ______ ____
ROOT
ATOM      1  N   UNL     1      -3.136  -3.552  -2.288  0.00  0.00    -0.296 N 
ATOM      2  C   UNL     1      -4.019  -4.425  -2.812  0.00  0.00    +0.304 C 
ATOM      3  O   UNL     1      -3.866  -5.620  -2.644  0.00  0.00    -0.253 OA
ATOM      4  N   UNL     1      -5.071  -3.974  -3.523  0.00  0.00    -0.269 N 
ATOM      5  H   UNL     1      -3.258  -2.599  -2.423  0.00  0.00    +0.151 HD
ATOM      6  H   UNL     1      -5.263  -3.024  -3.555  0.00  0.00    +0.156 HD
ENDROOT
BRANCH   1  10
ATOM      7  C   UNL     1      -1.772  -1.909   0.480  0.00  0.00    +0.075 C 
ATOM      8  C   UNL     1      -1.349  -1.690  -0.974  0.00  0.00    +0.014 C 
ATOM      9  C   UNL     1      -0.861  -3.012  -1.569  0.00  0.00    +0.023 C 
ATOM     10  C   UNL     1      -1.991  -4.043  -1.516  0.00  0.00    +0.074 C 
ATOM     11  C   UNL     1      -2.414  -4.262  -0.062  0.00  0.00    +0.023 C 
ATOM     12  C   UNL     1      -2.902  -2.939   0.533  0.00  0.00    +0.014 C 
BRANCH   7  15
ATOM     13  C   UNL     1      -1.888   1.720   1.694  0.00  0.00    +0.128 C 
ATOM     14  N   UNL     1      -1.421   0.453   1.125  0.00  0.00    -0.318 N 
ATOM     15  C   UNL     1      -2.252  -0.606   1.066  0.00  0.00    +0.216 C 
ATOM     16  O   UNL     1      -3.386  -0.511   1.484  0.00  0.00    -0.276 OA
ATOM     17  H   UNL     1      -0.514   0.377   0.790  0.00  0.00    +0.148 HD
ENDBRANCH   7  15
ENDBRANCH   1  10
BRANCH   4  18
ATOM     18  C   UNL     1      -5.888  -4.878  -4.215  0.00  0.00    +0.035 A 
ATOM     19  C   UNL     1      -6.558  -4.472  -5.361  0.00  0.00    +0.027 A 
ATOM     20  C   UNL     1      -7.363  -5.363  -6.043  0.00  0.00    +0.048 A 
ATOM     21  C   UNL     1      -7.503  -6.664  -5.582  0.00  0.00    +0.129 A 
ATOM     22  C   UNL     1      -6.834  -7.071  -4.437  0.00  0.00    +0.048 A 
ATOM     23  C   UNL     1      -6.024  -6.182  -3.758  0.00  0.00    +0.027 A 
BRANCH  21  24
ATOM     24  O   UNL     1      -8.296  -7.541  -6.254  0.00  0.00    -0.456 OA
BRANCH  24  25
ATOM     25  C   UNL     1      -8.780  -7.164  -7.465  0.00  0.00    +0.129 A 
ATOM     26  C   UNL     1      -7.959  -7.216  -8.586  0.00  0.00    +0.047 A 
ATOM     27  C   UNL     1      -8.447  -6.834  -9.816  0.00  0.00    +0.022 A 
ATOM     28  C   UNL     1      -9.768  -6.395  -9.937  0.00  0.00    +0.052 A 
ATOM     29  C   UNL     1     -10.589  -6.345  -8.807  0.00  0.00    +0.022 A 
ATOM     30  C   UNL     1     -10.096  -6.733  -7.581  0.00  0.00    +0.047 A 
BRANCH  28  31
ATOM     31  C   UNL     1     -10.278  -5.997 -11.214  0.00  0.00    +0.099 C 
ATOM     32  N   UNL     1     -10.683  -5.681 -12.227  0.00  0.00    -0.191 NA
ENDBRANCH  28  31
ENDBRANCH  24  25
ENDBRANCH  21  24
ENDBRANCH   4  18
TORSDOF 6
