REMARK  Name = ZINC01028326
REMARK  10 active torsions:
REMARK  status: ('A' for Active; 'I' for Inactive)
REMARK    1  A    between atoms: C_1  and  C_2
REMARK    2  A    between atoms: C_4  and  C_11
REMARK    3  A    between atoms: N_6  and  C_7
REMARK    4  A    between atoms: C_7  and  C_8
REMARK    5  A    between atoms: C_7  and  C_9
REMARK    6  A    between atoms: C_7  and  C_10
REMARK    7  A    between atoms: N_13  and  N_14
REMARK    8  A    between atoms: C_15  and  C_17
REMARK    9  A    between atoms: C_18  and  C_29
REMARK   10  A    between atoms: C_21  and  C_22
REMARK                            x       y       z     vdW  Elec       q    Type
REMARK                         _______ _______ _______ _____ _____    ______ ____
ROOT
ATOM      1  N   UNL     1       1.123   6.853  -1.297  0.00  0.00    -0.230 N 
ATOM      2  C   UNL     1       1.620   6.570  -0.076  0.00  0.00    +0.266 C 
ATOM      3  O   UNL     1       1.195   7.153   0.903  0.00  0.00    -0.268 OA
ATOM      4  H   UNL     1       1.462   6.387  -2.078  0.00  0.00    +0.173 HD
ENDROOT
BRANCH   2   5
ATOM      5  C   UNL     1       2.676   5.554   0.072  0.00  0.00    +0.107 A 
ATOM      6  C   UNL     1       4.035   5.735   0.127  0.00  0.00    +0.147 A 
ATOM      7  O   UNL     1       4.575   4.521   0.260  0.00  0.00    -0.359 OA
ATOM      8  N   UNL     1       3.758   3.635   0.300  0.00  0.00    -0.077 NA
ATOM      9  C   UNL     1       2.534   4.089   0.202  0.00  0.00    +0.127 A 
ATOM     10  C   UNL     1       4.774   7.046   0.044  0.00  0.00    +0.090 C 
BRANCH   9  11
ATOM     11  C   UNL     1       1.277   3.302   0.213  0.00  0.00    +0.023 A 
ATOM     12  C   UNL     1       0.208   3.703   1.012  0.00  0.00    +0.011 A 
ATOM     13  C   UNL     1      -0.959   2.967   1.019  0.00  0.00    +0.001 A 
ATOM     14  C   UNL     1      -1.069   1.830   0.238  0.00  0.00    +0.001 A 
ATOM     15  C   UNL     1      -0.014   1.430  -0.562  0.00  0.00    +0.020 A 
ATOM     16  C   UNL     1       1.160   2.158  -0.577  0.00  0.00    +0.050 A 
ATOM     17 CL   UNL     1       2.486   1.652  -1.576  0.00  0.00    -0.083 Cl
ENDBRANCH   9  11
ENDBRANCH   2   5
BRANCH   1  20
ATOM     18  C   UNL     1      -0.378   8.101  -2.658  0.00  0.00    +0.280 C 
ATOM     19  O   UNL     1       0.047   7.518  -3.637  0.00  0.00    -0.267 OA
ATOM     20  N   UNL     1       0.119   7.819  -1.438  0.00  0.00    -0.229 N 
ATOM     21  H   UNL     1      -0.220   8.284  -0.657  0.00  0.00    +0.173 HD
BRANCH  18  25
ATOM     22  C   UNL     1      -3.875  11.218  -4.593  0.00  0.00    +0.065 C 
ATOM     23  C   UNL     1      -2.955  10.470  -3.663  0.00  0.00    +0.037 A 
ATOM     24  C   UNL     1      -2.053   9.524  -4.015  0.00  0.00    +0.057 A 
ATOM     25  C   UNL     1      -1.437   9.120  -2.807  0.00  0.00    +0.149 A 
ATOM     26  N   UNL     1      -1.992   9.822  -1.839  0.00  0.00    -0.166 NA
ATOM     27  N   UNL     1      -2.876  10.618  -2.323  0.00  0.00    -0.263 N 
BRANCH  27  28
ATOM     28  C   UNL     1      -3.687  11.549  -1.534  0.00  0.00    +0.056 C 
ATOM     29  C   UNL     1      -5.169  11.319  -1.839  0.00  0.00    +0.036 C 
ATOM     30  C   UNL     1      -3.431  11.312  -0.044  0.00  0.00    +0.036 C 
ATOM     31  C   UNL     1      -3.309  12.987  -1.894  0.00  0.00    +0.036 C 
ENDBRANCH  27  28
ENDBRANCH  18  25
ENDBRANCH   1  20
TORSDOF 5
