REMARK  Name = ZINC34896962
REMARK  12 active torsions:
REMARK  status: ('A' for Active; 'I' for Inactive)
REMARK    1  A    between atoms: C_1  and  C_2
REMARK    2  A    between atoms: C_2  and  C_3
REMARK    3  A    between atoms: C_3  and  N_4
REMARK    4  A    between atoms: C_8  and  C_33
REMARK    5  A    between atoms: C_10  and  C_22
REMARK    6  A    between atoms: C_12  and  C_20
REMARK    7  A    between atoms: C_13  and  N_19
REMARK    8  A    between atoms: C_14  and  C_15
REMARK    9  A    between atoms: C_14  and  C_17
REMARK   10  A    between atoms: C_25  and  O_28
REMARK   11  A    between atoms: O_28  and  C_29
REMARK   12  A    between atoms: C_29  and  C_30
REMARK                            x       y       z     vdW  Elec       q    Type
REMARK                         _______ _______ _______ _____ _____    ______ ____
ROOT
ATOM      1  N   UNL     1       0.424  -2.135  -1.311  0.00  0.00    -0.298 NA
ATOM      2  C   UNL     1       1.289  -2.562  -0.199  0.00  0.00    +0.111 C 
ATOM      3  C   UNL     1       1.337  -4.066  -0.193  0.00  0.00    -0.009 C 
ATOM      4  C   UNL     1       1.194  -4.757  -1.286  0.00  0.00    -0.025 C 
ATOM      5  C   UNL     1       0.991  -4.135  -2.642  0.00  0.00    +0.016 C 
ATOM      6  C   UNL     1       0.968  -2.615  -2.584  0.00  0.00    +0.096 C 
ATOM      7  C   UNL     1       2.136  -4.585  -3.556  0.00  0.00    +0.072 C 
ATOM      8  C   UNL     1       2.388  -6.054  -3.416  0.00  0.00    +0.057 C 
ATOM      9  C   UNL     1       2.008  -6.801  -2.382  0.00  0.00    +0.054 C 
ATOM     10  C   UNL     1       1.227  -6.271  -1.214  0.00  0.00    +0.202 C 
ATOM     11  C   UNL     1      -0.328  -4.637  -3.234  0.00  0.00    +0.018 C 
ENDROOT
BRANCH   7  12
ATOM     12  C   UNL     1       1.778  -4.279  -4.987  0.00  0.00    -0.038 A 
ATOM     13  C   UNL     1       2.321  -3.173  -5.613  0.00  0.00    +0.008 A 
ATOM     14  C   UNL     1       1.994  -2.890  -6.925  0.00  0.00    +0.046 A 
ATOM     15  C   UNL     1       1.119  -3.717  -7.614  0.00  0.00    +0.121 A 
ATOM     16  C   UNL     1       0.575  -4.826  -6.984  0.00  0.00    +0.046 A 
ATOM     17  C   UNL     1       0.909  -5.108  -5.673  0.00  0.00    +0.008 A 
BRANCH  15  18
ATOM     18  O   UNL     1       0.794  -3.440  -8.905  0.00  0.00    -0.483 OA
BRANCH  18  19
ATOM     19  C   UNL     1      -0.113  -4.335  -9.552  0.00  0.00    +0.324 C 
BRANCH  19  20
ATOM     20  C   UNL     1      -0.352  -3.872 -10.966  0.00  0.00    +0.248 C 
ATOM     21  O   UNL     1       0.199  -2.874 -11.379  0.00  0.00    -0.272 OA
ATOM     22  N   UNL     1      -1.180  -4.567 -11.771  0.00  0.00    -0.327 N 
ATOM     23  H   UNL     1      -1.621  -5.365 -11.441  0.00  0.00    +0.145 HD
ATOM     24  H   UNL     1      -1.334  -4.268 -12.681  0.00  0.00    +0.145 HD
ENDBRANCH  19  20
ENDBRANCH  18  19
ENDBRANCH  15  18
ENDBRANCH   7  12
BRANCH   9  25
ATOM     25  N   UNL     1       2.349  -8.129  -2.384  0.00  0.00    -0.358 N 
ATOM     26  H   UNL     1       2.852  -8.499  -3.126  0.00  0.00    +0.142 HD
ATOM     27  H   UNL     1       2.086  -8.698  -1.644  0.00  0.00    +0.142 HD
ENDBRANCH   9  25
BRANCH  10  28
ATOM     28  C   UNL     1      -0.147  -6.797  -1.260  0.00  0.00    +0.095 C 
ATOM     29  N   UNL     1      -1.208  -7.202  -1.297  0.00  0.00    -0.194 NA
ENDBRANCH  10  28
BRANCH  10  30
ATOM     30  C   UNL     1       1.873  -6.689   0.041  0.00  0.00    +0.095 C 
ATOM     31  N   UNL     1       2.372  -7.013   1.009  0.00  0.00    -0.194 NA
ENDBRANCH  10  30
BRANCH   8  32
ATOM     32  C   UNL     1       3.091  -6.707  -4.479  0.00  0.00    +0.097 C 
ATOM     33  N   UNL     1       3.649  -7.225  -5.322  0.00  0.00    -0.191 NA
ENDBRANCH   8  32
BRANCH   1  34
ATOM     34  C   UNL     1       0.263  -0.675  -1.324  0.00  0.00    +0.084 C 
BRANCH  34  36
ATOM     35  C   UNL     1      -0.698   1.282  -0.104  0.00  0.00    +0.005 C 
ATOM     36  C   UNL     1      -0.531  -0.239  -0.091  0.00  0.00    +0.012 C 
ENDBRANCH  34  36
ENDBRANCH   1  34
TORSDOF 10
