REMARK  Name = ZINC51580947
REMARK  4 active torsions:
REMARK  status: ('A' for Active; 'I' for Inactive)
REMARK    1  A    between atoms: C_1  and  C_2
REMARK    2  A    between atoms: C_5  and  C_17
REMARK    3  A    between atoms: C_6  and  O_8
REMARK    4  A    between atoms: O_8  and  C_9
REMARK                            x       y       z     vdW  Elec       q    Type
REMARK                         _______ _______ _______ _____ _____    ______ ____
ROOT
ATOM      1  C   UNL     1      -0.549   1.448   0.207  0.00  0.00    +0.044 C 
ATOM      2  C   UNL     1      -0.396  -0.049   0.129  0.00  0.00    -0.047 A 
ATOM      3  C   UNL     1      -0.462  -0.684  -1.101  0.00  0.00    +0.004 A 
ATOM      4  C   UNL     1      -0.323  -2.053  -1.184  0.00  0.00    +0.015 A 
ATOM      5  C   UNL     1      -0.115  -2.804  -0.026  0.00  0.00    +0.054 A 
ATOM      6  C   UNL     1      -0.050  -2.158   1.216  0.00  0.00    +0.139 A 
ATOM      7  C   UNL     1      -0.186  -0.779   1.281  0.00  0.00    +0.050 A 
ENDROOT
BRANCH   5   8
ATOM      8  C   UNL     1       0.034  -4.271  -0.108  0.00  0.00    +0.098 C 
ATOM      9  N   UNL     1      -0.916  -5.005  -0.686  0.00  0.00    -0.387 N 
ATOM     10  N   UNL     1       1.118  -4.860   0.396  0.00  0.00    -0.344 N 
ATOM     11  H   UNL     1      -1.737  -4.587  -0.987  0.00  0.00    +0.157 HD
ATOM     12  H   UNL     1       1.809  -4.325   0.816  0.00  0.00    +0.144 HD
ATOM     13  H   UNL     1       1.216  -5.823   0.341  0.00  0.00    +0.144 HD
ATOM     14  H   UNL     1      -0.785  -5.959  -0.806  0.00  0.00    +0.157 HD
ENDBRANCH   5   8
BRANCH   6  15
ATOM     15  O   UNL     1       0.151  -2.877   2.348  0.00  0.00    -0.452 OA
BRANCH  15  16
ATOM     16  C   UNL     1       0.102  -2.221   3.538  0.00  0.00    +0.164 A 
ATOM     17  C   UNL     1       1.269  -1.749   4.120  0.00  0.00    +0.050 A 
ATOM     18  C   UNL     1       1.216  -1.083   5.330  0.00  0.00    +0.019 A 
ATOM     19  C   UNL     1       0.001  -0.886   5.961  0.00  0.00    +0.021 A 
ATOM     20  C   UNL     1      -1.165  -1.356   5.384  0.00  0.00    +0.057 A 
ATOM     21  C   UNL     1      -1.119  -2.018   4.170  0.00  0.00    +0.166 A 
ATOM     22  F   UNL     1      -2.258  -2.471   3.603  0.00  0.00    -0.202 F 
ATOM     23 BR   UNL     1      -0.066   0.025   7.617  0.00  0.00    -0.050 Br
ENDBRANCH  15  16
ENDBRANCH   6  15
TORSDOF 3
