REMARK  Name = ZINC44781321
REMARK  4 active torsions:
REMARK  status: ('A' for Active; 'I' for Inactive)
REMARK    1  A    between atoms: C_4  and  C_7
REMARK    2  A    between atoms: C_4  and  C_10
REMARK    3  A    between atoms: C_7  and  N_9
REMARK    4  A    between atoms: C_17  and  C_19
REMARK                            x       y       z     vdW  Elec       q    Type
REMARK                         _______ _______ _______ _____ _____    ______ ____
ROOT
ATOM      1  C   UNL     1       3.102  -0.320  -0.096  0.00  0.00    +0.228 C 
ATOM      2  O   UNL     1       3.660   0.549  -0.733  0.00  0.00    -0.275 OA
ATOM      3  N   UNL     1       2.886  -1.529  -0.649  0.00  0.00    -0.289 N 
ATOM      4  C   UNL     1       2.304  -2.622   0.142  0.00  0.00    +0.108 C 
ATOM      5  C   UNL     1       1.080  -3.169  -0.599  0.00  0.00    +0.019 C 
ATOM      6  C   UNL     1       1.485  -3.569  -2.020  0.00  0.00    +0.004 C 
ATOM      7  C   UNL     1       1.994  -2.337  -2.772  0.00  0.00    +0.032 C 
ATOM      8  C   UNL     1       3.223  -1.778  -2.058  0.00  0.00    +0.162 C 
ENDROOT
BRANCH   1  12
ATOM      9  C   UNL     1       5.166   0.901   2.481  0.00  0.00    +0.000 C 
ATOM     10  C   UNL     1       4.944  -0.576   2.153  0.00  0.00    +0.001 C 
ATOM     11  C   UNL     1       3.457  -0.911   2.286  0.00  0.00    +0.023 C 
ATOM     12  C   UNL     1       2.651  -0.046   1.316  0.00  0.00    +0.091 C 
ATOM     13  C   UNL     1       2.872   1.432   1.645  0.00  0.00    +0.023 C 
ATOM     14  C   UNL     1       4.359   1.766   1.511  0.00  0.00    +0.001 C 
BRANCH  12  15
ATOM     15  C   UNL     1       1.186  -0.375   1.447  0.00  0.00    +0.061 C 
ATOM     16  S   UNL     1       0.687  -1.346   2.616  0.00  0.00    -0.040 S 
BRANCH  15  17
ATOM     17  N   UNL     1       0.297   0.149   0.581  0.00  0.00    -0.355 N 
ATOM     18  H   UNL     1       0.606   0.679  -0.170  0.00  0.00    +0.143 HD
ATOM     19  H   UNL     1      -0.653  -0.005   0.708  0.00  0.00    +0.143 HD
ENDBRANCH  15  17
ENDBRANCH  12  15
ENDBRANCH   1  12
BRANCH   8  20
ATOM     20  C   UNL     1       3.643  -0.488  -2.713  0.00  0.00    +0.231 C 
ATOM     21  O   UNL     1       2.856   0.431  -2.802  0.00  0.00    -0.274 OA
ATOM     22  N   UNL     1       4.892  -0.354  -3.200  0.00  0.00    -0.328 N 
ATOM     23  H   UNL     1       5.521  -1.089  -3.129  0.00  0.00    +0.145 HD
ATOM     24  H   UNL     1       5.162   0.476  -3.622  0.00  0.00    +0.145 HD
ENDBRANCH   8  20
TORSDOF 4
