REMARK  Name = ZINC03382329
REMARK  5 active torsions:
REMARK  status: ('A' for Active; 'I' for Inactive)
REMARK    1  A    between atoms: C_4  and  O_10
REMARK    2  A    between atoms: C_5  and  N_7
REMARK    3  A    between atoms: O_10  and  C_11
REMARK    4  A    between atoms: C_11  and  C_12
REMARK    5  A    between atoms: N_14  and  C_15
REMARK                            x       y       z     vdW  Elec       q    Type
REMARK                         _______ _______ _______ _____ _____    ______ ____
ROOT
ATOM      1  C   UNL     1       2.411  -2.736  -0.138  0.00  0.00    +0.255 C 
ATOM      2  O   UNL     1       3.454  -2.116  -0.144  0.00  0.00    -0.272 OA
ATOM      3  N   UNL     1       1.239  -2.082  -0.021  0.00  0.00    -0.280 N 
ATOM      4  H   UNL     1       0.411  -2.580   0.065  0.00  0.00    +0.155 HD
ENDROOT
BRANCH   3   5
ATOM      5  C   UNL     1       1.215  -0.680  -0.024  0.00  0.00    +0.072 A 
ATOM      6  C   UNL     1       2.237   0.031  -0.638  0.00  0.00    +0.029 A 
ATOM      7  C   UNL     1       2.213   1.412  -0.641  0.00  0.00    +0.043 A 
ATOM      8  C   UNL     1       1.170   2.090  -0.033  0.00  0.00    +0.161 A 
ATOM      9  C   UNL     1       0.147   1.384   0.581  0.00  0.00    +0.195 A 
ATOM     10  C   UNL     1       0.168  -0.001   0.586  0.00  0.00    +0.182 A 
ATOM     11  F   UNL     1      -0.829  -0.690   1.184  0.00  0.00    -0.200 F 
ATOM     12  F   UNL     1      -0.873   2.047   1.169  0.00  0.00    -0.199 F 
ATOM     13  F   UNL     1       1.150   3.441  -0.037  0.00  0.00    -0.202 F 
ENDBRANCH   3   5
BRANCH   1  14
ATOM     14  C   UNL     1       2.427  -4.238  -0.260  0.00  0.00    +0.325 C 
BRANCH  14  15
ATOM     15  O   UNL     1       3.777  -4.693  -0.370  0.00  0.00    -0.480 OA
BRANCH  15  19
ATOM     16  C   UNL     1       4.360  -8.761  -0.729  0.00  0.00    +0.002 A 
ATOM     17  C   UNL     1       3.078  -8.254  -0.619  0.00  0.00    +0.004 A 
ATOM     18  C   UNL     1       2.880  -6.893  -0.493  0.00  0.00    +0.048 A 
ATOM     19  C   UNL     1       3.969  -6.033  -0.489  0.00  0.00    +0.151 A 
ATOM     20  C   UNL     1       5.254  -6.544  -0.600  0.00  0.00    +0.168 A 
ATOM     21  C   UNL     1       5.446  -7.907  -0.720  0.00  0.00    +0.036 A 
BRANCH  20  22
ATOM     22  N   UNL     1       6.418  -5.630  -0.589  0.00  0.00    +0.060 N 
ATOM     23  O   UNL     1       7.546  -6.079  -0.686  0.00  0.00    -0.126 OA
ATOM     24  O   UNL     1       6.248  -4.428  -0.483  0.00  0.00    -0.126 OA
ENDBRANCH  20  22
ENDBRANCH  15  19
ENDBRANCH  14  15
ENDBRANCH   1  14
TORSDOF 5
