REMARK  Name = ZINC14268133
REMARK  6 active torsions:
REMARK  status: ('A' for Active; 'I' for Inactive)
REMARK    1  A    between atoms: C_1  and  C_2
REMARK    2  A    between atoms: C_2  and  O_3
REMARK    3  A    between atoms: O_3  and  C_4
REMARK    4  A    between atoms: C_7  and  N_10
REMARK    5  A    between atoms: C_12  and  C_17
REMARK    6  A    between atoms: N_19  and  C_20
REMARK                            x       y       z     vdW  Elec       q    Type
REMARK                         _______ _______ _______ _____ _____    ______ ____
ROOT
ATOM      1  C   UNL     1       2.642   0.509   1.814  0.00  0.00    +0.222 C 
ATOM      2  O   UNL     1       2.306  -0.487   2.418  0.00  0.00    -0.275 OA
ATOM      3  N   UNL     1       3.188   1.548   2.477  0.00  0.00    -0.285 N 
ATOM      4  H   UNL     1       3.395   2.369   2.005  0.00  0.00    +0.155 HD
ENDROOT
BRANCH   3   5
ATOM      5  C   UNL     1       3.456   1.441   3.848  0.00  0.00    +0.035 A 
ATOM      6  C   UNL     1       4.585   2.050   4.383  0.00  0.00    +0.025 A 
ATOM      7  C   UNL     1       4.851   1.953   5.734  0.00  0.00    +0.029 A 
ATOM      8  C   UNL     1       3.997   1.236   6.559  0.00  0.00    +0.067 A 
ATOM      9  C   UNL     1       2.865   0.619   6.022  0.00  0.00    +0.069 A 
ATOM     10  C   UNL     1       2.597   0.723   4.666  0.00  0.00    +0.051 A 
ATOM     11  N   UNL     1       2.213  -0.015   7.078  0.00  0.00    -0.306 N 
ATOM     12  H   UNL     1       1.393  -0.528   7.013  0.00  0.00    +0.170 HD
ATOM     13  C   UNL     1       2.916   0.207   8.205  0.00  0.00    +0.325 A 
ATOM     14  O   UNL     1       2.618  -0.209   9.309  0.00  0.00    -0.247 OA
ATOM     15  N   UNL     1       3.997   0.958   7.925  0.00  0.00    -0.306 N 
ATOM     16  H   UNL     1       4.663   1.255   8.565  0.00  0.00    +0.170 HD
ENDBRANCH   3   5
BRANCH   1  19
ATOM     17  N   UNL     1       0.363  -0.464  -0.225  0.00  0.00    -0.271 N 
ATOM     18  C   UNL     1       1.810  -0.712  -0.221  0.00  0.00    +0.127 C 
ATOM     19  C   UNL     1       2.448   0.586   0.321  0.00  0.00    +0.102 C 
ATOM     20  C   UNL     1       1.378   1.641  -0.045  0.00  0.00    +0.110 C 
ATOM     21  C   UNL     1       0.092   0.849  -0.133  0.00  0.00    +0.221 C 
ATOM     22  O   UNL     1      -1.021   1.330  -0.126  0.00  0.00    -0.275 OA
BRANCH  17  26
ATOM     23  C   UNL     1      -2.535  -3.451  -0.488  0.00  0.00    +0.121 A 
ATOM     24  C   UNL     1      -1.192  -3.775  -0.614  0.00  0.00    +0.047 A 
ATOM     25  C   UNL     1      -0.232  -2.786  -0.527  0.00  0.00    +0.027 A 
ATOM     26  C   UNL     1      -0.611  -1.468  -0.314  0.00  0.00    +0.036 A 
ATOM     27  C   UNL     1      -1.955  -1.145  -0.182  0.00  0.00    +0.027 A 
ATOM     28  C   UNL     1      -2.914  -2.134  -0.275  0.00  0.00    +0.047 A 
BRANCH  23  29
ATOM     29  O   UNL     1      -3.479  -4.425  -0.574  0.00  0.00    -0.492 OA
BRANCH  29  31
ATOM     30  C   UNL     1      -5.753  -5.244  -0.559  0.00  0.00    +0.048 C 
ATOM     31  C   UNL     1      -4.843  -4.020  -0.435  0.00  0.00    +0.225 C 
ENDBRANCH  29  31
ENDBRANCH  23  29
ENDBRANCH  17  26
ENDBRANCH   1  19
TORSDOF 5
