REMARK  Name = ZINC43681927
REMARK  8 active torsions:
REMARK  status: ('A' for Active; 'I' for Inactive)
REMARK    1  A    between atoms: C_1  and  N_2
REMARK    2  A    between atoms: N_2  and  C_3
REMARK    3  A    between atoms: N_2  and  C_30
REMARK    4  A    between atoms: C_11  and  N_17
REMARK    5  A    between atoms: N_17  and  C_18
REMARK    6  A    between atoms: N_17  and  C_19
REMARK    7  A    between atoms: C_26  and  O_28
REMARK    8  A    between atoms: O_28  and  C_29
REMARK                            x       y       z     vdW  Elec       q    Type
REMARK                         _______ _______ _______ _____ _____    ______ ____
ROOT
ATOM      1  C   UNL     1       0.812  -0.905   0.878  0.00  0.00    +0.033 A 
ATOM      2  C   UNL     1       0.982  -2.283   0.936  0.00  0.00    +0.024 A 
ATOM      3  C   UNL     1       0.709  -2.966   2.106  0.00  0.00    +0.014 A 
ATOM      4  C   UNL     1       0.263  -2.263   3.219  0.00  0.00    +0.026 A 
ATOM      5  C   UNL     1      -0.066  -2.948   4.494  0.00  0.00    +0.004 C 
ATOM      6  C   UNL     1      -1.019  -2.210   5.359  0.00  0.00    +0.026 A 
ATOM      7  C   UNL     1      -1.797  -2.860   6.309  0.00  0.00    +0.014 A 
ATOM      8  C   UNL     1      -2.677  -2.128   7.084  0.00  0.00    +0.024 A 
ATOM      9  C   UNL     1      -2.780  -0.753   6.909  0.00  0.00    +0.033 A 
ATOM     10  C   UNL     1      -2.000  -0.099   5.961  0.00  0.00    +0.070 A 
ATOM     11  C   UNL     1      -1.112  -0.818   5.184  0.00  0.00    +0.138 A 
ATOM     12  O   UNL     1      -0.328  -0.194   4.269  0.00  0.00    -0.455 OA
ATOM     13  C   UNL     1       0.094  -0.868   3.169  0.00  0.00    +0.138 A 
ATOM     14  C   UNL     1       0.375  -0.197   1.993  0.00  0.00    +0.070 A 
ATOM     15  C   UNL     1       0.477  -4.186   4.849  0.00  0.00    -0.003 A 
ATOM     16  C   UNL     1      -0.334  -5.195   5.419  0.00  0.00    +0.009 A 
ATOM     17  C   UNL     1       0.211  -6.389   5.757  0.00  0.00    +0.001 A 
ATOM     18  C   UNL     1       1.569  -6.661   5.559  0.00  0.00    +0.001 A 
ATOM     19  C   UNL     1       2.407  -5.744   5.019  0.00  0.00    +0.015 A 
ATOM     20  C   UNL     1       1.909  -4.474   4.634  0.00  0.00    +0.067 A 
ATOM     21  C   UNL     1       2.750  -3.522   4.073  0.00  0.00    +0.340 C 
ATOM     22  O   UNL     1       2.352  -2.233   3.994  0.00  0.00    -0.245 OA
ENDROOT
BRANCH   1  24
ATOM     23  C   UNL     1       0.916   1.231  -0.377  0.00  0.00    +0.129 C 
ATOM     24  N   UNL     1       1.087  -0.222  -0.310  0.00  0.00    -0.336 N 
ATOM     25  C   UNL     1       1.548  -0.960  -1.489  0.00  0.00    +0.129 C 
ENDBRANCH   1  24
BRANCH   9  26
ATOM     26  N   UNL     1      -3.676  -0.021   7.693  0.00  0.00    -0.336 N 
ATOM     27  C   UNL     1      -4.501  -0.703   8.694  0.00  0.00    +0.129 C 
ATOM     28  C   UNL     1      -3.790   1.429   7.515  0.00  0.00    +0.129 C 
ENDBRANCH   9  26
BRANCH  21  29
ATOM     29  O   UNL     1       3.964  -3.883   3.606  0.00  0.00    -0.464 OA
ATOM     30  C   UNL     1       4.821  -2.836   3.147  0.00  0.00    +0.280 C 
ENDBRANCH  21  29
TORSDOF 3
