REMARK  Name = ZINC63010183
REMARK  3 active torsions:
REMARK  status: ('A' for Active; 'I' for Inactive)
REMARK    1  A    between atoms: C_3  and  N_20
REMARK    2  A    between atoms: C_6  and  C_7
REMARK    3  A    between atoms: N_9  and  C_10
REMARK                            x       y       z     vdW  Elec       q    Type
REMARK                         _______ _______ _______ _____ _____    ______ ____
ROOT
ATOM      1  C   UNL     1      -1.264  -0.760   0.011  0.00  0.00    +0.245 C 
ATOM      2  O   UNL     1      -2.326  -0.168   0.024  0.00  0.00    -0.270 OA
ATOM      3  N   UNL     1      -1.245  -2.108   0.003  0.00  0.00    -0.300 N 
ATOM      4  H   UNL     1      -0.398  -2.581  -0.008  0.00  0.00    +0.150 HD
ENDROOT
BRANCH   3   5
ATOM      5  C   UNL     1      -2.502  -2.859   0.012  0.00  0.00    +0.159 C 
ATOM      6  C   UNL     1      -2.278  -4.245  -0.598  0.00  0.00    +0.032 C 
ATOM      7  C   UNL     1      -3.575  -4.803  -1.156  0.00  0.00    +0.004 C 
ATOM      8  C   UNL     1      -4.615  -5.113  -0.096  0.00  0.00    +0.019 C 
ATOM      9  C   UNL     1      -5.114  -3.830   0.571  0.00  0.00    +0.104 C 
ATOM     10  N   UNL     1      -4.209  -3.493   1.682  0.00  0.00    -0.314 N 
ATOM     11  C   UNL     1      -2.984  -3.029   1.437  0.00  0.00    +0.233 C 
ATOM     12  O   UNL     1      -2.250  -2.747   2.361  0.00  0.00    -0.274 OA
ATOM     13  H   UNL     1      -4.508  -3.606   2.598  0.00  0.00    +0.149 HD
ENDBRANCH   3   5
BRANCH   1  19
ATOM     14  C   UNL     1      -0.017   1.393   0.010  0.00  0.00    +0.015 A 
ATOM     15  C   UNL     1       1.167   2.097   0.002  0.00  0.00    +0.026 A 
ATOM     16  C   UNL     1       2.381   1.419  -0.013  0.00  0.00    +0.060 A 
ATOM     17  C   UNL     1       2.405   0.025  -0.021  0.00  0.00    +0.145 A 
ATOM     18  C   UNL     1       1.224  -0.684  -0.013  0.00  0.00    +0.053 A 
ATOM     19  C   UNL     1       0.002  -0.004   0.002  0.00  0.00    +0.040 A 
ATOM     20  F   UNL     1       3.586  -0.630  -0.036  0.00  0.00    -0.204 F 
BRANCH  16  21
ATOM     21  N   UNL     1       3.575   2.135  -0.021  0.00  0.00    -0.356 N 
ATOM     22  H   UNL     1       3.560   3.104  -0.016  0.00  0.00    +0.142 HD
ATOM     23  H   UNL     1       4.423   1.663  -0.032  0.00  0.00    +0.142 HD
ENDBRANCH  16  21
ENDBRANCH   1  19
TORSDOF 3
