REMARK  Name = ZINC67193251
REMARK  5 active torsions:
REMARK  status: ('A' for Active; 'I' for Inactive)
REMARK    1  A    between atoms: C_1  and  C_2
REMARK    2  A    between atoms: C_7  and  C_8
REMARK    3  A    between atoms: C_10  and  C_13
REMARK    4  A    between atoms: N_15  and  N_16
REMARK    5  A    between atoms: N_16  and  C_17
REMARK                            x       y       z     vdW  Elec       q    Type
REMARK                         _______ _______ _______ _____ _____    ______ ____
ROOT
ATOM      1  C   UNL     1      -0.090  -0.447   6.179  0.00  0.00    +0.279 C 
ATOM      2  O   UNL     1      -0.087   0.309   7.131  0.00  0.00    -0.267 OA
ATOM      3  N   UNL     1       0.122  -1.765   6.364  0.00  0.00    -0.231 N 
ATOM      4  H   UNL     1       0.119  -2.368   5.605  0.00  0.00    +0.173 HD
ENDROOT
BRANCH   1   7
ATOM      5  C   UNL     1      -0.547  -0.227   2.580  0.00  0.00    +0.109 A 
ATOM      6  N   UNL     1      -0.331  -0.739   3.778  0.00  0.00    -0.234 NA
ATOM      7  C   UNL     1      -0.325   0.077   4.823  0.00  0.00    +0.135 A 
ATOM      8  C   UNL     1      -0.541   1.415   4.623  0.00  0.00    +0.080 A 
ATOM      9  S   UNL     1      -0.744   1.507   2.955  0.00  0.00    -0.075 S 
BRANCH   5  16
ATOM     10  C   UNL     1       1.502  -2.145   1.877  0.00  0.00    +0.044 C 
ATOM     11  C   UNL     1       0.379  -1.837   0.920  0.00  0.00    -0.041 A 
ATOM     12  C   UNL     1       0.318  -2.475  -0.302  0.00  0.00    +0.004 A 
ATOM     13  C   UNL     1      -0.712  -2.193  -1.182  0.00  0.00    +0.000 A 
ATOM     14  C   UNL     1      -1.686  -1.271  -0.844  0.00  0.00    +0.001 A 
ATOM     15  C   UNL     1      -1.636  -0.626   0.375  0.00  0.00    +0.011 A 
ATOM     16  C   UNL     1      -0.603  -0.910   1.269  0.00  0.00    +0.010 A 
ENDBRANCH   5  16
ENDBRANCH   1   7
BRANCH   3  17
ATOM     17  N   UNL     1       0.346  -2.264   7.654  0.00  0.00    -0.259 N 
ATOM     18  H   UNL     1       0.273  -1.675   8.421  0.00  0.00    +0.170 HD
BRANCH  17  19
ATOM     19  C   UNL     1       0.675  -3.614   7.836  0.00  0.00    +0.121 A 
ATOM     20  C   UNL     1       1.469  -4.268   6.902  0.00  0.00    +0.186 A 
ATOM     21  C   UNL     1       1.793  -5.603   7.084  0.00  0.00    +0.198 A 
ATOM     22  C   UNL     1       1.325  -6.285   8.195  0.00  0.00    +0.199 A 
ATOM     23  C   UNL     1       0.533  -5.635   9.128  0.00  0.00    +0.198 A 
ATOM     24  C   UNL     1       0.212  -4.299   8.953  0.00  0.00    +0.186 A 
ATOM     25  F   UNL     1      -0.556  -3.663   9.865  0.00  0.00    -0.200 F 
ATOM     26  F   UNL     1       0.077  -6.302  10.210  0.00  0.00    -0.199 F 
ATOM     27  F   UNL     1       1.642  -7.587   8.370  0.00  0.00    -0.199 F 
ATOM     28  F   UNL     1       2.565  -6.239   6.176  0.00  0.00    -0.199 F 
ATOM     29  F   UNL     1       1.924  -3.603   5.818  0.00  0.00    -0.200 F 
ENDBRANCH  17  19
ENDBRANCH   3  17
TORSDOF 4
