REMARK  Name = ZINC40468832
REMARK  6 active torsions:
REMARK  status: ('A' for Active; 'I' for Inactive)
REMARK    1  A    between atoms: C_1  and  C_2
REMARK    2  A    between atoms: C_8  and  C_10
REMARK    3  A    between atoms: C_10  and  C_12
REMARK    4  A    between atoms: C_10  and  N_13
REMARK    5  A    between atoms: N_13  and  C_14
REMARK    6  A    between atoms: C_23  and  C_26
REMARK                            x       y       z     vdW  Elec       q    Type
REMARK                         _______ _______ _______ _____ _____    ______ ____
ROOT
ATOM      1  N   UNL     1      -5.055  -3.989   0.003  0.00  0.00    -0.333 N 
ATOM      2  H   UNL     1      -5.315  -3.122  -0.345  0.00  0.00    +0.147 HD
ENDROOT
BRANCH   1   3
ATOM      3  C   UNL     1      -6.025  -4.857   0.515  0.00  0.00    +0.030 A 
ATOM      4  C   UNL     1      -5.652  -6.096   1.020  0.00  0.00    +0.026 A 
ATOM      5  C   UNL     1      -6.607  -6.957   1.527  0.00  0.00    +0.049 A 
ATOM      6  C   UNL     1      -7.940  -6.584   1.532  0.00  0.00    +0.143 A 
ATOM      7  C   UNL     1      -8.319  -5.342   1.026  0.00  0.00    +0.077 A 
ATOM      8  C   UNL     1      -7.361  -4.477   0.524  0.00  0.00    +0.050 A 
ATOM      9  N   UNL     1      -9.673  -4.981   1.037  0.00  0.00    -0.279 N 
ATOM     10  C   UNL     1     -10.532  -5.683   1.807  0.00  0.00    +0.258 C 
ATOM     11  O   UNL     1     -11.714  -5.408   1.808  0.00  0.00    -0.271 OA
ATOM     12  C   UNL     1     -10.017  -6.811   2.664  0.00  0.00    +0.256 C 
ATOM     13  O   UNL     1      -8.891  -7.422   2.029  0.00  0.00    -0.478 OA
ATOM     14  C   UNL     1      -9.595  -6.262   4.029  0.00  0.00    +0.062 C 
ATOM     15  H   UNL     1      -9.989  -4.238   0.499  0.00  0.00    +0.155 HD
ENDBRANCH   1   3
BRANCH   1  16
ATOM     16  C   UNL     1      -3.646  -4.389  -0.006  0.00  0.00    +0.154 C 
ATOM     17  C   UNL     1      -3.358  -5.215  -1.261  0.00  0.00    +0.038 C 
BRANCH  16  25
ATOM     18  C   UNL     1      -0.018   1.503   0.010  0.00  0.00    +0.089 C 
ATOM     19  C   UNL     1       0.002  -0.004   0.002  0.00  0.00    +0.136 A 
ATOM     20  C   UNL     1      -1.076  -0.808   0.003  0.00  0.00    +0.091 A 
ATOM     21  C   UNL     1      -0.625  -2.147  -0.007  0.00  0.00    +0.168 A 
ATOM     22  N   UNL     1       0.683  -2.130  -0.013  0.00  0.00    -0.063 NA
ATOM     23  O   UNL     1       1.100  -0.776  -0.013  0.00  0.00    -0.358 OA
ATOM     24  N   UNL     1      -1.432  -3.285  -0.010  0.00  0.00    -0.266 N 
ATOM     25  C   UNL     1      -2.774  -3.159  -0.003  0.00  0.00    +0.238 C 
ATOM     26  O   UNL     1      -3.280  -2.057   0.006  0.00  0.00    -0.273 OA
ATOM     27  H   UNL     1      -1.027  -4.166  -0.017  0.00  0.00    +0.156 HD
ENDBRANCH  16  25
ENDBRANCH   1  16
TORSDOF 3
