REMARK  Name = ZINC15224945
REMARK  12 active torsions:
REMARK  status: ('A' for Active; 'I' for Inactive)
REMARK    1  A    between atoms: C_1  and  C_2
REMARK    2  A    between atoms: C_2  and  N_3
REMARK    3  A    between atoms: C_7  and  C_9
REMARK    4  A    between atoms: C_9  and  C_11
REMARK    5  A    between atoms: C_9  and  O_12
REMARK    6  A    between atoms: O_12  and  C_13
REMARK    7  A    between atoms: C_13  and  C_15
REMARK    8  A    between atoms: C_19  and  S_21
REMARK    9  A    between atoms: S_21  and  N_24
REMARK   10  A    between atoms: N_24  and  C_25
REMARK   11  A    between atoms: N_24  and  C_28
REMARK   12  A    between atoms: C_25  and  C_26
REMARK                            x       y       z     vdW  Elec       q    Type
REMARK                         _______ _______ _______ _____ _____    ______ ____
ROOT
ATOM      1  C   UNL     1       1.986   4.781   5.523  0.00  0.00    +0.061 A 
ATOM      2  C   UNL     1       1.062   3.798   5.882  0.00  0.00    +0.015 A 
ATOM      3  C   UNL     1       1.484   2.675   6.563  0.00  0.00    +0.003 A 
ATOM      4  C   UNL     1       2.820   2.521   6.890  0.00  0.00    +0.029 A 
ATOM      5  C   UNL     1       3.741   3.491   6.537  0.00  0.00    +0.110 A 
ATOM      6  C   UNL     1       3.333   4.617   5.852  0.00  0.00    +0.043 A 
ENDROOT
BRANCH   5   7
ATOM      7  S   UNL     1       5.439   3.285   6.958  0.00  0.00    +0.075 S 
ATOM      8  O   UNL     1       6.038   4.571   6.871  0.00  0.00    -0.150 OA
ATOM      9  O   UNL     1       5.472   2.509   8.147  0.00  0.00    -0.150 OA
BRANCH   7  10
ATOM     10  N   UNL     1       6.129   2.361   5.770  0.00  0.00    -0.199 N 
BRANCH  10  11
ATOM     11  C   UNL     1       6.649   2.969   4.624  0.00  0.00    +0.052 A 
ATOM     12  C   UNL     1       5.818   3.703   3.788  0.00  0.00    +0.026 A 
ATOM     13  C   UNL     1       6.335   4.309   2.660  0.00  0.00    +0.022 A 
ATOM     14  C   UNL     1       7.679   4.174   2.356  0.00  0.00    +0.041 A 
ATOM     15  C   UNL     1       8.508   3.439   3.184  0.00  0.00    +0.022 A 
ATOM     16  C   UNL     1       7.997   2.836   4.316  0.00  0.00    +0.026 A 
ATOM     17 CL   UNL     1       8.324   4.930   0.932  0.00  0.00    -0.084 Cl
ENDBRANCH  10  11
BRANCH  10  18
ATOM     18  C   UNL     1       6.195   0.905   5.920  0.00  0.00    +0.158 C 
BRANCH  18  19
ATOM     19  C   UNL     1       5.015   0.275   5.226  0.00  0.00    -0.014 C 
ATOM     20  C   UNL     1       5.207  -0.648   4.315  0.00  0.00    +0.005 C 
ENDBRANCH  18  19
ENDBRANCH  10  18
ENDBRANCH   7  10
ENDBRANCH   5   7
BRANCH   1  21
ATOM     21  C   UNL     1       1.542   5.986   4.794  0.00  0.00    +0.340 C 
ATOM     22  O   UNL     1       2.348   6.840   4.483  0.00  0.00    -0.245 OA
BRANCH  21  23
ATOM     23  O   UNL     1       0.242   6.139   4.473  0.00  0.00    -0.449 OA
BRANCH  23  24
ATOM     24  C   UNL     1      -0.123   7.348   3.756  0.00  0.00    +0.259 C 
ATOM     25  C   UNL     1      -0.021   7.098   2.251  0.00  0.00    +0.062 C 
BRANCH  24  30
ATOM     26  N   UNL     1      -3.846  10.376   3.481  0.00  0.00    -0.299 N 
ATOM     27  C   UNL     1      -3.324   9.226   3.951  0.00  0.00    +0.306 C 
ATOM     28  O   UNL     1      -3.994   8.499   4.658  0.00  0.00    -0.252 OA
ATOM     29  N   UNL     1      -2.059   8.882   3.637  0.00  0.00    -0.237 N 
ATOM     30  C   UNL     1      -1.537   7.732   4.107  0.00  0.00    +0.261 C 
ATOM     31  O   UNL     1      -2.205   7.007   4.813  0.00  0.00    -0.271 OA
ATOM     32  H   UNL     1      -3.312  10.957   2.916  0.00  0.00    +0.150 HD
ATOM     33  H   UNL     1      -1.525   9.462   3.073  0.00  0.00    +0.159 HD
BRANCH  26  35
ATOM     34  C   UNL     1      -5.563  12.089   3.165  0.00  0.00    +0.024 C 
ATOM     35  C   UNL     1      -5.221  10.750   3.822  0.00  0.00    +0.102 C 
ENDBRANCH  26  35
ENDBRANCH  24  30
ENDBRANCH  23  24
ENDBRANCH  21  23
ENDBRANCH   1  21
TORSDOF 10
