REMARK  Name = ZINC31160267
REMARK  10 active torsions:
REMARK  status: ('A' for Active; 'I' for Inactive)
REMARK    1  A    between atoms: C_1  and  C_2
REMARK    2  A    between atoms: C_6  and  C_33
REMARK    3  A    between atoms: C_7  and  C_32
REMARK    4  A    between atoms: C_13  and  C_17
REMARK    5  A    between atoms: C_18  and  C_31
REMARK    6  A    between atoms: C_23  and  C_29
REMARK    7  A    between atoms: C_23  and  C_30
REMARK    8  A    between atoms: C_25  and  O_28
REMARK    9  A    between atoms: C_33  and  O_35
REMARK   10  A    between atoms: O_35  and  C_36
REMARK                            x       y       z     vdW  Elec       q    Type
REMARK                         _______ _______ _______ _____ _____    ______ ____
ROOT
ATOM      1  C   UNL     1       0.587   4.326  -2.110  0.00  0.00    +0.060 C 
ATOM      2  C   UNL     1      -0.774   4.484  -1.446  0.00  0.00    +0.240 C 
ATOM      3  C   UNL     1      -1.590   3.212  -1.505  0.00  0.00    +0.192 C 
ATOM      4  O   UNL     1      -2.509   3.159  -2.299  0.00  0.00    -0.292 OA
ATOM      5  C   UNL     1      -1.293   2.052  -0.584  0.00  0.00    +0.161 C 
ATOM      6  C   UNL     1      -2.449   1.045  -0.677  0.00  0.00    +0.062 C 
ATOM      7  C   UNL     1      -3.708   1.634  -0.053  0.00  0.00    +0.022 C 
ATOM      8  C   UNL     1      -3.480   1.904   1.438  0.00  0.00    +0.037 C 
ATOM      9  C   UNL     1      -2.340   2.897   1.532  0.00  0.00    -0.058 C 
ATOM     10  C   UNL     1      -2.488   4.004   2.218  0.00  0.00    +0.009 C 
ATOM     11  C   UNL     1      -1.045   2.574   0.830  0.00  0.00    +0.109 C 
ATOM     12  C   UNL     1      -0.226   3.853   0.758  0.00  0.00    +0.319 C 
ATOM     13  O   UNL     1       0.780   3.965   1.423  0.00  0.00    -0.250 OA
ATOM     14  O   UNL     1      -0.630   4.855  -0.043  0.00  0.00    -0.453 OA
ATOM     15  C   UNL     1      -0.233   1.568   1.666  0.00  0.00    +0.029 C 
ATOM     16  C   UNL     1      -4.972   0.825  -0.266  0.00  0.00    +0.016 C 
ATOM     17  C   UNL     1      -6.157   1.735   0.025  0.00  0.00    -0.012 C 
ATOM     18  C   UNL     1      -7.380   1.316  -0.297  0.00  0.00    +0.044 C 
ATOM     19  C   UNL     1      -7.536   0.114  -1.118  0.00  0.00    +0.166 C 
ATOM     20  O   UNL     1      -8.528  -0.588  -1.005  0.00  0.00    -0.292 OA
ATOM     21  C   UNL     1      -6.458  -0.254  -2.111  0.00  0.00    +0.053 C 
ATOM     22  C   UNL     1      -5.115   0.274  -1.659  0.00  0.00    -0.002 C 
ATOM     23  C   UNL     1      -4.076   0.226  -2.494  0.00  0.00    +0.161 C 
ATOM     24  C   UNL     1      -2.761   0.785  -2.140  0.00  0.00    +0.205 C 
ATOM     25  O   UNL     1      -1.966   1.004  -3.030  0.00  0.00    -0.288 OA
ATOM     26  C   UNL     1      -6.845   0.368  -3.461  0.00  0.00    +0.024 C 
ATOM     27  C   UNL     1      -6.407  -1.777  -2.255  0.00  0.00    +0.024 C 
ATOM     28  C   UNL     1      -5.064  -0.333   0.732  0.00  0.00    +0.020 C 
ATOM     29  C   UNL     1      -2.033  -0.288  -0.050  0.00  0.00    +0.021 C 
ENDROOT
BRANCH  23  30
ATOM     30  O   UNL     1      -4.170  -0.375  -3.715  0.00  0.00    -0.503 OA
ATOM     31  H   UNL     1      -3.298  -0.400  -4.384  0.00  0.00    +0.292 HD
ENDBRANCH  23  30
BRANCH   5  32
ATOM     32  C   UNL     1      -0.033   1.339  -1.030  0.00  0.00    +0.323 C 
ATOM     33  O   UNL     1       0.500   1.648  -2.070  0.00  0.00    -0.250 OA
BRANCH  32  34
ATOM     34  O   UNL     1       0.494   0.368  -0.268  0.00  0.00    -0.467 OA
ATOM     35  C   UNL     1       1.706  -0.267  -0.755  0.00  0.00    +0.280 C 
ENDBRANCH  32  34
ENDBRANCH   5  32
TORSDOF 3
