REMARK  Name = ZINC39709560
REMARK  6 active torsions:
REMARK  status: ('A' for Active; 'I' for Inactive)
REMARK    1  A    between atoms: C_1  and  C_2
REMARK    2  A    between atoms: C_4  and  C_12
REMARK    3  A    between atoms: C_13  and  C_14
REMARK    4  A    between atoms: N_25  and  C_26
REMARK    5  A    between atoms: C_26  and  C_27
REMARK    6  A    between atoms: C_27  and  O_28
REMARK                            x       y       z     vdW  Elec       q    Type
REMARK                         _______ _______ _______ _____ _____    ______ ____
ROOT
ATOM      1  C   UNL     1       0.870  -0.383  -4.990  0.00  0.00    +0.185 C 
ATOM      2  N   UNL     1       0.673  -1.625  -5.748  0.00  0.00    -0.322 N 
ATOM      3  C   UNL     1       1.791  -2.371  -6.103  0.00  0.00    +0.041 A 
ATOM      4  C   UNL     1       1.738  -3.746  -6.249  0.00  0.00    +0.024 A 
ATOM      5  C   UNL     1       2.880  -4.441  -6.600  0.00  0.00    +0.002 A 
ATOM      6  C   UNL     1       4.076  -3.771  -6.806  0.00  0.00    +0.001 A 
ATOM      7  C   UNL     1       4.146  -2.401  -6.667  0.00  0.00    +0.015 A 
ATOM      8  C   UNL     1       3.002  -1.688  -6.315  0.00  0.00    +0.058 A 
ATOM      9  C   UNL     1       3.018  -0.222  -6.160  0.00  0.00    +0.250 C 
ATOM     10  O   UNL     1       3.959   0.429  -6.569  0.00  0.00    -0.270 OA
ATOM     11  N   UNL     1       1.977   0.385  -5.561  0.00  0.00    -0.273 N 
ATOM     12  H   UNL     1      -0.218  -1.918  -5.995  0.00  0.00    +0.148 HD
ENDROOT
BRANCH   1  14
ATOM     13  C   UNL     1       0.379  -0.285  -2.573  0.00  0.00    +0.005 C 
ATOM     14  C   UNL     1       1.184  -0.719  -3.555  0.00  0.00    +0.015 C 
BRANCH  13  17
ATOM     15  C   UNL     1       1.362  -3.068  -1.388  0.00  0.00    +0.035 C 
ATOM     16  C   UNL     1       1.627  -1.700  -0.758  0.00  0.00    +0.107 C 
ATOM     17  C   UNL     1       0.606  -0.696  -1.244  0.00  0.00    -0.017 C 
ATOM     18  C   UNL     1      -0.064  -0.262  -0.106  0.00  0.00    +0.003 A 
ATOM     19  C   UNL     1      -1.114   0.664   0.090  0.00  0.00    +0.010 A 
ATOM     20  C   UNL     1      -1.580   0.897   1.342  0.00  0.00    +0.001 A 
ATOM     21  C   UNL     1      -1.048   0.241   2.457  0.00  0.00    +0.002 A 
ATOM     22  C   UNL     1      -0.042  -0.657   2.345  0.00  0.00    +0.026 A 
ATOM     23  C   UNL     1       0.501  -0.955   1.066  0.00  0.00    +0.043 A 
ATOM     24  N   UNL     1       1.464  -1.774   0.697  0.00  0.00    -0.378 N 
ATOM     25  H   UNL     1       1.984  -2.337   1.293  0.00  0.00    +0.160 HD
ENDBRANCH  13  17
ENDBRANCH   1  14
BRANCH  11  26
ATOM     26  C   UNL     1       1.954   1.848  -5.479  0.00  0.00    +0.138 C 
BRANCH  26  27
ATOM     27  C   UNL     1       2.640   2.296  -4.187  0.00  0.00    +0.175 C 
BRANCH  27  28
ATOM     28  O   UNL     1       4.024   1.942  -4.234  0.00  0.00    -0.393 OA
ATOM     29  H   UNL     1       4.522   2.196  -3.446  0.00  0.00    +0.209 HD
ENDBRANCH  27  28
ENDBRANCH  26  27
ENDBRANCH  11  26
TORSDOF 5
