REMARK  Name = ZINC41076201
REMARK  10 active torsions:
REMARK  status: ('A' for Active; 'I' for Inactive)
REMARK    1  A    between atoms: C_1  and  C_2
REMARK    2  A    between atoms: C_4  and  C_8
REMARK    3  A    between atoms: C_5  and  C_7
REMARK    4  A    between atoms: C_9  and  C_18
REMARK    5  A    between atoms: C_10  and  N_17
REMARK    6  A    between atoms: C_11  and  C_13
REMARK    7  A    between atoms: C_13  and  O_15
REMARK    8  A    between atoms: O_15  and  C_16
REMARK    9  A    between atoms: C_18  and  C_19
REMARK   10  A    between atoms: C_18  and  C_20
REMARK                            x       y       z     vdW  Elec       q    Type
REMARK                         _______ _______ _______ _____ _____    ______ ____
ROOT
ATOM      1  C   UNL     1      -1.428  -3.679  -0.346  0.00  0.00    +0.029 A 
ATOM      2  C   UNL     1      -2.811  -3.712  -0.329  0.00  0.00    -0.008 A 
ATOM      3  C   UNL     1      -3.441  -4.767   0.283  0.00  0.00    +0.050 A 
ATOM      4  C   UNL     1      -2.651  -5.763   0.863  0.00  0.00    +0.118 A 
ATOM      5  S   UNL     1      -0.999  -5.181   0.518  0.00  0.00    -0.080 S 
ENDROOT
BRANCH   1   9
ATOM      6  C   UNL     1       0.736  -0.378  -3.584  0.00  0.00    +0.086 C 
ATOM      7  C   UNL     1       0.406  -1.214  -2.374  0.00  0.00    +0.103 A 
ATOM      8  C   UNL     1      -0.605  -2.094  -2.288  0.00  0.00    +0.053 A 
ATOM      9  C   UNL     1      -0.533  -2.662  -0.935  0.00  0.00    +0.030 A 
ATOM     10  C   UNL     1       0.530  -2.057  -0.338  0.00  0.00    +0.110 A 
ATOM     11  O   UNL     1       1.078  -1.203  -1.213  0.00  0.00    -0.464 OA
ATOM     12  C   UNL     1       1.012  -2.309   1.068  0.00  0.00    +0.087 C 
ENDBRANCH   1   9
BRANCH   3  13
ATOM     13  N   UNL     1      -4.830  -4.843   0.325  0.00  0.00    -0.357 N 
ATOM     14  H   UNL     1      -5.363  -4.038   0.229  0.00  0.00    +0.142 HD
ATOM     15  H   UNL     1      -5.265  -5.700   0.451  0.00  0.00    +0.142 HD
ENDBRANCH   3  13
BRANCH   2  16
ATOM     16  C   UNL     1      -3.612  -2.608  -0.971  0.00  0.00    +0.016 C 
ATOM     17  C   UNL     1      -4.527  -3.201  -2.046  0.00  0.00    +0.012 C 
ATOM     18  C   UNL     1      -4.461  -1.909   0.092  0.00  0.00    +0.012 C 
ENDBRANCH   2  16
BRANCH   4  19
ATOM     19  C   UNL     1      -3.055  -6.931   1.541  0.00  0.00    +0.347 C 
ATOM     20  O   UNL     1      -4.240  -7.175   1.681  0.00  0.00    -0.244 OA
BRANCH  19  21
ATOM     21  O   UNL     1      -2.128  -7.780   2.036  0.00  0.00    -0.464 OA
ATOM     22  C   UNL     1      -2.609  -8.944   2.711  0.00  0.00    +0.280 C 
ENDBRANCH  19  21
ENDBRANCH   4  19
TORSDOF 5
