REMARK  Name = ZINC04302082
REMARK  6 active torsions:
REMARK  status: ('A' for Active; 'I' for Inactive)
REMARK    1  A    between atoms: C_1  and  C_2
REMARK    2  A    between atoms: C_2  and  N_3
REMARK    3  A    between atoms: C_14  and  C_30
REMARK    4  A    between atoms: N_16  and  C_24
REMARK    5  A    between atoms: C_19  and  N_23
REMARK    6  A    between atoms: C_20  and  C_21
REMARK                            x       y       z     vdW  Elec       q    Type
REMARK                         _______ _______ _______ _____ _____    ______ ____
ROOT
ATOM      1  N   UNL     1      -1.372  -0.511   0.012  0.00  0.00    -0.270 N 
ATOM      2  C   UNL     1      -2.089  -0.780   1.165  0.00  0.00    +0.041 A 
ATOM      3  C   UNL     1      -1.704  -0.644   2.500  0.00  0.00    +0.024 A 
ATOM      4  C   UNL     1      -2.634  -0.992   3.467  0.00  0.00    +0.002 A 
ATOM      5  C   UNL     1      -3.892  -1.453   3.138  0.00  0.00    +0.000 A 
ATOM      6  C   UNL     1      -4.289  -1.592   1.812  0.00  0.00    +0.007 A 
ATOM      7  C   UNL     1      -3.369  -1.249   0.845  0.00  0.00    -0.001 A 
ATOM      8  C   UNL     1      -3.444  -1.269  -0.648  0.00  0.00    +0.145 C 
ATOM      9  C   UNL     1      -2.091  -0.766  -1.101  0.00  0.00    +0.240 C 
ATOM     10  O   UNL     1      -1.722  -0.622  -2.248  0.00  0.00    -0.274 OA
ATOM     11  C   UNL     1      -3.692  -2.658  -1.166  0.00  0.00    +0.062 A 
ATOM     12  C   UNL     1      -2.864  -3.772  -1.148  0.00  0.00    +0.069 A 
ATOM     13  N   UNL     1      -3.503  -4.769  -1.713  0.00  0.00    -0.168 NA
ATOM     14  N   UNL     1      -4.771  -4.316  -2.111  0.00  0.00    -0.200 N 
ATOM     15  C   UNL     1      -4.869  -3.014  -1.766  0.00  0.00    +0.230 A 
ATOM     16  O   UNL     1      -5.894  -2.144  -1.939  0.00  0.00    -0.423 OA
ATOM     17  C   UNL     1      -5.649  -0.832  -1.746  0.00  0.00    +0.201 C 
ATOM     18  C   UNL     1      -4.529  -0.357  -1.153  0.00  0.00    +0.110 C 
ATOM     19  C   UNL     1      -1.469  -3.827  -0.580  0.00  0.00    +0.068 C 
ENDROOT
BRANCH  14  20
ATOM     20  C   UNL     1      -5.757  -5.078  -2.752  0.00  0.00    +0.069 A 
ATOM     21  C   UNL     1      -7.099  -4.850  -2.479  0.00  0.00    +0.028 A 
ATOM     22  C   UNL     1      -8.069  -5.603  -3.112  0.00  0.00    +0.002 A 
ATOM     23  C   UNL     1      -7.704  -6.583  -4.016  0.00  0.00    +0.000 A 
ATOM     24  C   UNL     1      -6.368  -6.813  -4.290  0.00  0.00    +0.002 A 
ATOM     25  C   UNL     1      -5.394  -6.059  -3.665  0.00  0.00    +0.028 A 
ENDBRANCH  14  20
BRANCH  17  26
ATOM     26  N   UNL     1      -6.588   0.073  -2.176  0.00  0.00    -0.328 N 
ATOM     27  H   UNL     1      -7.401  -0.238  -2.604  0.00  0.00    +0.145 HD
ATOM     28  H   UNL     1      -6.439   1.023  -2.050  0.00  0.00    +0.145 HD
ENDBRANCH  17  26
BRANCH   1  30
ATOM     29  C   UNL     1      -0.019   1.526   0.010  0.00  0.00    +0.025 C 
ATOM     30  C   UNL     1       0.002  -0.004   0.002  0.00  0.00    +0.110 C 
ENDBRANCH   1  30
BRANCH  18  31
ATOM     31  C   UNL     1      -4.371   1.058  -1.001  0.00  0.00    +0.102 C 
ATOM     32  N   UNL     1      -4.246   2.181  -0.880  0.00  0.00    -0.191 NA
ENDBRANCH  18  31
TORSDOF 4
