REMARK  Name = ZINC61500376
REMARK  7 active torsions:
REMARK  status: ('A' for Active; 'I' for Inactive)
REMARK    1  A    between atoms: C_1  and  C_2
REMARK    2  A    between atoms: C_2  and  C_3
REMARK    3  A    between atoms: C_2  and  N_13
REMARK    4  A    between atoms: C_7  and  S_9
REMARK    5  A    between atoms: S_9  and  N_12
REMARK    6  A    between atoms: N_16  and  C_17
REMARK    7  A    between atoms: C_17  and  C_18
REMARK                            x       y       z     vdW  Elec       q    Type
REMARK                         _______ _______ _______ _____ _____    ______ ____
ROOT
ATOM      1  N   UNL     1       0.711  -0.489   1.189  0.00  0.00    -0.293 N 
ATOM      2  C   UNL     1       0.051  -0.633   2.355  0.00  0.00    +0.300 C 
ATOM      3  O   UNL     1      -1.132  -0.361   2.423  0.00  0.00    -0.253 OA
ATOM      4  N   UNL     1       0.703  -1.080   3.447  0.00  0.00    -0.294 N 
ATOM      5  H   UNL     1       1.654  -0.707   1.135  0.00  0.00    +0.151 HD
ATOM      6  H   UNL     1       1.647  -1.298   3.394  0.00  0.00    +0.151 HD
ENDROOT
BRANCH   1   8
ATOM      7  C   UNL     1      -0.019   1.526   0.010  0.00  0.00    +0.033 C 
ATOM      8  C   UNL     1       0.002  -0.004   0.002  0.00  0.00    +0.102 C 
BRANCH   8   9
ATOM      9  C   UNL     1       0.707  -0.490  -1.238  0.00  0.00    -0.026 A 
ATOM     10  C   UNL     1       2.089  -0.511  -1.284  0.00  0.00    +0.005 A 
ATOM     11  C   UNL     1       2.736  -0.957  -2.421  0.00  0.00    +0.002 A 
ATOM     12  C   UNL     1       2.002  -1.382  -3.512  0.00  0.00    +0.028 A 
ATOM     13  C   UNL     1       0.620  -1.362  -3.466  0.00  0.00    +0.105 A 
ATOM     14  C   UNL     1      -0.027  -0.920  -2.327  0.00  0.00    +0.034 A 
BRANCH  13  15
ATOM     15  S   UNL     1      -0.316  -1.904  -4.857  0.00  0.00    +0.056 S 
ATOM     16  O   UNL     1      -1.586  -1.274  -4.762  0.00  0.00    -0.153 OA
ATOM     17  O   UNL     1       0.524  -1.758  -5.994  0.00  0.00    -0.153 OA
BRANCH  15  18
ATOM     18  N   UNL     1      -0.578  -3.528  -4.668  0.00  0.00    -0.204 NA
ATOM     19  H   UNL     1      -1.379  -3.936  -5.032  0.00  0.00    +0.144 HD
ATOM     20  H   UNL     1       0.070  -4.072  -4.194  0.00  0.00    +0.144 HD
ENDBRANCH  15  18
ENDBRANCH  13  15
ENDBRANCH   8   9
ENDBRANCH   1   8
BRANCH   4  21
ATOM     21  C   UNL     1      -0.014  -1.237   4.715  0.00  0.00    +0.162 C 
BRANCH  21  22
ATOM     22  C   UNL     1       0.935  -1.746   5.769  0.00  0.00    +0.078 A 
ATOM     23  C   UNL     1       1.606  -0.990   6.654  0.00  0.00    +0.118 A 
ATOM     24  N   UNL     1       2.370  -1.843   7.447  0.00  0.00    -0.300 N 
ATOM     25  C   UNL     1       3.254  -1.752   8.500  0.00  0.00    +0.100 A 
ATOM     26  C   UNL     1       3.811  -2.844   9.020  0.00  0.00    +0.067 A 
ATOM     27  S   UNL     1       3.095  -4.136   8.016  0.00  0.00    -0.058 S 
ATOM     28  C   UNL     1       2.099  -3.099   6.971  0.00  0.00    +0.178 A 
ATOM     29  N   UNL     1       1.249  -3.032   5.987  0.00  0.00    -0.225 NA
ENDBRANCH  21  22
ENDBRANCH   4  21
TORSDOF 6
