REMARK  Name = ZINC02235136
REMARK  7 active torsions:
REMARK  status: ('A' for Active; 'I' for Inactive)
REMARK    1  A    between atoms: C_3  and  C_10
REMARK    2  A    between atoms: C_5  and  C_7
REMARK    3  A    between atoms: C_10  and  N_11
REMARK    4  A    between atoms: C_13  and  C_17
REMARK    5  A    between atoms: N_18  and  N_19
REMARK    6  A    between atoms: C_20  and  C_22
REMARK    7  A    between atoms: C_25  and  O_28
REMARK                            x       y       z     vdW  Elec       q    Type
REMARK                         _______ _______ _______ _____ _____    ______ ____
ROOT
ATOM      1  N   UNL     1       4.101   2.451   1.357  0.00  0.00    -0.288 N 
ATOM      2  C   UNL     1       3.689   3.564   2.014  0.00  0.00    +0.128 A 
ATOM      3  C   UNL     1       4.131   3.720   3.289  0.00  0.00    +0.072 A 
ATOM      4  S   UNL     1       5.129   2.257   3.505  0.00  0.00    -0.024 S 
ATOM      5  C   UNL     1       4.906   1.571   1.986  0.00  0.00    +0.293 A 
ATOM      6  O   UNL     1       5.364   0.528   1.556  0.00  0.00    -0.259 OA
ATOM      7 CL   UNL     1       2.648   4.733   1.262  0.00  0.00    -0.063 Cl
ENDROOT
BRANCH   3   8
ATOM      8  C   UNL     1       3.860   4.805   4.238  0.00  0.00    +0.148 C 
ATOM      9  N   UNL     1       4.383   4.773   5.429  0.00  0.00    -0.187 NA
BRANCH   9  10
ATOM     10  N   UNL     1       4.124   5.810   6.335  0.00  0.00    -0.203 N 
ATOM     11  C   UNL     1       4.666   5.777   7.569  0.00  0.00    +0.263 C 
ATOM     12  O   UNL     1       5.379   4.847   7.896  0.00  0.00    -0.268 OA
ATOM     13  H   UNL     1       3.555   6.551   6.075  0.00  0.00    +0.178 HD
BRANCH  11  14
ATOM     14  C   UNL     1       4.393   6.869   8.524  0.00  0.00    +0.039 A 
ATOM     15  C   UNL     1       3.569   7.935   8.152  0.00  0.00    +0.016 A 
ATOM     16  C   UNL     1       3.317   8.951   9.046  0.00  0.00    +0.046 A 
ATOM     17  C   UNL     1       3.881   8.918  10.316  0.00  0.00    +0.117 A 
ATOM     18  C   UNL     1       4.702   7.860  10.689  0.00  0.00    +0.046 A 
ATOM     19  C   UNL     1       4.954   6.837   9.803  0.00  0.00    +0.016 A 
BRANCH  17  20
ATOM     20  O   UNL     1       3.631   9.923  11.194  0.00  0.00    -0.507 OA
ATOM     21  H   UNL     1       2.853   9.774  11.750  0.00  0.00    +0.292 HD
ENDBRANCH  17  20
ENDBRANCH  11  14
ENDBRANCH   9  10
ENDBRANCH   3   8
BRANCH   1  22
ATOM     22  C   UNL     1       3.671   2.205  -0.021  0.00  0.00    +0.162 C 
BRANCH  22  25
ATOM     23  C   UNL     1      -0.017   1.375   0.010  0.00  0.00    +0.001 A 
ATOM     24  C   UNL     1       1.171   2.086   0.002  0.00  0.00    +0.005 A 
ATOM     25  C   UNL     1       2.384   1.421  -0.013  0.00  0.00    -0.027 A 
ATOM     26  C   UNL     1       2.418   0.042  -0.021  0.00  0.00    +0.020 A 
ATOM     27  C   UNL     1       1.224  -0.683  -0.014  0.00  0.00    +0.063 A 
ATOM     28  C   UNL     1       0.002  -0.004   0.002  0.00  0.00    +0.015 A 
BRANCH  27  29
ATOM     29  C   UNL     1       1.252  -2.158  -0.022  0.00  0.00    +0.387 C 
ATOM     30  O   UNL     1       2.322  -2.749  -0.036  0.00  0.00    -0.241 OA
ATOM     31  O   UNL     1       0.205  -2.789  -0.016  0.00  0.00    -0.241 OA
ENDBRANCH  27  29
ENDBRANCH  22  25
ENDBRANCH   1  22
TORSDOF 7
