REMARK  Name = ZINC19769058
REMARK  11 active torsions:
REMARK  status: ('A' for Active; 'I' for Inactive)
REMARK    1  A    between atoms: C_1  and  C_2
REMARK    2  A    between atoms: C_2  and  C_3
REMARK    3  A    between atoms: N_7  and  C_19
REMARK    4  A    between atoms: C_10  and  C_15
REMARK    5  A    between atoms: C_15  and  C_17
REMARK    6  A    between atoms: C_15  and  N_18
REMARK    7  A    between atoms: C_19  and  C_20
REMARK    8  A    between atoms: N_22  and  C_23
REMARK    9  A    between atoms: C_23  and  C_24
REMARK   10  A    between atoms: C_24  and  C_25
REMARK   11  A    between atoms: C_24  and  C_26
REMARK                            x       y       z     vdW  Elec       q    Type
REMARK                         _______ _______ _______ _____ _____    ______ ____
ROOT
ATOM      1  C   UNL     1      -3.518   1.670  -0.594  0.00  0.00    +0.259 C 
ATOM      2  C   UNL     1      -3.597   3.127  -0.216  0.00  0.00    +0.261 C 
ATOM      3  O   UNL     1      -4.676   3.673  -0.118  0.00  0.00    -0.271 OA
ATOM      4  N   UNL     1      -2.462   3.822   0.022  0.00  0.00    -0.256 N 
ATOM      5  C   UNL     1      -1.235   3.146   0.017  0.00  0.00    +0.079 A 
ATOM      6  C   UNL     1      -0.041   3.850   0.016  0.00  0.00    +0.029 A 
ATOM      7  C   UNL     1       1.161   3.167   0.008  0.00  0.00    -0.060 A 
ATOM      8  C   UNL     1       1.175   1.784   0.000  0.00  0.00    +0.005 A 
ATOM      9  C   UNL     1      -0.013   1.076   0.008  0.00  0.00    +0.048 A 
ATOM     10  C   UNL     1      -1.220   1.753   0.017  0.00  0.00    +0.143 A 
ATOM     11  O   UNL     1      -2.394   1.067   0.052  0.00  0.00    -0.478 OA
ENDROOT
BRANCH   1  13
ATOM     12  C   UNL     1      -3.409   0.068  -2.508  0.00  0.00    +0.008 C 
ATOM     13  C   UNL     1      -3.360   1.544  -2.111  0.00  0.00    +0.051 C 
ENDBRANCH   1  13
BRANCH   7  14
ATOM     14  C   UNL     1       2.459   3.932   0.006  0.00  0.00    -0.047 C 
ATOM     15  C   UNL     1       3.032   3.968   1.424  0.00  0.00    -0.009 C 
BRANCH  14  16
ATOM     16  N   UNL     1       3.416   3.271  -0.892  0.00  0.00    +0.382 N 
ATOM     17  H   UNL     1       4.364   3.829  -0.893  0.00  0.00    -0.089 HD
ATOM     18  H   UNL     1       3.004   3.245  -1.912  0.00  0.00    -0.089 HD
ATOM     19  H   UNL     1       3.596   2.243  -0.543  0.00  0.00    -0.089 HD
ENDBRANCH  14  16
ENDBRANCH   7  14
BRANCH   4  20
ATOM     20  C   UNL     1      -2.513   5.266   0.266  0.00  0.00    +0.209 C 
BRANCH  20  21
ATOM     21  C   UNL     1      -2.403   6.001  -1.045  0.00  0.00    +0.231 C 
ATOM     22  O   UNL     1      -2.294   5.380  -2.081  0.00  0.00    -0.274 OA
ATOM     23  N   UNL     1      -2.427   7.348  -1.066  0.00  0.00    -0.314 N 
ATOM     24  H   UNL     1      -2.526   7.911  -0.127  0.00  0.00    +0.149 HD
BRANCH  23  25
ATOM     25  C   UNL     1      -2.321   8.062  -2.341  0.00  0.00    +0.107 C 
BRANCH  25  26
ATOM     26  C   UNL     1      -2.373   9.570  -2.086  0.00  0.00    -0.000 C 
ATOM     27  C   UNL     1      -1.143   9.995  -1.281  0.00  0.00    +0.009 C 
ATOM     28  C   UNL     1      -2.388  10.313  -3.424  0.00  0.00    +0.009 C 
ENDBRANCH  25  26
ENDBRANCH  23  25
ENDBRANCH  20  21
ENDBRANCH   4  20
TORSDOF 7
