REMARK  Name = ZINC62314805
REMARK  7 active torsions:
REMARK  status: ('A' for Active; 'I' for Inactive)
REMARK    1  A    between atoms: C_1  and  C_2
REMARK    2  A    between atoms: C_3  and  C_8
REMARK    3  A    between atoms: C_4  and  C_7
REMARK    4  A    between atoms: C_8  and  N_9
REMARK    5  A    between atoms: C_10  and  C_16
REMARK    6  A    between atoms: C_11  and  C_14
REMARK    7  A    between atoms: C_14  and  N_15
REMARK                            x       y       z     vdW  Elec       q    Type
REMARK                         _______ _______ _______ _____ _____    ______ ____
ROOT
ATOM      1  N   UNL     1       1.359  -0.164  -3.074  0.00  0.00    -0.244 N 
ATOM      2  C   UNL     1       2.105   0.958  -2.943  0.00  0.00    +0.064 A 
ATOM      3  C   UNL     1       3.319   0.666  -3.465  0.00  0.00    +0.069 A 
ATOM      4  N   UNL     1       3.258  -0.603  -3.884  0.00  0.00    -0.136 NA
ATOM      5  N   UNL     1       2.085  -1.068  -3.632  0.00  0.00    -0.065 NA
ENDROOT
BRANCH   2   6
ATOM      6  C   UNL     1       1.671   2.268  -2.339  0.00  0.00    +0.039 C 
ATOM      7  C   UNL     1       0.347   2.865  -2.822  0.00  0.00    +0.010 C 
ATOM      8  C   UNL     1       1.673   3.500  -3.247  0.00  0.00    +0.010 C 
ENDBRANCH   2   6
BRANCH   1   9
ATOM      9  C   UNL     1      -0.033  -0.324  -2.646  0.00  0.00    +0.186 C 
BRANCH   9  12
ATOM     10  C   UNL     1      -0.098   1.502  -0.048  0.00  0.00    +0.069 C 
ATOM     11  C   UNL     1      -0.097  -0.005  -0.071  0.00  0.00    +0.086 A 
ATOM     12  C   UNL     1      -0.068  -0.814  -1.222  0.00  0.00    +0.038 A 
ATOM     13  C   UNL     1      -0.078  -2.102  -0.829  0.00  0.00    +0.139 A 
ATOM     14  O   UNL     1      -0.111  -2.126   0.512  0.00  0.00    -0.359 OA
ATOM     15  N   UNL     1      -0.118  -0.787   0.971  0.00  0.00    -0.083 NA
ATOM     16  C   UNL     1      -0.055  -3.305  -1.736  0.00  0.00    +0.089 C 
ENDBRANCH   9  12
ENDBRANCH   1   9
BRANCH   3  17
ATOM     17  C   UNL     1       4.507   1.589  -3.557  0.00  0.00    -0.026 C 
BRANCH  17  18
ATOM     18  N   UNL     1       5.386   1.373  -2.401  0.00  0.00    +0.382 N 
ATOM     19  H   UNL     1       4.877   1.564  -1.551  0.00  0.00    -0.090 HD
ATOM     20  H   UNL     1       5.704   0.416  -2.395  0.00  0.00    -0.090 HD
ATOM     21  H   UNL     1       6.181   1.991  -2.462  0.00  0.00    -0.090 HD
ENDBRANCH  17  18
ENDBRANCH   3  17
TORSDOF 5
