REMARK  Name = ZINC67614423
REMARK  5 active torsions:
REMARK  status: ('A' for Active; 'I' for Inactive)
REMARK    1  A    between atoms: C_1  and  N_2
REMARK    2  A    between atoms: N_2  and  C_3
REMARK    3  A    between atoms: C_3  and  C_4
REMARK    4  A    between atoms: N_12  and  C_13
REMARK    5  A    between atoms: C_16  and  C_18
REMARK                            x       y       z     vdW  Elec       q    Type
REMARK                         _______ _______ _______ _____ _____    ______ ____
ROOT
ATOM      1  C   UNL     1      -0.018   1.461   0.010  0.00  0.00    +0.134 C 
ATOM      2  N   UNL     1       0.002  -0.004   0.002  0.00  0.00    -0.284 N 
ATOM      3  C   UNL     1       0.000  -0.672  -1.169  0.00  0.00    +0.302 C 
ATOM      4  O   UNL     1       0.017  -1.887  -1.175  0.00  0.00    -0.253 OA
ATOM      5  N   UNL     1      -0.020   0.009  -2.332  0.00  0.00    -0.296 N 
ATOM      6  H   UNL     1      -0.033   0.978  -2.327  0.00  0.00    +0.151 HD
ENDROOT
BRANCH   5   7
ATOM      7  C   UNL     1      -0.022  -0.717  -3.605  0.00  0.00    +0.082 C 
ATOM      8  C   UNL     1      -0.978  -0.228  -4.695  0.00  0.00    +0.033 C 
ATOM      9  C   UNL     1       0.528   0.010  -4.834  0.00  0.00    +0.041 C 
BRANCH   9  10
ATOM     10  C   UNL     1       1.272  -0.813  -5.854  0.00  0.00    -0.042 A 
ATOM     11  C   UNL     1       0.633  -1.856  -6.499  0.00  0.00    +0.004 A 
ATOM     12  C   UNL     1       1.315  -2.611  -7.434  0.00  0.00    +0.000 A 
ATOM     13  C   UNL     1       2.635  -2.322  -7.726  0.00  0.00    +0.000 A 
ATOM     14  C   UNL     1       3.273  -1.278  -7.082  0.00  0.00    +0.000 A 
ATOM     15  C   UNL     1       2.590  -0.521  -6.149  0.00  0.00    +0.004 A 
ENDBRANCH   9  10
ENDBRANCH   5   7
BRANCH   2  16
ATOM     16  C   UNL     1       0.024  -0.743   1.267  0.00  0.00    +0.151 C 
BRANCH  16  17
ATOM     17  C   UNL     1      -1.389  -1.016   1.714  0.00  0.00    +0.009 A 
ATOM     18  C   UNL     1      -2.180  -2.082   1.440  0.00  0.00    +0.014 A 
ATOM     19  C   UNL     1      -3.459  -2.121   1.964  0.00  0.00    +0.028 A 
ATOM     20  C   UNL     1      -3.883  -1.090   2.737  0.00  0.00    +0.078 A 
ATOM     21  S   UNL     1      -2.452  -0.022   2.748  0.00  0.00    -0.080 S 
ATOM     22 CL   UNL     1      -5.418  -0.869   3.518  0.00  0.00    -0.076 Cl
ENDBRANCH  16  17
ENDBRANCH   2  16
TORSDOF 4
