REMARK  Name = ZINC42175453
REMARK  3 active torsions:
REMARK  status: ('A' for Active; 'I' for Inactive)
REMARK    1  A    between atoms: C_6  and  C_7
REMARK    2  A    between atoms: C_8  and  C_13
REMARK    3  A    between atoms: C_11  and  N_12
REMARK                            x       y       z     vdW  Elec       q    Type
REMARK                         _______ _______ _______ _____ _____    ______ ____
ROOT
ATOM      1  C   UNL     1      -1.301  -0.717   0.038  0.00  0.00    +0.066 A 
ATOM      2  C   UNL     1      -1.732  -1.608   1.045  0.00  0.00    +0.097 A 
ATOM      3  N   UNL     1      -2.857  -2.142   0.661  0.00  0.00    -0.080 NA
ATOM      4  O   UNL     1      -3.198  -1.617  -0.608  0.00  0.00    -0.339 OA
ATOM      5  C   UNL     1      -2.243  -0.746  -0.972  0.00  0.00    +0.223 A 
ENDROOT
BRANCH   1  11
ATOM      6  C   UNL     1      -0.152   1.495   0.108  0.00  0.00    +0.010 A 
ATOM      7  C   UNL     1       1.000   2.254   0.132  0.00  0.00    +0.020 A 
ATOM      8  C   UNL     1       2.239   1.637   0.112  0.00  0.00    +0.041 A 
ATOM      9  C   UNL     1       2.330   0.256   0.068  0.00  0.00    +0.020 A 
ATOM     10  C   UNL     1       1.184  -0.512   0.044  0.00  0.00    +0.010 A 
ATOM     11  C   UNL     1      -0.067   0.104   0.064  0.00  0.00    -0.011 A 
ATOM     12 CL   UNL     1       3.684   2.598   0.142  0.00  0.00    -0.084 Cl
ENDBRANCH   1  11
BRANCH   2  13
ATOM     13  C   UNL     1      -1.015  -1.893   2.339  0.00  0.00    +0.045 C 
ATOM     14  C   UNL     1      -2.033  -2.176   3.468  0.00  0.00    +0.013 C 
ATOM     15  C   UNL     1      -1.718  -3.633   3.926  0.00  0.00    -0.010 C 
ATOM     16  C   UNL     1      -2.208  -4.527   2.746  0.00  0.00    +0.004 C 
ATOM     17  C   UNL     1      -1.205  -4.252   1.603  0.00  0.00    +0.004 C 
ATOM     18  C   UNL     1      -0.179  -3.204   2.220  0.00  0.00    -0.002 C 
ATOM     19  C   UNL     1      -0.163  -3.673   3.719  0.00  0.00    +0.007 C 
ENDBRANCH   2  13
BRANCH   5  20
ATOM     20  N   UNL     1      -2.207  -0.015  -2.142  0.00  0.00    -0.327 N 
ATOM     21  H   UNL     1      -1.469   0.590  -2.313  0.00  0.00    +0.145 HD
ATOM     22  H   UNL     1      -2.921  -0.106  -2.792  0.00  0.00    +0.145 HD
ENDBRANCH   5  20
TORSDOF 3
