REMARK  Name = ZINC22911687
REMARK  10 active torsions:
REMARK  status: ('A' for Active; 'I' for Inactive)
REMARK    1  A    between atoms: C_1  and  C_2
REMARK    2  A    between atoms: C_2  and  C_3
REMARK    3  A    between atoms: C_2  and  N_4
REMARK    4  A    between atoms: C_6  and  N_29
REMARK    5  A    between atoms: C_9  and  C_11
REMARK    6  A    between atoms: N_16  and  C_19
REMARK    7  A    between atoms: C_23  and  C_25
REMARK    8  A    between atoms: N_29  and  C_30
REMARK    9  A    between atoms: C_30  and  C_31
REMARK   10  A    between atoms: C_36  and  O_37
REMARK                            x       y       z     vdW  Elec       q    Type
REMARK                         _______ _______ _______ _____ _____    ______ ____
ROOT
ATOM      1  N   UNL     1      -1.063  -2.194   0.284  0.00  0.00    -0.291 NA
ATOM      2  C   UNL     1      -2.067  -2.734   1.219  0.00  0.00    +0.070 C 
ATOM      3  C   UNL     1      -2.954  -1.555   1.669  0.00  0.00    -0.055 C 
ATOM      4  C   UNL     1      -2.052  -0.319   1.408  0.00  0.00    +0.014 C 
ATOM      5  C   UNL     1      -1.305  -0.745   0.119  0.00  0.00    +0.142 C 
ENDROOT
BRANCH   5   6
ATOM      6  C   UNL     1       0.002  -0.004   0.002  0.00  0.00    +0.233 C 
ATOM      7  O   UNL     1       1.036  -0.541   0.341  0.00  0.00    -0.274 OA
ATOM      8  N   UNL     1       0.023   1.254  -0.480  0.00  0.00    -0.297 N 
ATOM      9  C   UNL     1      -1.200   1.883  -1.004  0.00  0.00    +0.126 C 
ATOM     10  C   UNL     1      -1.368   3.250  -0.323  0.00  0.00    +0.124 C 
ATOM     11  N   UNL     1      -0.140   4.036  -0.504  0.00  0.00    -0.327 N 
ATOM     12  C   UNL     1       1.005   3.394   0.154  0.00  0.00    +0.124 C 
ATOM     13  C   UNL     1       1.270   2.034  -0.501  0.00  0.00    +0.126 C 
BRANCH  11  14
ATOM     14  C   UNL     1      -0.312   5.345  -0.047  0.00  0.00    +0.030 A 
ATOM     15  C   UNL     1       0.547   5.864   0.914  0.00  0.00    +0.023 A 
ATOM     16  C   UNL     1       0.378   7.160   1.361  0.00  0.00    +0.002 A 
ATOM     17  C   UNL     1      -0.651   7.936   0.861  0.00  0.00    +0.012 A 
ATOM     18  C   UNL     1      -1.511   7.421  -0.091  0.00  0.00    +0.057 A 
ATOM     19  C   UNL     1      -1.344   6.127  -0.547  0.00  0.00    +0.035 A 
BRANCH  18  20
ATOM     20  C   UNL     1      -2.631   8.271  -0.633  0.00  0.00    +0.417 C 
ATOM     21  F   UNL     1      -3.773   8.095   0.155  0.00  0.00    -0.166 F 
ATOM     22  F   UNL     1      -2.250   9.617  -0.608  0.00  0.00    -0.166 F 
ATOM     23  F   UNL     1      -2.910   7.890  -1.950  0.00  0.00    -0.166 F 
ENDBRANCH  18  20
ENDBRANCH  11  14
ENDBRANCH   5   6
BRANCH   1  25
ATOM     24  C   UNL     1      -0.744  -4.358  -0.817  0.00  0.00    +0.024 C 
ATOM     25  C   UNL     1      -1.121  -2.888  -1.010  0.00  0.00    +0.051 C 
ATOM     26  C   UNL     1      -2.540  -2.795  -1.575  0.00  0.00    +0.024 C 
ENDBRANCH   1  25
BRANCH   3  27
ATOM     27  N   UNL     1      -3.284  -1.664   3.097  0.00  0.00    +0.385 N 
ATOM     28  H   UNL     1      -2.477  -2.198   3.620  0.00  0.00    -0.085 HD
ATOM     29  H   UNL     1      -3.395  -0.657   3.525  0.00  0.00    -0.085 HD
BRANCH  27  30
ATOM     30  C   UNL     1      -4.540  -2.399   3.292  0.00  0.00    -0.043 C 
BRANCH  30  31
ATOM     31  C   UNL     1      -4.846  -2.491   4.764  0.00  0.00    -0.023 A 
ATOM     32  C   UNL     1      -4.563  -3.652   5.458  0.00  0.00    +0.005 A 
ATOM     33  C   UNL     1      -4.838  -3.734   6.811  0.00  0.00    +0.000 A 
ATOM     34  C   UNL     1      -5.407  -2.660   7.470  0.00  0.00    +0.004 A 
ATOM     35  C   UNL     1      -5.696  -1.499   6.780  0.00  0.00    +0.045 A 
ATOM     36  C   UNL     1      -5.416  -1.412   5.423  0.00  0.00    +0.118 A 
BRANCH  36  37
ATOM     37  O   UNL     1      -5.700  -0.271   4.742  0.00  0.00    -0.507 OA
ATOM     38  H   UNL     1      -6.153   0.584   5.265  0.00  0.00    +0.292 HD
ENDBRANCH  36  37
ENDBRANCH  30  31
ENDBRANCH  27  30
ENDBRANCH   3  27
TORSDOF 8
