REMARK  Name = ZINC61700072
REMARK  7 active torsions:
REMARK  status: ('A' for Active; 'I' for Inactive)
REMARK    1  A    between atoms: C_1  and  C_2
REMARK    2  A    between atoms: C_7  and  S_9
REMARK    3  A    between atoms: S_9  and  C_10
REMARK    4  A    between atoms: C_13  and  C_17
REMARK    5  A    between atoms: C_17  and  C_19
REMARK    6  A    between atoms: C_17  and  N_20
REMARK    7  A    between atoms: N_20  and  C_21
REMARK                            x       y       z     vdW  Elec       q    Type
REMARK                         _______ _______ _______ _____ _____    ______ ____
ROOT
ATOM      1  C   UNL     1      -0.885   3.172  -6.125  0.00  0.00    +0.030 A 
ATOM      2  C   UNL     1      -2.220   3.407  -5.819  0.00  0.00    +0.016 A 
ATOM      3  C   UNL     1      -3.076   3.883  -6.792  0.00  0.00    +0.003 A 
ATOM      4  C   UNL     1      -2.607   4.126  -8.070  0.00  0.00    -0.061 A 
ATOM      5  C   UNL     1      -1.280   3.893  -8.379  0.00  0.00    +0.018 A 
ATOM      6  C   UNL     1      -0.415   3.423  -7.409  0.00  0.00    +0.032 A 
ATOM      7 BR   UNL     1       1.402   3.113  -7.829  0.00  0.00    -0.049 Br
ENDROOT
BRANCH   4   8
ATOM      8  C   UNL     1      -3.546   4.644  -9.130  0.00  0.00    -0.044 C 
ATOM      9  C   UNL     1      -3.994   3.487 -10.024  0.00  0.00    -0.009 C 
BRANCH   8  10
ATOM     10  N   UNL     1      -2.855   5.653  -9.944  0.00  0.00    +0.382 N 
ATOM     11  C   UNL     1      -3.803   6.245 -10.898  0.00  0.00    -0.100 C 
ATOM     12  H   UNL     1      -2.487   6.376  -9.343  0.00  0.00    -0.085 HD
ATOM     13  H   UNL     1      -2.098   5.218 -10.448  0.00  0.00    -0.085 HD
ENDBRANCH   8  10
ENDBRANCH   4   8
BRANCH   1  14
ATOM     14  S   UNL     1       0.211   2.565  -4.886  0.00  0.00    -0.049 S 
BRANCH  14  21
ATOM     15  C   UNL     1       2.428  -1.977  -4.080  0.00  0.00    +0.066 C 
ATOM     16  C   UNL     1       1.446  -1.155  -4.875  0.00  0.00    +0.046 A 
ATOM     17  C   UNL     1       0.719  -1.732  -5.899  0.00  0.00    +0.095 A 
ATOM     18  C   UNL     1      -0.178  -0.935  -6.609  0.00  0.00    +0.274 A 
ATOM     19  O   UNL     1      -0.911  -1.460  -7.621  0.00  0.00    -0.266 OA
ATOM     20  N   UNL     1      -0.305   0.344  -6.280  0.00  0.00    -0.183 NA
ATOM     21  C   UNL     1       0.409   0.861  -5.291  0.00  0.00    +0.197 A 
ATOM     22  N   UNL     1       1.266   0.128  -4.595  0.00  0.00    -0.227 NA
ENDBRANCH  14  21
ENDBRANCH   1  14
TORSDOF 4
