REMARK  Name = ZINC15304755
REMARK  8 active torsions:
REMARK  status: ('A' for Active; 'I' for Inactive)
REMARK    1  A    between atoms: C_1  and  C_2
REMARK    2  A    between atoms: C_2  and  C_3
REMARK    3  A    between atoms: C_2  and  C_4
REMARK    4  A    between atoms: C_4  and  N_5
REMARK    5  A    between atoms: C_14  and  C_27
REMARK    6  A    between atoms: C_14  and  C_31
REMARK    7  A    between atoms: C_16  and  C_18
REMARK    8  A    between atoms: C_22  and  N_24
REMARK                            x       y       z     vdW  Elec       q    Type
REMARK                         _______ _______ _______ _____ _____    ______ ____
ROOT
ATOM      1  N   UNL     1       0.258  -1.379  -2.345  0.00  0.00    -0.281 N 
ATOM      2  C   UNL     1      -0.766  -2.262  -2.581  0.00  0.00    +0.119 A 
ATOM      3  C   UNL     1      -0.540  -3.603  -2.477  0.00  0.00    +0.100 A 
ATOM      4  C   UNL     1       0.747  -4.053  -2.136  0.00  0.00    +0.262 A 
ATOM      5  O   UNL     1       0.975  -5.246  -2.042  0.00  0.00    -0.267 OA
ATOM      6  N   UNL     1       1.726  -3.153  -1.914  0.00  0.00    -0.275 N 
ATOM      7  H   UNL     1       2.735  -3.495  -1.641  0.00  0.00    +0.173 HD
ATOM      8  C   UNL     1       1.484  -1.834  -2.021  0.00  0.00    +0.331 A 
ATOM      9  O   UNL     1       2.383  -1.042  -1.819  0.00  0.00    -0.246 OA
ATOM     10  C   UNL     1      -1.648  -4.587  -2.721  0.00  0.00    +0.285 C 
ATOM     11  N   UNL     1      -2.768  -3.962  -3.413  0.00  0.00    -0.239 NA
ATOM     12  C   UNL     1      -2.923  -2.681  -3.494  0.00  0.00    +0.128 C 
ATOM     13  N   UNL     1      -2.017  -1.808  -2.926  0.00  0.00    -0.285 N 
ATOM     14  H   UNL     1      -2.288  -0.756  -2.749  0.00  0.00    +0.155 HD
ENDROOT
BRANCH  12  15
ATOM     15  C   UNL     1      -4.099  -2.138  -4.211  0.00  0.00    +0.017 A 
ATOM     16  C   UNL     1      -4.284  -0.758  -4.309  0.00  0.00    +0.011 A 
ATOM     17  C   UNL     1      -5.381  -0.258  -4.978  0.00  0.00    +0.003 A 
ATOM     18  C   UNL     1      -6.298  -1.122  -5.552  0.00  0.00    +0.033 A 
ATOM     19  C   UNL     1      -6.120  -2.490  -5.459  0.00  0.00    +0.127 A 
ATOM     20  C   UNL     1      -5.023  -3.003  -4.796  0.00  0.00    +0.044 A 
BRANCH  19  21
ATOM     21  N   UNL     1      -7.105  -3.407  -6.075  0.00  0.00    +0.056 N 
ATOM     22  O   UNL     1      -8.071  -2.956  -6.664  0.00  0.00    -0.126 OA
ATOM     23  O   UNL     1      -6.949  -4.612  -5.994  0.00  0.00    -0.126 OA
ENDBRANCH  19  21
ENDBRANCH  12  15
BRANCH  10  24
ATOM     24  C   UNL     1      -2.133  -5.139  -1.379  0.00  0.00    +0.428 C 
ATOM     25  F   UNL     1      -3.137  -6.087  -1.601  0.00  0.00    -0.167 F 
ATOM     26  F   UNL     1      -1.063  -5.741  -0.709  0.00  0.00    -0.167 F 
ATOM     27  F   UNL     1      -2.642  -4.093  -0.602  0.00  0.00    -0.167 F 
ENDBRANCH  10  24
BRANCH  10  28
ATOM     28  C   UNL     1      -1.114  -5.740  -3.573  0.00  0.00    +0.428 C 
ATOM     29  F   UNL     1      -0.341  -5.227  -4.621  0.00  0.00    -0.167 F 
ATOM     30  F   UNL     1      -0.324  -6.579  -2.780  0.00  0.00    -0.167 F 
ATOM     31  F   UNL     1      -2.186  -6.468  -4.098  0.00  0.00    -0.167 F 
ENDBRANCH  10  28
BRANCH   1  32
ATOM     32  C   UNL     1       0.020   0.062  -2.453  0.00  0.00    +0.131 C 
BRANCH  32  34
ATOM     33  C   UNL     1      -0.792   2.087  -1.234  0.00  0.00    +0.009 C 
ATOM     34  C   UNL     1      -0.423   0.609  -1.094  0.00  0.00    +0.003 C 
ATOM     35  C   UNL     1       0.721   0.462  -0.088  0.00  0.00    +0.009 C 
ENDBRANCH  32  34
ENDBRANCH   1  32
TORSDOF 6
