REMARK  Name = ZINC02232431
REMARK  9 active torsions:
REMARK  status: ('A' for Active; 'I' for Inactive)
REMARK    1  A    between atoms: C_1  and  C_2
REMARK    2  A    between atoms: C_2  and  O_3
REMARK    3  A    between atoms: O_3  and  C_4
REMARK    4  A    between atoms: C_4  and  C_6
REMARK    5  A    between atoms: C_7  and  C_28
REMARK    6  A    between atoms: C_9  and  N_27
REMARK    7  A    between atoms: C_10  and  C_25
REMARK    8  A    between atoms: N_18  and  C_21
REMARK    9  A    between atoms: C_21  and  C_22
REMARK                            x       y       z     vdW  Elec       q    Type
REMARK                         _______ _______ _______ _____ _____    ______ ____
ROOT
ATOM      1  C   UNL     1      -0.062   1.339   0.092  0.00  0.00    +0.099 C 
ATOM      2  C   UNL     1      -0.161   0.002   0.098  0.00  0.00    +0.116 C 
ATOM      3  O   UNL     1       0.918  -0.793   0.151  0.00  0.00    -0.445 OA
ATOM      4  C   UNL     1       2.092  -0.295   0.577  0.00  0.00    +0.199 C 
ATOM      5  C   UNL     1       2.333   1.040   0.600  0.00  0.00    +0.110 C 
ATOM      6  C   UNL     1       1.279   2.010   0.149  0.00  0.00    +0.148 C 
ATOM      7  C   UNL     1       1.637   2.590  -1.196  0.00  0.00    -0.001 A 
ATOM      8  C   UNL     1       1.830   2.031  -2.439  0.00  0.00    +0.007 A 
ATOM      9  C   UNL     1       2.160   2.837  -3.515  0.00  0.00    +0.000 A 
ATOM     10  C   UNL     1       2.295   4.202  -3.337  0.00  0.00    +0.002 A 
ATOM     11  C   UNL     1       2.103   4.764  -2.092  0.00  0.00    +0.024 A 
ATOM     12  C   UNL     1       1.770   3.960  -1.004  0.00  0.00    +0.042 A 
ATOM     13  N   UNL     1       1.527   4.286   0.331  0.00  0.00    -0.261 N 
ATOM     14  C   UNL     1       1.233   3.204   1.073  0.00  0.00    +0.241 C 
ATOM     15  O   UNL     1       0.979   3.189   2.259  0.00  0.00    -0.274 OA
ATOM     16  C   UNL     1      -1.529  -0.629   0.042  0.00  0.00    +0.087 C 
ENDROOT
BRANCH   4  17
ATOM     17  N   UNL     1       3.071  -1.159   0.998  0.00  0.00    -0.328 N 
ATOM     18  H   UNL     1       2.912  -2.116   0.987  0.00  0.00    +0.145 HD
ATOM     19  H   UNL     1       3.923  -0.813   1.307  0.00  0.00    +0.145 HD
ENDBRANCH   4  17
BRANCH   1  20
ATOM     20  C   UNL     1      -1.238   2.127   0.025  0.00  0.00    +0.340 C 
ATOM     21  O   UNL     1      -1.577   2.625  -1.033  0.00  0.00    -0.245 OA
BRANCH  20  22
ATOM     22  O   UNL     1      -1.981   2.326   1.133  0.00  0.00    -0.462 OA
BRANCH  22  24
ATOM     23  C   UNL     1      -3.858   3.256   2.338  0.00  0.00    +0.048 C 
ATOM     24  C   UNL     1      -3.216   3.026   0.969  0.00  0.00    +0.229 C 
ENDBRANCH  22  24
ENDBRANCH  20  22
ENDBRANCH   1  20
BRANCH   5  25
ATOM     25  C   UNL     1       3.600   1.526   1.057  0.00  0.00    +0.102 C 
ATOM     26  N   UNL     1       4.605   1.912   1.419  0.00  0.00    -0.191 NA
ENDBRANCH   5  25
BRANCH  13  27
ATOM     27  C   UNL     1       1.586   5.650   0.863  0.00  0.00    +0.209 C 
BRANCH  27  28
ATOM     28  C   UNL     1       0.208   6.259   0.838  0.00  0.00    +0.228 C 
ATOM     29  O   UNL     1      -0.712   5.658   0.324  0.00  0.00    -0.274 OA
ATOM     30  N   UNL     1      -0.003   7.472   1.387  0.00  0.00    -0.328 N 
ATOM     31  H   UNL     1       0.733   7.953   1.798  0.00  0.00    +0.145 HD
ATOM     32  H   UNL     1      -0.890   7.864   1.371  0.00  0.00    +0.145 HD
ENDBRANCH  27  28
ENDBRANCH  13  27
TORSDOF 7
