REMARK  Name = ZINC67491421
REMARK  10 active torsions:
REMARK  status: ('A' for Active; 'I' for Inactive)
REMARK    1  A    between atoms: C_1  and  C_2
REMARK    2  A    between atoms: C_5  and  N_11
REMARK    3  A    between atoms: C_7  and  C_8
REMARK    4  A    between atoms: C_12  and  C_14
REMARK    5  A    between atoms: N_16  and  C_17
REMARK    6  A    between atoms: C_17  and  C_18
REMARK    7  A    between atoms: C_18  and  C_20
REMARK    8  A    between atoms: C_18  and  N_25
REMARK    9  A    between atoms: N_25  and  C_26
REMARK   10  A    between atoms: N_25  and  C_27
REMARK                            x       y       z     vdW  Elec       q    Type
REMARK                         _______ _______ _______ _____ _____    ______ ____
ROOT
ATOM      1  N   UNL     1       0.380  -4.384  -0.189  0.00  0.00    -0.278 N 
ATOM      2  C   UNL     1       0.351  -5.012  -1.381  0.00  0.00    +0.303 C 
ATOM      3  O   UNL     1       0.319  -4.366  -2.407  0.00  0.00    -0.265 OA
ATOM      4  H   UNL     1       0.330  -4.898   0.632  0.00  0.00    +0.155 HD
ENDROOT
BRANCH   1   9
ATOM      5  C   UNL     1       0.777   1.278   0.055  0.00  0.00    +0.044 C 
ATOM      6  C   UNL     1       0.673  -0.224  -0.013  0.00  0.00    -0.038 A 
ATOM      7  C   UNL     1       0.062  -0.920   1.011  0.00  0.00    +0.006 A 
ATOM      8  C   UNL     1      -0.035  -2.297   0.953  0.00  0.00    +0.023 A 
ATOM      9  C   UNL     1       0.480  -2.991  -0.136  0.00  0.00    +0.035 A 
ATOM     10  C   UNL     1       1.095  -2.300  -1.169  0.00  0.00    +0.036 A 
ATOM     11  C   UNL     1       1.189  -0.910  -1.113  0.00  0.00    +0.041 A 
BRANCH  11  12
ATOM     12  C   UNL     1       1.838  -0.165  -2.214  0.00  0.00    +0.242 C 
ATOM     13  O   UNL     1       1.990   1.037  -2.127  0.00  0.00    -0.270 OA
ATOM     14  N   UNL     1       2.261  -0.821  -3.313  0.00  0.00    -0.325 N 
ATOM     15  H   UNL     1       2.139  -1.780  -3.382  0.00  0.00    +0.145 HD
ATOM     16  H   UNL     1       2.687  -0.332  -4.035  0.00  0.00    +0.145 HD
ENDBRANCH  11  12
ENDBRANCH   1   9
BRANCH   2  17
ATOM     17  C   UNL     1       0.360  -6.505  -1.438  0.00  0.00    +0.299 C 
ATOM     18  O   UNL     1       0.393  -7.151  -0.412  0.00  0.00    -0.265 OA
ATOM     19  N   UNL     1       0.332  -7.133  -2.630  0.00  0.00    -0.309 N 
ATOM     20  H   UNL     1       0.306  -6.617  -3.450  0.00  0.00    +0.149 HD
BRANCH  19  21
ATOM     21  C   UNL     1       0.341  -8.597  -2.687  0.00  0.00    +0.097 C 
BRANCH  21  22
ATOM     22  C   UNL     1       0.427  -9.051  -4.145  0.00  0.00    +0.016 C 
BRANCH  22  23
ATOM     23  C   UNL     1       1.750  -8.623  -4.727  0.00  0.00    +0.093 A 
ATOM     24  C   UNL     1       2.830  -9.408  -4.886  0.00  0.00    +0.043 A 
ATOM     25  C   UNL     1       3.840  -8.604  -5.463  0.00  0.00    +0.041 A 
ATOM     26  C   UNL     1       3.316  -7.375  -5.621  0.00  0.00    +0.195 A 
ATOM     27  O   UNL     1       2.048  -7.394  -5.179  0.00  0.00    -0.469 OA
ENDBRANCH  22  23
BRANCH  22  28
ATOM     28  N   UNL     1      -0.666  -8.441  -4.913  0.00  0.00    +0.384 N 
ATOM     29  C   UNL     1      -0.652  -8.965  -6.286  0.00  0.00    -0.096 C 
ATOM     30  C   UNL     1      -1.951  -8.765  -4.279  0.00  0.00    -0.096 C 
ATOM     31  H   UNL     1      -0.544  -7.440  -4.935  0.00  0.00    -0.082 HD
ENDBRANCH  22  28
ENDBRANCH  21  22
ENDBRANCH  19  21
ENDBRANCH   2  17
TORSDOF 7
