REMARK  Name = ZINC13450473
REMARK  5 active torsions:
REMARK  status: ('A' for Active; 'I' for Inactive)
REMARK    1  A    between atoms: C_1  and  C_2
REMARK    2  A    between atoms: C_7  and  C_10
REMARK    3  A    between atoms: C_11  and  C_13
REMARK    4  A    between atoms: C_17  and  C_28
REMARK    5  A    between atoms: C_20  and  C_24
REMARK                            x       y       z     vdW  Elec       q    Type
REMARK                         _______ _______ _______ _____ _____    ______ ____
ROOT
ATOM      1  C   UNL     1       3.337  -3.665  -1.204  0.00  0.00    +0.110 C 
ATOM      2  C   UNL     1       2.987  -3.307  -2.464  0.00  0.00    +0.072 C 
ATOM      3  C   UNL     1       3.913  -3.973  -3.378  0.00  0.00    +0.114 C 
ATOM      4  N   UNL     1       3.970  -3.945  -4.679  0.00  0.00    -0.362 N 
ATOM      5  C   UNL     1       4.990  -4.745  -5.367  0.00  0.00    +0.149 C 
ATOM      6  C   UNL     1       6.255  -4.852  -4.513  0.00  0.00    +0.065 C 
ATOM      7  C   UNL     1       5.910  -5.472  -3.150  0.00  0.00    +0.202 C 
ATOM      8  N   UNL     1       4.801  -4.694  -2.588  0.00  0.00    -0.226 N 
ATOM      9  N   UNL     1       4.433  -4.512  -1.260  0.00  0.00    -0.258 N 
ATOM     10  H   UNL     1       4.871  -4.915  -0.494  0.00  0.00    +0.170 HD
ATOM     11  H   UNL     1       3.346  -3.402  -5.187  0.00  0.00    +0.162 HD
ENDROOT
BRANCH   1  20
ATOM     12  C   UNL     1       3.047   2.020   1.498  0.00  0.00    +0.007 C 
ATOM     13  C   UNL     1       2.375   0.792   0.879  0.00  0.00    -0.011 C 
ATOM     14  C   UNL     1       3.246   0.253  -0.257  0.00  0.00    +0.022 C 
ATOM     15  C   UNL     1       2.554  -0.955  -0.897  0.00  0.00    +0.108 C 
ATOM     16  N   UNL     1       2.253  -1.938   0.152  0.00  0.00    -0.294 N 
ATOM     17  C   UNL     1       1.497  -1.502   1.334  0.00  0.00    +0.074 C 
ATOM     18  C   UNL     1       2.202  -0.288   1.949  0.00  0.00    +0.025 C 
ATOM     19  C   UNL     1       1.442  -2.638   2.357  0.00  0.00    +0.028 C 
ATOM     20  C   UNL     1       2.662  -3.217   0.033  0.00  0.00    +0.262 C 
ATOM     21  O   UNL     1       2.476  -4.002   0.942  0.00  0.00    -0.269 OA
ENDBRANCH   1  20
BRANCH   5  22
ATOM     22  C   UNL     1       4.447  -6.127  -5.624  0.00  0.00    +0.127 A 
ATOM     23  C   UNL     1       4.639  -6.852  -6.741  0.00  0.00    +0.047 A 
ATOM     24  C   UNL     1       3.958  -8.077  -6.556  0.00  0.00    +0.041 A 
ATOM     25  C   UNL     1       3.390  -8.027  -5.338  0.00  0.00    +0.195 A 
ATOM     26  O   UNL     1       3.695  -6.846  -4.776  0.00  0.00    -0.466 OA
ENDBRANCH   5  22
BRANCH   7  27
ATOM     27  C   UNL     1       7.124  -5.398  -2.222  0.00  0.00    +0.410 C 
ATOM     28  F   UNL     1       7.491  -4.061  -2.041  0.00  0.00    -0.169 F 
ATOM     29  F   UNL     1       6.800  -5.965  -0.985  0.00  0.00    -0.169 F 
ATOM     30  F   UNL     1       8.190  -6.102  -2.792  0.00  0.00    -0.169 F 
ENDBRANCH   7  27
TORSDOF 3
