REMARK  Name = ZINC20548366
REMARK  6 active torsions:
REMARK  status: ('A' for Active; 'I' for Inactive)
REMARK    1  A    between atoms: C_1  and  C_2
REMARK    2  A    between atoms: C_2  and  C_3
REMARK    3  A    between atoms: C_3  and  C_4
REMARK    4  A    between atoms: C_4  and  N_5
REMARK    5  A    between atoms: C_10  and  C_28
REMARK    6  A    between atoms: C_28  and  C_29
REMARK                            x       y       z     vdW  Elec       q    Type
REMARK                         _______ _______ _______ _____ _____    ______ ____
ROOT
ATOM      1  N   UNL     1       1.425  -2.500  -2.470  0.00  0.00    -0.242 N 
ATOM      2  C   UNL     1       0.784  -2.738  -3.621  0.00  0.00    +0.227 C 
ATOM      3  O   UNL     1      -0.406  -2.599  -3.802  0.00  0.00    -0.275 OA
ATOM      4  C   UNL     1       1.776  -3.207  -4.660  0.00  0.00    +0.107 C 
ATOM      5  C   UNL     1       1.496  -4.686  -5.003  0.00  0.00    +0.076 C 
ATOM      6  N   UNL     1       2.262  -5.464  -3.994  0.00  0.00    -0.295 NA
ATOM      7  C   UNL     1       3.518  -4.707  -3.833  0.00  0.00    +0.136 C 
ATOM      8  C   UNL     1       3.128  -3.209  -3.892  0.00  0.00    +0.122 C 
ATOM      9  C   UNL     1       2.743  -2.723  -2.512  0.00  0.00    +0.228 C 
ATOM     10  O   UNL     1       3.510  -2.563  -1.587  0.00  0.00    -0.275 OA
ATOM     11  C   UNL     1       4.209  -5.050  -2.544  0.00  0.00    +0.005 A 
ATOM     12  C   UNL     1       3.842  -4.965  -1.220  0.00  0.00    +0.027 A 
ATOM     13  C   UNL     1       4.721  -5.370  -0.230  0.00  0.00    +0.041 A 
ATOM     14  C   UNL     1       5.969  -5.859  -0.576  0.00  0.00    +0.022 A 
ATOM     15  C   UNL     1       6.340  -5.945  -1.901  0.00  0.00    +0.025 A 
ATOM     16  C   UNL     1       5.461  -5.540  -2.903  0.00  0.00    +0.039 A 
ATOM     17  N   UNL     1       5.604  -5.528  -4.293  0.00  0.00    -0.283 N 
ATOM     18  C   UNL     1       4.507  -5.052  -4.913  0.00  0.00    +0.243 C 
ATOM     19  O   UNL     1       4.348  -4.926  -6.108  0.00  0.00    -0.273 OA
ATOM     20 CL   UNL     1       4.260  -5.263   1.440  0.00  0.00    -0.084 Cl
ATOM     21  H   UNL     1       1.759  -5.519  -3.121  0.00  0.00    +0.124 HD
ATOM     22  H   UNL     1       6.401  -5.828  -4.757  0.00  0.00    +0.155 HD
ENDROOT
BRANCH   1  23
ATOM     23  C   UNL     1       0.739  -2.027  -1.265  0.00  0.00    +0.116 C 
BRANCH  23  24
ATOM     24  C   UNL     1       0.718  -0.497  -1.257  0.00  0.00    +0.019 C 
BRANCH  24  26
ATOM     25  C   UNL     1      -0.019   1.526   0.010  0.00  0.00    +0.004 C 
ATOM     26  C   UNL     1       0.002  -0.004   0.002  0.00  0.00    -0.002 C 
ENDBRANCH  24  26
ENDBRANCH  23  24
ENDBRANCH   1  23
BRANCH   5  27
ATOM     27  C   UNL     1      -0.000  -4.984  -4.886  0.00  0.00    +0.115 C 
BRANCH  27  28
ATOM     28  C   UNL     1      -0.268  -6.396  -5.342  0.00  0.00    +0.212 C 
ATOM     29  O   UNL     1       0.647  -7.093  -5.724  0.00  0.00    -0.276 OA
ATOM     30  N   UNL     1      -1.525  -6.882  -5.326  0.00  0.00    -0.329 N 
ATOM     31  H   UNL     1      -2.257  -6.324  -5.020  0.00  0.00    +0.145 HD
ATOM     32  H   UNL     1      -1.697  -7.790  -5.619  0.00  0.00    +0.145 HD
ENDBRANCH  27  28
ENDBRANCH   5  27
TORSDOF 5
