REMARK  Name = ZINC38144621
REMARK  11 active torsions:
REMARK  status: ('A' for Active; 'I' for Inactive)
REMARK    1  A    between atoms: C_1  and  C_2
REMARK    2  A    between atoms: C_2  and  C_3
REMARK    3  A    between atoms: C_3  and  C_4
REMARK    4  A    between atoms: C_4  and  C_6
REMARK    5  A    between atoms: C_9  and  C_18
REMARK    6  A    between atoms: C_9  and  C_19
REMARK    7  A    between atoms: C_10  and  C_14
REMARK    8  A    between atoms: C_14  and  O_16
REMARK    9  A    between atoms: O_16  and  C_17
REMARK   10  A    between atoms: N_20  and  C_21
REMARK   11  A    between atoms: C_25  and  N_27
REMARK                            x       y       z     vdW  Elec       q    Type
REMARK                         _______ _______ _______ _____ _____    ______ ____
ROOT
ATOM      1  C   UNL     1       1.422  -2.757  -2.350  0.00  0.00    +0.164 C 
ATOM      2  C   UNL     1       0.954  -4.193  -2.226  0.00  0.00    +0.011 C 
ATOM      3  C   UNL     1       1.946  -5.294  -2.526  0.00  0.00    +0.057 C 
ATOM      4  C   UNL     1       3.190  -5.096  -1.655  0.00  0.00    -0.010 C 
ATOM      5  C   UNL     1       3.798  -3.718  -1.934  0.00  0.00    +0.171 C 
ATOM      6  C   UNL     1       2.761  -2.655  -1.649  0.00  0.00    +0.163 C 
ATOM      7  O   UNL     1       2.994  -1.750  -0.884  0.00  0.00    -0.295 OA
ATOM      8  C   UNL     1       2.799  -5.191  -0.179  0.00  0.00    +0.012 C 
ATOM      9  C   UNL     1       4.217  -6.181  -1.980  0.00  0.00    +0.012 C 
ATOM     10  N   UNL     1      -0.258  -4.468  -1.875  0.00  0.00    -0.361 N 
ATOM     11  H   UNL     1      -0.856  -3.756  -1.597  0.00  0.00    +0.165 HD
ENDROOT
BRANCH  10  12
ATOM     12  C   UNL     1      -0.700  -5.768  -1.894  0.00  0.00    +0.041 A 
ATOM     13  C   UNL     1      -0.615  -6.519  -3.066  0.00  0.00    +0.026 A 
ATOM     14  C   UNL     1      -1.061  -7.825  -3.079  0.00  0.00    +0.004 A 
ATOM     15  C   UNL     1      -1.591  -8.389  -1.932  0.00  0.00    +0.033 A 
ATOM     16  C   UNL     1      -1.678  -7.649  -0.767  0.00  0.00    +0.128 A 
ATOM     17  C   UNL     1      -1.230  -6.344  -0.740  0.00  0.00    +0.058 A 
BRANCH  16  18
ATOM     18  N   UNL     1      -2.247  -8.260   0.455  0.00  0.00    +0.056 N 
ATOM     19  O   UNL     1      -2.636  -9.405   0.434  0.00  0.00    -0.126 OA
ATOM     20  O   UNL     1      -2.323  -7.614   1.475  0.00  0.00    -0.126 OA
ENDBRANCH  16  18
ENDBRANCH  10  12
BRANCH   1  21
ATOM     21  C   UNL     1       0.428  -1.835  -1.692  0.00  0.00    +0.149 C 
ATOM     22  O   UNL     1       0.520  -1.589  -0.514  0.00  0.00    -0.296 OA
BRANCH  21  23
ATOM     23  C   UNL     1      -0.683  -1.221  -2.505  0.00  0.00    +0.075 C 
BRANCH  23  25
ATOM     24  C   UNL     1      -2.671   0.290  -2.429  0.00  0.00    +0.004 C 
ATOM     25  C   UNL     1      -1.544  -0.334  -1.604  0.00  0.00    +0.004 C 
ENDBRANCH  23  25
ENDBRANCH  21  23
ENDBRANCH   1  21
BRANCH   5  26
ATOM     26  C   UNL     1       4.997  -3.507  -1.046  0.00  0.00    +0.318 C 
ATOM     27  O   UNL     1       5.332  -4.370  -0.268  0.00  0.00    -0.250 OA
BRANCH  26  28
ATOM     28  O   UNL     1       5.692  -2.362  -1.118  0.00  0.00    -0.467 OA
ATOM     29  C   UNL     1       6.817  -2.230  -0.246  0.00  0.00    +0.280 C 
ENDBRANCH  26  28
ENDBRANCH   5  26
TORSDOF 7
