REMARK  Name = ZINC64962278
REMARK  6 active torsions:
REMARK  status: ('A' for Active; 'I' for Inactive)
REMARK    1  A    between atoms: C_3  and  S_12
REMARK    2  A    between atoms: C_6  and  S_7
REMARK    3  A    between atoms: S_7  and  C_8
REMARK    4  A    between atoms: S_12  and  N_15
REMARK    5  A    between atoms: N_15  and  C_16
REMARK    6  A    between atoms: N_19  and  C_22
REMARK                            x       y       z     vdW  Elec       q    Type
REMARK                         _______ _______ _______ _____ _____    ______ ____
ROOT
ATOM      1  S   UNL     1       3.890   2.319  -0.023  0.00  0.00    +0.059 S 
ATOM      2  O   UNL     1       4.872   1.461  -0.588  0.00  0.00    -0.153 OA
ATOM      3  O   UNL     1       3.595   3.599  -0.564  0.00  0.00    -0.153 OA
ENDROOT
BRANCH   1   6
ATOM      4  C   UNL     1      -0.017   1.385   0.010  0.00  0.00    +0.017 A 
ATOM      5  C   UNL     1       1.171   2.091   0.002  0.00  0.00    +0.029 A 
ATOM      6  C   UNL     1       2.377   1.415  -0.013  0.00  0.00    +0.105 A 
ATOM      7  C   UNL     1       2.400   0.033  -0.021  0.00  0.00    +0.029 A 
ATOM      8  C   UNL     1       1.217  -0.679  -0.014  0.00  0.00    +0.017 A 
ATOM      9  C   UNL     1       0.002  -0.004   0.002  0.00  0.00    +0.016 A 
BRANCH   9  10
ATOM     10  S   UNL     1      -1.510  -0.908   0.012  0.00  0.00    -0.016 S 
BRANCH  10  11
ATOM     11  C   UNL     1      -0.984  -2.644  -0.002  0.00  0.00    +0.448 C 
ATOM     12  F   UNL     1      -0.207  -2.905   1.131  0.00  0.00    -0.160 F 
ATOM     13  F   UNL     1      -2.111  -3.473   0.004  0.00  0.00    -0.160 F 
ATOM     14  F   UNL     1      -0.229  -2.893  -1.153  0.00  0.00    -0.160 F 
ENDBRANCH  10  11
ENDBRANCH   9  10
ENDBRANCH   1   6
BRANCH   1  15
ATOM     15  N   UNL     1       4.325   2.562   1.557  0.00  0.00    -0.187 NA
ATOM     16  H   UNL     1       4.353   3.461   1.919  0.00  0.00    +0.148 HD
BRANCH  15  17
ATOM     17  C   UNL     1       4.670   1.418   2.405  0.00  0.00    +0.073 C 
ATOM     18  C   UNL     1       3.437   0.984   3.204  0.00  0.00    +0.002 C 
ATOM     19  C   UNL     1       3.823  -0.158   4.146  0.00  0.00    -0.077 C 
ATOM     20  N   UNL     1       4.870   0.296   5.069  0.00  0.00    +0.382 N 
ATOM     21  C   UNL     1       6.080   0.647   4.315  0.00  0.00    -0.077 C 
ATOM     22  C   UNL     1       5.781   1.820   3.380  0.00  0.00    +0.002 C 
ATOM     23  H   UNL     1       4.543   1.107   5.574  0.00  0.00    -0.081 HD
BRANCH  20  24
ATOM     24  C   UNL     1       5.182  -0.778   6.021  0.00  0.00    -0.069 C 
ATOM     25  C   UNL     1       4.784  -0.564   7.483  0.00  0.00    -0.017 C 
ATOM     26  C   UNL     1       6.257  -0.499   7.073  0.00  0.00    -0.017 C 
ENDBRANCH  20  24
ENDBRANCH  15  17
ENDBRANCH   1  15
TORSDOF 6
