REMARK  Name = ZINC66473402
REMARK  12 active torsions:
REMARK  status: ('A' for Active; 'I' for Inactive)
REMARK    1  A    between atoms: C_1  and  C_2
REMARK    2  A    between atoms: C_2  and  C_3
REMARK    3  A    between atoms: C_3  and  C_4
REMARK    4  A    between atoms: C_4  and  N_5
REMARK    5  A    between atoms: C_6  and  C_8
REMARK    6  A    between atoms: C_12  and  C_28
REMARK    7  A    between atoms: N_14  and  C_16
REMARK    8  A    between atoms: C_16  and  C_17
REMARK    9  A    between atoms: N_19  and  C_20
REMARK   10  A    between atoms: C_21  and  C_27
REMARK   11  A    between atoms: N_23  and  C_26
REMARK   12  A    between atoms: C_24  and  C_25
REMARK                            x       y       z     vdW  Elec       q    Type
REMARK                         _______ _______ _______ _____ _____    ______ ____
ROOT
ATOM      1  C   UNL     1      -7.876  -5.178   1.169  0.00  0.00    +0.058 C 
ATOM      2  C   UNL     1      -8.506  -4.779  -0.169  0.00  0.00    +0.009 C 
ATOM      3  C   UNL     1      -8.994  -6.040  -0.888  0.00  0.00    -0.015 C 
ATOM      4  C   UNL     1      -7.821  -7.006  -1.065  0.00  0.00    -0.071 C 
ATOM      5  N   UNL     1      -7.279  -7.369   0.250  0.00  0.00    +0.388 N 
ATOM      6  C   UNL     1      -6.744  -6.176   0.917  0.00  0.00    -0.065 C 
ATOM      7  C   UNL     1      -8.303  -8.267  -1.783  0.00  0.00    -0.013 C 
ATOM      8  H   UNL     1      -8.013  -7.769   0.816  0.00  0.00    -0.081 HD
ENDROOT
BRANCH   1  10
ATOM      9  N   UNL     1      -8.144  -2.932   2.171  0.00  0.00    -0.315 N 
ATOM     10  C   UNL     1      -7.324  -3.953   1.850  0.00  0.00    +0.214 C 
ATOM     11  O   UNL     1      -6.141  -3.885   2.111  0.00  0.00    -0.276 OA
ATOM     12  H   UNL     1      -9.090  -2.986   1.962  0.00  0.00    +0.149 HD
BRANCH   9  13
ATOM     13  C   UNL     1      -7.607  -1.741   2.833  0.00  0.00    +0.104 C 
BRANCH  13  14
ATOM     14  C   UNL     1      -8.739  -0.742   3.083  0.00  0.00    +0.018 C 
BRANCH  14  16
ATOM     15  C   UNL     1      -9.310   1.500   4.024  0.00  0.00    +0.004 C 
ATOM     16  C   UNL     1      -8.178   0.502   3.775  0.00  0.00    -0.002 C 
ENDBRANCH  14  16
ENDBRANCH  13  14
ENDBRANCH   9  13
ENDBRANCH   1  10
BRANCH   5  17
ATOM     17  C   UNL     1      -6.205  -8.356   0.079  0.00  0.00    +0.019 C 
BRANCH  17  18
ATOM     18  C   UNL     1      -5.731  -8.822   1.432  0.00  0.00    +0.201 C 
ATOM     19  O   UNL     1      -6.239  -8.376   2.439  0.00  0.00    -0.278 OA
ATOM     20  N   UNL     1      -4.743  -9.735   1.522  0.00  0.00    -0.284 N 
ATOM     21  H   UNL     1      -4.377 -10.135   0.718  0.00  0.00    +0.155 HD
BRANCH  20  22
ATOM     22  C   UNL     1      -4.243 -10.107   2.784  0.00  0.00    +0.077 A 
ATOM     23  C   UNL     1      -3.643  -9.252   3.720  0.00  0.00    +0.081 A 
ATOM     24  N   UNL     1      -3.308  -9.959   4.769  0.00  0.00    -0.175 NA
ATOM     25  N   UNL     1      -3.681 -11.290   4.541  0.00  0.00    -0.270 N 
ATOM     26  C   UNL     1      -4.260 -11.357   3.314  0.00  0.00    +0.057 A 
ATOM     27  C   UNL     1      -4.817 -12.594   2.659  0.00  0.00    +0.067 C 
ATOM     28  C   UNL     1      -3.487 -12.410   5.465  0.00  0.00    +0.172 C 
ATOM     29  C   UNL     1      -3.421  -7.771   3.547  0.00  0.00    +0.069 C 
ENDBRANCH  20  22
ENDBRANCH  17  18
ENDBRANCH   5  17
TORSDOF 7
