REMARK  Name = ZINC66396864
REMARK  11 active torsions:
REMARK  status: ('A' for Active; 'I' for Inactive)
REMARK    1  A    between atoms: C_1  and  C_2
REMARK    2  A    between atoms: C_2  and  C_3
REMARK    3  A    between atoms: C_2  and  C_4
REMARK    4  A    between atoms: C_2  and  C_5
REMARK    5  A    between atoms: C_8  and  C_11
REMARK    6  A    between atoms: C_11  and  C_13
REMARK    7  A    between atoms: C_11  and  N_15
REMARK    8  A    between atoms: C_16  and  C_18
REMARK    9  A    between atoms: C_18  and  N_19
REMARK   10  A    between atoms: N_22  and  C_23
REMARK   11  A    between atoms: C_23  and  C_24
REMARK                            x       y       z     vdW  Elec       q    Type
REMARK                         _______ _______ _______ _____ _____    ______ ____
ROOT
ATOM      1  N   UNL     1       4.082  -2.245  -4.415  0.00  0.00    -0.295 N 
ATOM      2  C   UNL     1       4.739  -3.145  -5.173  0.00  0.00    +0.231 C 
ATOM      3  O   UNL     1       4.192  -3.643  -6.135  0.00  0.00    -0.274 OA
ATOM      4  H   UNL     1       4.519  -1.848  -3.646  0.00  0.00    +0.150 HD
ENDROOT
BRANCH   1   5
ATOM      5  C   UNL     1       2.707  -1.868  -4.752  0.00  0.00    +0.207 C 
BRANCH   5   9
ATOM      6  C   UNL     1       0.707  -0.490  -1.238  0.00  0.00    -0.042 A 
ATOM      7  C   UNL     1       0.036  -1.284  -2.148  0.00  0.00    +0.004 A 
ATOM      8  C   UNL     1       0.683  -1.730  -3.286  0.00  0.00    +0.007 A 
ATOM      9  C   UNL     1       2.001  -1.381  -3.513  0.00  0.00    -0.013 A 
ATOM     10  C   UNL     1       2.672  -0.586  -2.603  0.00  0.00    +0.007 A 
ATOM     11  C   UNL     1       2.024  -0.137  -1.467  0.00  0.00    +0.004 A 
BRANCH   6  13
ATOM     12  C   UNL     1      -0.019   1.526   0.010  0.00  0.00    +0.015 C 
ATOM     13  C   UNL     1       0.002  -0.004   0.002  0.00  0.00    -0.013 C 
ATOM     14  C   UNL     1       0.742  -0.511   1.242  0.00  0.00    +0.015 C 
ATOM     15  C   UNL     1      -1.433  -0.534   0.013  0.00  0.00    +0.015 C 
ENDBRANCH   6  13
ENDBRANCH   5   9
BRANCH   5  16
ATOM     16  C   UNL     1       2.726  -0.795  -5.760  0.00  0.00    +0.090 C 
ATOM     17  N   UNL     1       2.740   0.033  -6.537  0.00  0.00    -0.194 NA
ENDBRANCH   5  16
ENDBRANCH   1   5
BRANCH   2  18
ATOM     18  C   UNL     1       6.153  -3.534  -4.826  0.00  0.00    +0.201 C 
BRANCH  18  19
ATOM     19  N   UNL     1       6.641  -4.519  -5.795  0.00  0.00    -0.291 N 
ATOM     20  C   UNL     1       7.889  -5.013  -5.682  0.00  0.00    +0.300 C 
ATOM     21  O   UNL     1       8.611  -4.642  -4.777  0.00  0.00    -0.253 OA
ATOM     22  N   UNL     1       8.338  -5.920  -6.573  0.00  0.00    -0.292 N 
ATOM     23  H   UNL     1       6.065  -4.815  -6.517  0.00  0.00    +0.151 HD
ATOM     24  H   UNL     1       7.762  -6.216  -7.295  0.00  0.00    +0.151 HD
BRANCH  22  25
ATOM     25  C   UNL     1       9.695  -6.457  -6.451  0.00  0.00    +0.180 C 
BRANCH  25  26
ATOM     26  C   UNL     1       9.946  -7.444  -7.562  0.00  0.00    +0.122 A 
ATOM     27  C   UNL     1      10.459  -7.154  -8.771  0.00  0.00    +0.046 A 
ATOM     28  C   UNL     1      10.521  -8.368  -9.492  0.00  0.00    +0.041 A 
ATOM     29  C   UNL     1      10.043  -9.328  -8.681  0.00  0.00    +0.195 A 
ATOM     30  O   UNL     1       9.702  -8.764  -7.511  0.00  0.00    -0.466 OA
ENDBRANCH  25  26
ENDBRANCH  22  25
ENDBRANCH  18  19
ENDBRANCH   2  18
TORSDOF 8
