REMARK  Name = ZINC03058230
REMARK  11 active torsions:
REMARK  status: ('A' for Active; 'I' for Inactive)
REMARK    1  A    between atoms: C_1  and  C_2
REMARK    2  A    between atoms: C_2  and  C_4
REMARK    3  A    between atoms: C_2  and  N_12
REMARK    4  A    between atoms: C_7  and  O_10
REMARK    5  A    between atoms: O_10  and  C_11
REMARK    6  A    between atoms: C_13  and  C_15
REMARK    7  A    between atoms: N_17  and  N_18
REMARK    8  A    between atoms: C_19  and  C_20
REMARK    9  A    between atoms: C_23  and  O_28
REMARK   10  A    between atoms: C_24  and  O_26
REMARK   11  A    between atoms: O_26  and  C_27
REMARK                            x       y       z     vdW  Elec       q    Type
REMARK                         _______ _______ _______ _____ _____    ______ ____
ROOT
ATOM      1  C   UNL     1      -1.184   3.711  -2.873  0.00  0.00    +0.318 C 
ATOM      2  O   UNL     1      -2.010   3.006  -3.417  0.00  0.00    -0.263 OA
ATOM      3  N   UNL     1      -0.919   4.939  -3.360  0.00  0.00    -0.199 N 
ATOM      4  H   UNL     1      -0.260   5.502  -2.925  0.00  0.00    +0.178 HD
ENDROOT
BRANCH   1   6
ATOM      5  N   UNL     1      -0.727   1.988  -1.177  0.00  0.00    -0.301 N 
ATOM      6  C   UNL     1      -0.462   3.216  -1.664  0.00  0.00    +0.301 C 
ATOM      7  O   UNL     1       0.363   3.921  -1.120  0.00  0.00    -0.265 OA
ATOM      8  H   UNL     1      -1.386   1.425  -1.612  0.00  0.00    +0.150 HD
BRANCH   5  10
ATOM      9  C   UNL     1      -0.735   1.996   1.269  0.00  0.00    +0.033 C 
ATOM     10  C   UNL     1      -0.018   1.503   0.010  0.00  0.00    +0.101 C 
BRANCH  10  11
ATOM     11  C   UNL     1       0.002  -0.004   0.002  0.00  0.00    -0.027 A 
ATOM     12  C   UNL     1      -1.120  -0.707  -0.396  0.00  0.00    +0.009 A 
ATOM     13  C   UNL     1      -1.102  -2.089  -0.409  0.00  0.00    +0.046 A 
ATOM     14  C   UNL     1       0.039  -2.770  -0.013  0.00  0.00    +0.120 A 
ATOM     15  C   UNL     1       1.162  -2.062   0.391  0.00  0.00    +0.046 A 
ATOM     16  C   UNL     1       1.141  -0.681   0.397  0.00  0.00    +0.009 A 
BRANCH  14  17
ATOM     17  O   UNL     1       0.058  -4.129  -0.019  0.00  0.00    -0.495 OA
ATOM     18  C   UNL     1      -1.134  -4.792  -0.447  0.00  0.00    +0.277 C 
ENDBRANCH  14  17
ENDBRANCH  10  11
ENDBRANCH   5  10
ENDBRANCH   1   6
BRANCH   3  19
ATOM     19  N   UNL     1      -1.597   5.403  -4.495  0.00  0.00    -0.187 NA
ATOM     20  C   UNL     1      -1.342   6.587  -4.965  0.00  0.00    +0.138 C 
BRANCH  20  21
ATOM     21  C   UNL     1      -2.054   7.075  -6.159  0.00  0.00    -0.002 A 
ATOM     22  C   UNL     1      -3.001   6.264  -6.790  0.00  0.00    +0.013 A 
ATOM     23  C   UNL     1      -3.671   6.725  -7.904  0.00  0.00    +0.050 A 
ATOM     24  C   UNL     1      -3.400   7.989  -8.406  0.00  0.00    +0.158 A 
ATOM     25  C   UNL     1      -2.453   8.802  -7.785  0.00  0.00    +0.162 A 
ATOM     26  C   UNL     1      -1.782   8.349  -6.666  0.00  0.00    +0.058 A 
BRANCH  25  27
ATOM     27  O   UNL     1      -2.190  10.040  -8.281  0.00  0.00    -0.491 OA
ATOM     28  C   UNL     1      -1.209  10.819  -7.594  0.00  0.00    +0.277 C 
ENDBRANCH  25  27
BRANCH  24  29
ATOM     29  O   UNL     1      -4.059   8.436  -9.508  0.00  0.00    -0.503 OA
ATOM     30  H   UNL     1      -3.619   8.225 -10.342  0.00  0.00    +0.292 HD
ENDBRANCH  24  29
ENDBRANCH  20  21
ENDBRANCH   3  19
TORSDOF 8
