REMARK  Name = ZINC18939433
REMARK  12 active torsions:
REMARK  status: ('A' for Active; 'I' for Inactive)
REMARK    1  A    between atoms: C_1  and  C_2
REMARK    2  A    between atoms: C_2  and  N_3
REMARK    3  A    between atoms: N_3  and  C_4
REMARK    4  A    between atoms: C_5  and  N_20
REMARK    5  A    between atoms: N_6  and  C_13
REMARK    6  A    between atoms: C_13  and  C_14
REMARK    7  A    between atoms: C_21  and  C_23
REMARK    8  A    between atoms: C_23  and  N_59
REMARK    9  A    between atoms: C_24  and  C_25
REMARK   10  A    between atoms: C_24  and  N_59
REMARK   11  A    between atoms: C_27  and  C_28
REMARK   12  A    between atoms: C_27  and  N_59
REMARK                            x       y       z     vdW  Elec       q    Type
REMARK                         _______ _______ _______ _____ _____    ______ ____
ROOT
ATOM      1  C   UNL     1      -0.525   1.407  -1.376  0.00  0.00    +0.140 A 
ATOM      2  C   UNL     1       0.602   1.737  -0.651  0.00  0.00    +0.128 A 
ATOM      3  N   UNL     1       1.474   2.673  -1.154  0.00  0.00    -0.276 N 
ATOM      4  C   UNL     1       1.226   3.270  -2.334  0.00  0.00    +0.331 A 
ATOM      5  O   UNL     1       2.007   4.099  -2.760  0.00  0.00    -0.246 OA
ATOM      6  N   UNL     1       0.131   2.965  -3.052  0.00  0.00    -0.273 N 
ATOM      7  H   UNL     1      -0.030   3.423  -3.927  0.00  0.00    +0.173 HD
ATOM      8  C   UNL     1      -0.753   2.051  -2.607  0.00  0.00    +0.277 A 
ATOM      9  O   UNL     1      -1.743   1.782  -3.265  0.00  0.00    -0.266 OA
ENDROOT
BRANCH   1  10
ATOM     10  N   UNL     1      -1.436   0.446  -0.889  0.00  0.00    -0.266 N 
ATOM     11  C   UNL     1      -1.051  -0.840  -0.751  0.00  0.00    +0.203 C 
ATOM     12  O   UNL     1       0.051  -1.186  -1.123  0.00  0.00    -0.277 OA
BRANCH  10  14
ATOM     13  C   UNL     1      -2.833   1.342   0.908  0.00  0.00    +0.025 C 
ATOM     14  C   UNL     1      -2.802   0.844  -0.538  0.00  0.00    +0.110 C 
ENDBRANCH  10  14
BRANCH  11  15
ATOM     15  C   UNL     1      -1.990  -1.846  -0.136  0.00  0.00    +0.020 C 
BRANCH  15  16
ATOM     16  N   UNL     1      -1.331  -3.169  -0.127  0.00  0.00    +0.391 N 
ATOM     17  H   UNL     1      -0.985  -3.376  -1.071  0.00  0.00    -0.080 HD
BRANCH  16  18
ATOM     18  C   UNL     1      -0.188  -3.157   0.811  0.00  0.00    -0.051 C 
BRANCH  18  19
ATOM     19  C   UNL     1      -0.650  -2.808   2.202  0.00  0.00    -0.053 C 
ATOM     20  C   UNL     1      -0.351  -3.592   3.208  0.00  0.00    +0.002 C 
ENDBRANCH  18  19
ENDBRANCH  16  18
BRANCH  16  21
ATOM     21  C   UNL     1      -2.299  -4.212   0.270  0.00  0.00    -0.034 C 
BRANCH  21  22
ATOM     22  C   UNL     1      -1.730  -5.561  -0.088  0.00  0.00    -0.025 A 
ATOM     23  C   UNL     1      -1.014  -6.417   0.681  0.00  0.00    +0.011 A 
ATOM     24  C   UNL     1      -0.590  -7.615   0.137  0.00  0.00    +0.028 A 
ATOM     25  C   UNL     1      -0.905  -7.898  -1.152  0.00  0.00    +0.078 A 
ATOM     26  S   UNL     1      -1.833  -6.450  -1.633  0.00  0.00    -0.084 S 
ATOM     27 CL   UNL     1      -0.514  -9.306  -2.089  0.00  0.00    -0.076 Cl
ENDBRANCH  21  22
ENDBRANCH  16  21
ENDBRANCH  15  16
ENDBRANCH  11  15
ENDBRANCH   1  10
BRANCH   2  28
ATOM     28  N   UNL     1       0.852   1.132   0.558  0.00  0.00    -0.343 N 
ATOM     29  H   UNL     1       0.242   0.460   0.899  0.00  0.00    +0.144 HD
ATOM     30  H   UNL     1       1.639   1.379   1.070  0.00  0.00    +0.144 HD
ENDBRANCH   2  28
BRANCH   3  31
ATOM     31  C   UNL     1       2.678   3.029  -0.398  0.00  0.00    +0.163 C 
BRANCH  31  32
ATOM     32  C   UNL     1       2.367   4.174   0.531  0.00  0.00    -0.028 A 
ATOM     33  C   UNL     1       2.538   5.477   0.103  0.00  0.00    +0.005 A 
ATOM     34  C   UNL     1       2.249   6.528   0.954  0.00  0.00    +0.000 A 
ATOM     35  C   UNL     1       1.798   6.275   2.236  0.00  0.00    +0.000 A 
ATOM     36  C   UNL     1       1.631   4.972   2.666  0.00  0.00    +0.000 A 
ATOM     37  C   UNL     1       1.916   3.921   1.813  0.00  0.00    +0.005 A 
ENDBRANCH  31  32
ENDBRANCH   3  31
TORSDOF 11
