REMARK  Name = ZINC47684042
REMARK  15 active torsions:
REMARK  status: ('A' for Active; 'I' for Inactive)
REMARK    1  A    between atoms: C_1  and  C_2
REMARK    2  A    between atoms: C_2  and  C_3
REMARK    3  A    between atoms: N_5  and  C_6
REMARK    4  A    between atoms: C_9  and  C_12
REMARK    5  A    between atoms: C_12  and  C_13
REMARK    6  A    between atoms: C_12  and  N_14
REMARK    7  A    between atoms: N_17  and  C_18
REMARK    8  A    between atoms: C_18  and  C_19
REMARK    9  A    between atoms: C_19  and  N_20
REMARK   10  A    between atoms: N_20  and  C_21
REMARK   11  A    between atoms: N_20  and  C_24
REMARK   12  A    between atoms: C_21  and  C_22
REMARK   13  A    between atoms: C_21  and  C_23
REMARK   14  A    between atoms: C_24  and  C_25
REMARK   15  A    between atoms: C_24  and  C_26
REMARK                            x       y       z     vdW  Elec       q    Type
REMARK                         _______ _______ _______ _____ _____    ______ ____
ROOT
ATOM      1  N   UNL     1      -5.728  -5.832   2.510  0.00  0.00    -0.293 N 
ATOM      2  C   UNL     1      -7.068  -5.725   2.597  0.00  0.00    +0.300 C 
ATOM      3  O   UNL     1      -7.630  -4.745   2.147  0.00  0.00    -0.253 OA
ATOM      4  N   UNL     1      -7.786  -6.704   3.183  0.00  0.00    -0.301 N 
ATOM      5  H   UNL     1      -5.279  -6.614   2.869  0.00  0.00    +0.151 HD
ATOM      6  H   UNL     1      -7.338  -7.485   3.542  0.00  0.00    +0.150 HD
ENDROOT
BRANCH   1   7
ATOM      7  C   UNL     1      -4.947  -4.768   1.873  0.00  0.00    +0.102 C 
ATOM      8  C   UNL     1      -4.916  -4.994   0.360  0.00  0.00    +0.033 C 
BRANCH   7  12
ATOM      9  C   UNL     1      -0.957  -4.817   3.403  0.00  0.00    +0.033 A 
ATOM     10  C   UNL     1      -1.599  -3.607   3.174  0.00  0.00    +0.023 A 
ATOM     11  C   UNL     1      -2.889  -3.595   2.679  0.00  0.00    +0.007 A 
ATOM     12  C   UNL     1      -3.540  -4.785   2.413  0.00  0.00    -0.027 A 
ATOM     13  C   UNL     1      -2.904  -5.991   2.641  0.00  0.00    +0.007 A 
ATOM     14  C   UNL     1      -1.612  -6.010   3.129  0.00  0.00    +0.023 A 
BRANCH   9  17
ATOM     15  C   UNL     1       1.217  -5.779   3.493  0.00  0.00    +0.217 C 
ATOM     16  O   UNL     1       0.844  -6.664   2.753  0.00  0.00    -0.275 OA
ATOM     17  N   UNL     1       0.349  -4.833   3.904  0.00  0.00    -0.286 N 
ATOM     18  H   UNL     1       0.631  -4.163   4.547  0.00  0.00    +0.155 HD
BRANCH  15  20
ATOM     19  C   UNL     1       3.416  -6.915   3.348  0.00  0.00    +0.013 C 
ATOM     20  C   UNL     1       2.651  -5.737   3.954  0.00  0.00    +0.093 C 
ENDBRANCH  15  20
ENDBRANCH   9  17
ENDBRANCH   7  12
ENDBRANCH   1   7
BRANCH   4  21
ATOM     21  C   UNL     1      -9.243  -6.587   3.277  0.00  0.00    +0.087 C 
BRANCH  21  22
ATOM     22  C   UNL     1      -9.809  -7.822   3.981  0.00  0.00    -0.059 C 
BRANCH  22  23
ATOM     23  N   UNL     1     -11.277  -7.753   3.987  0.00  0.00    +0.384 N 
ATOM     24  H   UNL     1     -11.611  -7.606   3.046  0.00  0.00    -0.081 HD
BRANCH  23  25
ATOM     25  C   UNL     1     -11.824  -9.012   4.510  0.00  0.00    -0.074 C 
ATOM     26  C   UNL     1     -13.349  -8.998   4.381  0.00  0.00    -0.014 C 
ATOM     27  C   UNL     1     -11.256 -10.186   3.710  0.00  0.00    -0.014 C 
ENDBRANCH  23  25
BRANCH  23  28
ATOM     28  C   UNL     1     -11.710  -6.639   4.841  0.00  0.00    -0.074 C 
ATOM     29  C   UNL     1     -10.661  -6.390   5.926  0.00  0.00    -0.014 C 
ATOM     30  C   UNL     1     -11.873  -5.378   3.990  0.00  0.00    -0.014 C 
ENDBRANCH  23  28
ENDBRANCH  22  23
ENDBRANCH  21  22
ENDBRANCH   4  21
TORSDOF 9
