REMARK  Name = ZINC39140995
REMARK  2 active torsions:
REMARK  status: ('A' for Active; 'I' for Inactive)
REMARK    1  A    between atoms: C_4  and  C_7
REMARK    2  A    between atoms: C_10  and  C_21
REMARK                            x       y       z     vdW  Elec       q    Type
REMARK                         _______ _______ _______ _____ _____    ______ ____
ROOT
ATOM      1  C   UNL     1       3.711  -0.707  -0.038  0.00  0.00    +0.062 C 
ATOM      2  C   UNL     1       3.815  -1.589   1.183  0.00  0.00    +0.006 C 
ATOM      3  C   UNL     1       3.316  -2.822   1.171  0.00  0.00    +0.036 C 
ATOM      4  N   UNL     1       2.671  -3.336   0.046  0.00  0.00    -0.304 N 
ATOM      5  C   UNL     1       2.798  -2.715  -1.152  0.00  0.00    +0.106 C 
ATOM      6  N   UNL     1       2.064  -3.087  -2.165  0.00  0.00    -0.151 NA
ATOM      7  C   UNL     1       2.063  -2.428  -3.329  0.00  0.00    +0.331 C 
ATOM      8  O   UNL     1       1.446  -2.890  -4.271  0.00  0.00    -0.250 OA
ATOM      9  N   UNL     1       2.725  -1.270  -3.489  0.00  0.00    -0.238 N 
ATOM     10  C   UNL     1       3.546  -0.803  -2.531  0.00  0.00    +0.231 C 
ATOM     11  O   UNL     1       4.096   0.267  -2.682  0.00  0.00    -0.275 OA
ATOM     12  C   UNL     1       3.791  -1.587  -1.284  0.00  0.00    +0.148 C 
ATOM     13  H   UNL     1       2.131  -4.139   0.121  0.00  0.00    +0.153 HD
ATOM     14  H   UNL     1       2.608  -0.762  -4.308  0.00  0.00    +0.159 HD
ENDROOT
BRANCH   1  18
ATOM     15  C   UNL     1      -0.017   1.378   0.010  0.00  0.00    +0.000 A 
ATOM     16  C   UNL     1       1.171   2.086   0.002  0.00  0.00    +0.000 A 
ATOM     17  C   UNL     1       2.377   1.411  -0.013  0.00  0.00    +0.004 A 
ATOM     18  C   UNL     1       2.396   0.029  -0.020  0.00  0.00    -0.039 A 
ATOM     19  C   UNL     1       1.208  -0.679  -0.012  0.00  0.00    +0.004 A 
ATOM     20  C   UNL     1       0.002  -0.004   0.002  0.00  0.00    +0.000 A 
ENDBRANCH   1  18
BRANCH   3  21
ATOM     21  C   UNL     1       3.448  -3.668   2.380  0.00  0.00    -0.004 A 
ATOM     22  C   UNL     1       4.085  -3.171   3.516  0.00  0.00    +0.010 A 
ATOM     23  C   UNL     1       4.205  -3.964   4.639  0.00  0.00    +0.001 A 
ATOM     24  C   UNL     1       3.695  -5.250   4.638  0.00  0.00    +0.000 A 
ATOM     25  C   UNL     1       3.063  -5.749   3.514  0.00  0.00    +0.001 A 
ATOM     26  C   UNL     1       2.931  -4.963   2.387  0.00  0.00    +0.010 A 
ENDBRANCH   3  21
TORSDOF 2
