REMARK  Name = ZINC41812990
REMARK  8 active torsions:
REMARK  status: ('A' for Active; 'I' for Inactive)
REMARK    1  A    between atoms: C_1  and  C_2
REMARK    2  A    between atoms: C_5  and  C_7
REMARK    3  A    between atoms: C_7  and  C_9
REMARK    4  A    between atoms: C_7  and  N_10
REMARK    5  A    between atoms: N_10  and  C_11
REMARK    6  A    between atoms: C_11  and  C_12
REMARK    7  A    between atoms: C_11  and  C_13
REMARK    8  A    between atoms: C_11  and  C_20
REMARK                            x       y       z     vdW  Elec       q    Type
REMARK                         _______ _______ _______ _____ _____    ______ ____
ROOT
ATOM      1  C   UNL     1       3.605  -4.189  -1.111  0.00  0.00    +0.059 C 
ATOM      2  C   UNL     1       3.034  -5.343  -1.937  0.00  0.00    +0.007 C 
ENDROOT
BRANCH   1   3
ATOM      3  C   UNL     1       4.916  -3.745  -1.706  0.00  0.00    -0.048 A 
ATOM      4  C   UNL     1       5.068  -2.444  -2.149  0.00  0.00    +0.004 A 
ATOM      5  C   UNL     1       6.271  -2.036  -2.695  0.00  0.00    +0.015 A 
ATOM      6  C   UNL     1       7.322  -2.930  -2.799  0.00  0.00    +0.018 A 
ATOM      7  C   UNL     1       7.168  -4.231  -2.356  0.00  0.00    +0.015 A 
ATOM      8  C   UNL     1       5.967  -4.637  -1.806  0.00  0.00    +0.004 A 
ATOM      9 BR   UNL     1       8.967  -2.372  -3.546  0.00  0.00    -0.050 Br
ENDBRANCH   1   3
BRANCH   1  10
ATOM     10  N   UNL     1       2.658  -3.066  -1.119  0.00  0.00    +0.399 N 
ATOM     11  H   UNL     1       2.549  -2.725  -2.062  0.00  0.00    -0.083 HD
ATOM     12  H   UNL     1       3.010  -2.325  -0.531  0.00  0.00    -0.083 HD
BRANCH  10  13
ATOM     13  C   UNL     1       1.357  -3.519  -0.609  0.00  0.00    -0.005 C 
ATOM     14  C   UNL     1       0.516  -2.306  -0.207  0.00  0.00    -0.006 C 
BRANCH  13  19
ATOM     15  C   UNL     1      -0.396  -4.904  -5.131  0.00  0.00    +0.086 C 
ATOM     16  C   UNL     1      -0.123  -4.897  -3.649  0.00  0.00    +0.102 A 
ATOM     17  C   UNL     1      -0.575  -5.802  -2.762  0.00  0.00    +0.044 A 
ATOM     18  C   UNL     1      -0.084  -5.414  -1.494  0.00  0.00    +0.043 A 
ATOM     19  C   UNL     1       0.639  -4.295  -1.682  0.00  0.00    +0.091 A 
ATOM     20  O   UNL     1       0.616  -3.990  -2.990  0.00  0.00    -0.467 OA
ENDBRANCH  13  19
ENDBRANCH  10  13
ENDBRANCH   1  10
BRANCH   1  21
ATOM     21  C   UNL     1       3.828  -4.649   0.307  0.00  0.00    +0.349 C 
ATOM     22  O   UNL     1       3.362  -4.010   1.235  0.00  0.00    -0.248 OA
ATOM     23  O   UNL     1       4.473  -5.660   0.526  0.00  0.00    -0.248 OA
ENDBRANCH   1  21
TORSDOF 5
