REMARK  Name = ZINC49106350
REMARK  10 active torsions:
REMARK  status: ('A' for Active; 'I' for Inactive)
REMARK    1  A    between atoms: C_1  and  C_2
REMARK    2  A    between atoms: C_5  and  C_19
REMARK    3  A    between atoms: C_7  and  S_8
REMARK    4  A    between atoms: S_8  and  N_11
REMARK    5  A    between atoms: N_11  and  C_12
REMARK    6  A    between atoms: C_12  and  C_14
REMARK    7  A    between atoms: C_12  and  C_15
REMARK    8  A    between atoms: N_17  and  C_18
REMARK    9  A    between atoms: C_20  and  C_21
REMARK   10  A    between atoms: C_21  and  N_22
REMARK                            x       y       z     vdW  Elec       q    Type
REMARK                         _______ _______ _______ _____ _____    ______ ____
ROOT
ATOM      1  C   UNL     1       0.230   0.483   0.172  0.00  0.00    +0.046 C 
ATOM      2  C   UNL     1       0.427  -0.904   0.726  0.00  0.00    -0.024 A 
ATOM      3  C   UNL     1       0.554  -1.979  -0.137  0.00  0.00    +0.006 A 
ATOM      4  C   UNL     1       0.736  -3.251   0.363  0.00  0.00    +0.017 A 
ATOM      5  C   UNL     1       0.790  -3.454   1.743  0.00  0.00    +0.027 A 
ATOM      6  C   UNL     1       0.661  -2.367   2.607  0.00  0.00    +0.045 A 
ATOM      7  C   UNL     1       0.486  -1.098   2.094  0.00  0.00    +0.109 A 
ENDROOT
BRANCH   7   8
ATOM      8  S   UNL     1       0.330   0.278   3.184  0.00  0.00    +0.059 S 
ATOM      9  O   UNL     1       0.413  -0.239   4.505  0.00  0.00    -0.153 OA
ATOM     10  O   UNL     1       1.213   1.280   2.701  0.00  0.00    -0.153 OA
BRANCH   8  11
ATOM     11  N   UNL     1      -1.205   0.873   3.005  0.00  0.00    -0.178 NA
ATOM     12  H   UNL     1      -1.341   1.770   2.662  0.00  0.00    +0.149 HD
BRANCH  11  13
ATOM     13  C   UNL     1      -2.359   0.044   3.364  0.00  0.00    +0.159 C 
ATOM     14  C   UNL     1      -3.237  -0.170   2.130  0.00  0.00    +0.035 C 
BRANCH  13  15
ATOM     15  C   UNL     1      -3.160   0.736   4.437  0.00  0.00    +0.231 C 
ATOM     16  O   UNL     1      -2.802   1.814   4.860  0.00  0.00    -0.274 OA
ATOM     17  N   UNL     1      -4.273   0.155   4.926  0.00  0.00    -0.317 N 
ATOM     18  C   UNL     1      -5.052   0.827   5.970  0.00  0.00    +0.128 C 
ATOM     19  H   UNL     1      -4.559  -0.708   4.588  0.00  0.00    +0.148 HD
ENDBRANCH  13  15
ENDBRANCH  11  13
ENDBRANCH   8  11
ENDBRANCH   7   8
BRANCH   5  20
ATOM     20  C   UNL     1       0.978  -4.773   2.269  0.00  0.00    -0.068 C 
ATOM     21  C   UNL     1       1.132  -5.854   2.700  0.00  0.00    -0.117 C 
BRANCH  21  22
ATOM     22  C   UNL     1       1.325  -7.209   3.241  0.00  0.00    +0.005 C 
BRANCH  22  23
ATOM     23  N   UNL     1       1.346  -7.152   4.709  0.00  0.00    +0.385 N 
ATOM     24  H   UNL     1       2.104  -6.559   5.011  0.00  0.00    -0.089 HD
ATOM     25  H   UNL     1       0.471  -6.778   5.044  0.00  0.00    -0.089 HD
ATOM     26  H   UNL     1       1.478  -8.082   5.079  0.00  0.00    -0.089 HD
ENDBRANCH  22  23
ENDBRANCH  21  22
ENDBRANCH   5  20
TORSDOF 7
