REMARK  Name = ZINC36597669
REMARK  15 active torsions:
REMARK  status: ('A' for Active; 'I' for Inactive)
REMARK    1  A    between atoms: C_1  and  C_2
REMARK    2  A    between atoms: C_5  and  C_9
REMARK    3  A    between atoms: C_6  and  C_8
REMARK    4  A    between atoms: C_9  and  C_11
REMARK    5  A    between atoms: C_9  and  N_18
REMARK    6  A    between atoms: N_13  and  C_14
REMARK    7  A    between atoms: C_14  and  C_15
REMARK    8  A    between atoms: C_14  and  C_16
REMARK    9  A    between atoms: C_14  and  C_17
REMARK   10  A    between atoms: N_18  and  C_19
REMARK   11  A    between atoms: C_19  and  C_20
REMARK   12  A    between atoms: C_23  and  C_25
REMARK   13  A    between atoms: C_26  and  C_28
REMARK   14  A    between atoms: C_32  and  O_35
REMARK   15  A    between atoms: C_33  and  O_34
REMARK                            x       y       z     vdW  Elec       q    Type
REMARK                         _______ _______ _______ _____ _____    ______ ____
ROOT
ATOM      1  N   UNL     1      -0.261  -5.180  -1.404  0.00  0.00    -0.275 N 
ATOM      2  C   UNL     1      -0.681  -6.459  -1.339  0.00  0.00    +0.252 C 
ATOM      3  O   UNL     1      -1.274  -6.952  -2.279  0.00  0.00    -0.270 OA
ENDROOT
BRANCH   2   4
ATOM      4  C   UNL     1      -0.422  -7.260  -0.127  0.00  0.00    +0.082 A 
ATOM      5  C   UNL     1      -0.115  -6.627   1.081  0.00  0.00    +0.017 A 
ATOM      6  C   UNL     1       0.126  -7.378   2.210  0.00  0.00    +0.005 A 
ATOM      7  C   UNL     1       0.065  -8.761   2.157  0.00  0.00    +0.049 A 
ATOM      8  C   UNL     1      -0.238  -9.402   0.968  0.00  0.00    +0.159 A 
ATOM      9  C   UNL     1      -0.489  -8.657  -0.180  0.00  0.00    +0.171 A 
BRANCH   9  10
ATOM     10  O   UNL     1      -0.792  -9.282  -1.346  0.00  0.00    -0.503 OA
ATOM     11  H   UNL     1      -0.021  -9.496  -1.890  0.00  0.00    +0.292 HD
ENDBRANCH   9  10
BRANCH   8  12
ATOM     12  O   UNL     1      -0.295 -10.760   0.924  0.00  0.00    -0.503 OA
ATOM     13  H   UNL     1      -1.171 -11.123   1.113  0.00  0.00    +0.292 HD
ENDBRANCH   8  12
ENDBRANCH   2   4
BRANCH   1  14
ATOM     14  C   UNL     1       0.570  -4.627  -0.332  0.00  0.00    +0.193 C 
BRANCH  14  19
ATOM     15  C   UNL     1       3.296   0.093  -2.251  0.00  0.00    +0.044 C 
ATOM     16  C   UNL     1       2.585  -1.138  -1.750  0.00  0.00    -0.050 A 
ATOM     17  C   UNL     1       3.058  -2.393  -2.085  0.00  0.00    +0.004 A 
ATOM     18  C   UNL     1       2.405  -3.522  -1.626  0.00  0.00    +0.006 A 
ATOM     19  C   UNL     1       1.281  -3.396  -0.831  0.00  0.00    -0.015 A 
ATOM     20  C   UNL     1       0.810  -2.141  -0.496  0.00  0.00    -0.045 A 
ATOM     21  C   UNL     1       1.464  -1.011  -0.952  0.00  0.00    +0.007 A 
ATOM     22  C   UNL     1      -0.416  -2.003   0.370  0.00  0.00    +0.044 C 
ENDBRANCH  14  19
BRANCH  14  23
ATOM     23  C   UNL     1       1.585  -5.654   0.099  0.00  0.00    +0.239 C 
ATOM     24  O   UNL     1       1.763  -6.649  -0.571  0.00  0.00    -0.273 OA
ATOM     25  N   UNL     1       2.295  -5.467   1.229  0.00  0.00    -0.309 N 
ATOM     26  H   UNL     1       2.085  -4.724   1.817  0.00  0.00    +0.149 HD
BRANCH  25  27
ATOM     27  C   UNL     1       3.385  -6.385   1.570  0.00  0.00    +0.026 C 
ATOM     28  C   UNL     1       4.439  -6.359   0.461  0.00  0.00    +0.031 C 
ATOM     29  C   UNL     1       4.023  -5.951   2.891  0.00  0.00    +0.031 C 
ATOM     30  C   UNL     1       2.830  -7.804   1.712  0.00  0.00    +0.031 C 
ENDBRANCH  25  27
ENDBRANCH  14  23
ENDBRANCH   1  14
BRANCH   1  31
ATOM     31  C   UNL     1      -0.633  -4.344  -2.548  0.00  0.00    +0.183 C 
BRANCH  31  32
ATOM     32  C   UNL     1       0.408  -4.477  -3.628  0.00  0.00    +0.122 A 
ATOM     33  C   UNL     1       0.396  -5.378  -4.626  0.00  0.00    +0.046 A 
ATOM     34  C   UNL     1       1.554  -5.146  -5.403  0.00  0.00    +0.045 A 
ATOM     35  C   UNL     1       2.205  -4.116  -4.833  0.00  0.00    +0.102 A 
ATOM     36  O   UNL     1       1.504  -3.711  -3.762  0.00  0.00    -0.463 OA
ATOM     37  C   UNL     1       3.500  -3.516  -5.317  0.00  0.00    +0.086 C 
ENDBRANCH  31  32
ENDBRANCH   1  31
TORSDOF 9
