REMARK  Name = ZINC63270466
REMARK  11 active torsions:
REMARK  status: ('A' for Active; 'I' for Inactive)
REMARK    1  A    between atoms: C_1  and  C_2
REMARK    2  A    between atoms: C_2  and  C_3
REMARK    3  A    between atoms: C_2  and  N_4
REMARK    4  A    between atoms: C_5  and  C_7
REMARK    5  A    between atoms: C_7  and  N_8
REMARK    6  A    between atoms: C_9  and  C_11
REMARK    7  A    between atoms: N_13  and  C_14
REMARK    8  A    between atoms: C_19  and  C_20
REMARK    9  A    between atoms: N_22  and  C_23
REMARK   10  A    between atoms: C_23  and  C_24
REMARK   11  A    between atoms: C_24  and  C_25
REMARK                            x       y       z     vdW  Elec       q    Type
REMARK                         _______ _______ _______ _____ _____    ______ ____
ROOT
ATOM      1  C   UNL     1      -5.548  -7.536  -2.486  0.00  0.00    +0.046 A 
ATOM      2  C   UNL     1      -4.405  -8.172  -2.953  0.00  0.00    +0.024 A 
ATOM      3  C   UNL     1      -4.503  -9.395  -3.586  0.00  0.00    +0.002 A 
ATOM      4  C   UNL     1      -5.739  -9.996  -3.761  0.00  0.00    +0.001 A 
ATOM      5  C   UNL     1      -6.884  -9.380  -3.305  0.00  0.00    +0.015 A 
ATOM      6  C   UNL     1      -6.800  -8.145  -2.657  0.00  0.00    +0.058 A 
ENDROOT
BRANCH   1   9
ATOM      7  C   UNL     1      -4.526  -5.409  -2.247  0.00  0.00    +0.303 C 
ATOM      8  O   UNL     1      -3.724  -5.708  -3.108  0.00  0.00    -0.265 OA
ATOM      9  N   UNL     1      -5.451  -6.304  -1.848  0.00  0.00    -0.277 N 
ATOM     10  H   UNL     1      -6.049  -6.089  -1.115  0.00  0.00    +0.155 HD
BRANCH   7  12
ATOM     11  N   UNL     1      -3.562  -3.154  -2.030  0.00  0.00    -0.299 N 
ATOM     12  C   UNL     1      -4.487  -4.049  -1.631  0.00  0.00    +0.300 C 
ATOM     13  O   UNL     1      -5.288  -3.750  -0.770  0.00  0.00    -0.265 OA
ATOM     14  H   UNL     1      -2.921  -3.393  -2.718  0.00  0.00    +0.150 HD
BRANCH  11  15
ATOM     15  C   UNL     1      -3.524  -1.820  -1.425  0.00  0.00    +0.200 C 
BRANCH  15  17
ATOM     16  N   UNL     1      -2.180   0.245  -1.638  0.00  0.00    -0.312 N 
ATOM     17  C   UNL     1      -2.406  -1.020  -2.042  0.00  0.00    +0.230 C 
ATOM     18  O   UNL     1      -1.709  -1.516  -2.903  0.00  0.00    -0.274 OA
ATOM     19  H   UNL     1      -2.737   0.641  -0.950  0.00  0.00    +0.149 HD
BRANCH  16  21
ATOM     20  C   UNL     1      -1.405   2.516  -2.113  0.00  0.00    +0.027 C 
ATOM     21  C   UNL     1      -1.093   1.023  -2.239  0.00  0.00    +0.067 C 
ATOM     22  C   UNL     1       0.217   0.713  -1.512  0.00  0.00    +0.027 C 
ENDBRANCH  16  21
ENDBRANCH  15  17
ENDBRANCH  11  15
ENDBRANCH   7  12
ENDBRANCH   1   9
BRANCH   6  23
ATOM     23  C   UNL     1      -8.021  -7.482  -2.162  0.00  0.00    +0.246 C 
ATOM     24  O   UNL     1      -7.957  -6.363  -1.690  0.00  0.00    -0.270 OA
ATOM     25  N   UNL     1      -9.208  -8.118  -2.231  0.00  0.00    -0.311 N 
ATOM     26  H   UNL     1      -9.259  -9.010  -2.607  0.00  0.00    +0.149 HD
BRANCH  25  27
ATOM     27  C   UNL     1     -10.421  -7.460  -1.738  0.00  0.00    +0.109 C 
BRANCH  27  28
ATOM     28  C   UNL     1     -11.620  -8.389  -1.932  0.00  0.00    +0.052 C 
BRANCH  28  29
ATOM     29  C   UNL     1     -12.868  -7.713  -1.426  0.00  0.00    -0.040 C 
ATOM     30  C   UNL     1     -13.763  -7.007  -2.154  0.00  0.00    -0.001 A 
ATOM     31  C   UNL     1     -13.839  -6.670  -3.581  0.00  0.00    +0.010 A 
ATOM     32  C   UNL     1     -14.880  -5.929  -4.025  0.00  0.00    +0.001 A 
ATOM     33  C   UNL     1     -15.885  -5.476  -3.159  0.00  0.00    +0.002 A 
ATOM     34  C   UNL     1     -15.884  -5.745  -1.836  0.00  0.00    +0.026 A 
ATOM     35  C   UNL     1     -14.837  -6.517  -1.261  0.00  0.00    +0.043 A 
ATOM     36  N   UNL     1     -14.615  -6.905  -0.028  0.00  0.00    -0.380 N 
ATOM     37  C   UNL     1     -13.376  -7.691  -0.002  0.00  0.00    +0.144 C 
ATOM     38  H   UNL     1     -15.177  -6.708   0.737  0.00  0.00    +0.160 HD
ENDBRANCH  28  29
ENDBRANCH  27  28
ENDBRANCH  25  27
ENDBRANCH   6  23
TORSDOF 9
