REMARK  Name = ZINC18274403
REMARK  7 active torsions:
REMARK  status: ('A' for Active; 'I' for Inactive)
REMARK    1  A    between atoms: C_1  and  C_2
REMARK    2  A    between atoms: C_5  and  C_16
REMARK    3  A    between atoms: C_7  and  N_8
REMARK    4  A    between atoms: C_9  and  C_11
REMARK    5  A    between atoms: C_16  and  O_18
REMARK    6  A    between atoms: O_18  and  C_19
REMARK    7  A    between atoms: C_19  and  C_20
REMARK                            x       y       z     vdW  Elec       q    Type
REMARK                         _______ _______ _______ _____ _____    ______ ____
ROOT
ATOM      1  C   UNL     1       0.140   1.458  -0.378  0.00  0.00    +0.340 C 
ATOM      2  O   UNL     1       1.155   2.112  -0.510  0.00  0.00    -0.245 OA
ENDROOT
BRANCH   1   7
ATOM      3  C   UNL     1      -4.979   4.084  -0.138  0.00  0.00    +0.045 C 
ATOM      4  C   UNL     1      -3.639   3.398  -0.201  0.00  0.00    -0.029 A 
ATOM      5  C   UNL     1      -3.565   2.021  -0.115  0.00  0.00    +0.006 A 
ATOM      6  C   UNL     1      -2.341   1.385  -0.177  0.00  0.00    +0.015 A 
ATOM      7  C   UNL     1      -1.171   2.135  -0.317  0.00  0.00    +0.061 A 
ATOM      8  C   UNL     1      -1.246   3.526  -0.405  0.00  0.00    +0.038 A 
ATOM      9  C   UNL     1      -2.481   4.154  -0.346  0.00  0.00    +0.037 A 
BRANCH   9  10
ATOM     10  N   UNL     1      -2.561   5.547  -0.433  0.00  0.00    -0.279 N 
ATOM     11  C   UNL     1      -1.513   6.307  -0.060  0.00  0.00    +0.284 C 
ATOM     12  O   UNL     1      -0.472   5.780   0.286  0.00  0.00    -0.266 OA
ATOM     13  H   UNL     1      -3.372   5.967  -0.762  0.00  0.00    +0.155 HD
BRANCH  11  14
ATOM     14  C   UNL     1      -1.626   7.769  -0.072  0.00  0.00    +0.189 A 
ATOM     15  C   UNL     1      -0.646   8.653   0.280  0.00  0.00    +0.054 A 
ATOM     16  C   UNL     1      -1.185   9.939   0.119  0.00  0.00    +0.042 A 
ATOM     17  C   UNL     1      -2.454   9.786  -0.319  0.00  0.00    +0.196 A 
ATOM     18  O   UNL     1      -2.715   8.477  -0.437  0.00  0.00    -0.458 OA
ENDBRANCH  11  14
ENDBRANCH   9  10
ENDBRANCH   1   7
BRANCH   1  19
ATOM     19  O   UNL     1       0.210   0.116  -0.293  0.00  0.00    -0.453 OA
BRANCH  19  20
ATOM     20  C   UNL     1       1.531  -0.482  -0.367  0.00  0.00    +0.308 C 
BRANCH  20  21
ATOM     21  C   UNL     1       1.411  -1.980  -0.256  0.00  0.00    +0.170 A 
ATOM     22  N   UNL     1       1.464  -2.546   0.937  0.00  0.00    -0.214 NA
ATOM     23  C   UNL     1       1.360  -3.854   1.102  0.00  0.00    +0.128 A 
ATOM     24  C   UNL     1       1.196  -4.685  -0.041  0.00  0.00    +0.051 A 
ATOM     25  C   UNL     1       1.066  -6.142  -0.104  0.00  0.00    -0.025 A 
ATOM     26  C   UNL     1       0.920  -6.690  -1.327  0.00  0.00    -0.004 A 
ATOM     27  S   UNL     1       0.948  -5.322  -2.454  0.00  0.00    -0.073 S 
ATOM     28  C   UNL     1       1.155  -4.011  -1.278  0.00  0.00    +0.114 A 
ATOM     29  N   UNL     1       1.262  -2.699  -1.352  0.00  0.00    -0.221 NA
ATOM     30  C   UNL     1       0.768  -8.144  -1.657  0.00  0.00    +0.043 C 
ATOM     31  C   UNL     1       1.172  -8.966  -0.425  0.00  0.00    +0.005 C 
ATOM     32  C   UNL     1       0.479  -8.377   0.807  0.00  0.00    +0.005 C 
ATOM     33  C   UNL     1       1.090  -7.017   1.146  0.00  0.00    +0.037 C 
ATOM     34  N   UNL     1       1.415  -4.407   2.369  0.00  0.00    -0.343 N 
ATOM     35  H   UNL     1       1.695  -5.329   2.484  0.00  0.00    +0.144 HD
ATOM     36  H   UNL     1       1.172  -3.874   3.142  0.00  0.00    +0.144 HD
ENDBRANCH  20  21
ENDBRANCH  19  20
ENDBRANCH   1  19
TORSDOF 6
