REMARK  Name = ZINC62915519
REMARK  3 active torsions:
REMARK  status: ('A' for Active; 'I' for Inactive)
REMARK    1  A    between atoms: C_1  and  C_2
REMARK    2  A    between atoms: C_2  and  C_3
REMARK    3  A    between atoms: C_3  and  C_8
REMARK                            x       y       z     vdW  Elec       q    Type
REMARK                         _______ _______ _______ _____ _____    ______ ____
ROOT
ATOM      1  C   UNL     1      -0.107   0.128  -2.484  0.00  0.00    +0.143 A 
ATOM      2  N   UNL     1       0.448   0.800  -3.458  0.00  0.00    -0.133 NA
ATOM      3  N   UNL     1      -0.447   1.197  -4.294  0.00  0.00    -0.127 NA
ATOM      4  C   UNL     1      -1.636   0.795  -3.894  0.00  0.00    +0.189 A 
ATOM      5  N   UNL     1      -1.448   0.092  -2.723  0.00  0.00    -0.267 N 
ATOM      6  C   UNL     1      -2.515  -0.455  -2.076  0.00  0.00    +0.209 A 
ATOM      7  N   UNL     1      -3.727  -0.339  -2.532  0.00  0.00    -0.216 NA
ATOM      8  C   UNL     1      -3.995   0.334  -3.677  0.00  0.00    +0.183 A 
ATOM      9  C   UNL     1      -2.951   0.926  -4.388  0.00  0.00    +0.130 A 
ATOM     10  N   UNL     1      -3.521   1.527  -5.485  0.00  0.00    -0.340 N 
ATOM     11  H   UNL     1      -3.055   2.016  -6.181  0.00  0.00    +0.167 HD
ATOM     12  C   UNL     1      -4.854   1.308  -5.412  0.00  0.00    +0.199 A 
ATOM     13  N   UNL     1      -5.129   0.598  -4.353  0.00  0.00    -0.216 NA
ENDROOT
BRANCH   1  14
ATOM     14  C   UNL     1       0.606  -0.499  -1.314  0.00  0.00    +0.014 C 
ATOM     15  C   UNL     1       2.137  -0.389  -1.495  0.00  0.00    -0.006 C 
ATOM     16  C   UNL     1       2.647  -1.753  -0.966  0.00  0.00    -0.082 C 
ATOM     17  N   UNL     1       1.607  -2.708  -1.429  0.00  0.00    +0.380 N 
ATOM     18  C   UNL     1       0.315  -2.010  -1.257  0.00  0.00    -0.068 C 
ATOM     19  H   UNL     1       1.753  -2.937  -2.401  0.00  0.00    -0.086 HD
ATOM     20  H   UNL     1       1.628  -3.545  -0.866  0.00  0.00    -0.086 HD
BRANCH  14  22
ATOM     21  C   UNL     1       0.390   1.685  -0.120  0.00  0.00    +0.005 C 
ATOM     22  C   UNL     1       0.177   0.174  -0.009  0.00  0.00    +0.009 C 
ENDBRANCH  14  22
ENDBRANCH   1  14
TORSDOF 2
