REMARK  Name = ZINC41222850
REMARK  9 active torsions:
REMARK  status: ('A' for Active; 'I' for Inactive)
REMARK    1  A    between atoms: C_1  and  C_2
REMARK    2  A    between atoms: C_2  and  C_4
REMARK    3  A    between atoms: C_2  and  N_13
REMARK    4  A    between atoms: C_4  and  C_5
REMARK    5  A    between atoms: C_5  and  C_6
REMARK    6  A    between atoms: C_9  and  O_12
REMARK    7  A    between atoms: C_14  and  C_16
REMARK    8  A    between atoms: N_18  and  C_19
REMARK    9  A    between atoms: C_23  and  N_25
REMARK                            x       y       z     vdW  Elec       q    Type
REMARK                         _______ _______ _______ _____ _____    ______ ____
ROOT
ATOM      1  N   UNL     1       0.710  -0.494   1.187  0.00  0.00    -0.305 N 
ATOM      2  C   UNL     1       2.053  -0.606   1.171  0.00  0.00    +0.300 C 
ATOM      3  O   UNL     1       2.675  -0.312   0.172  0.00  0.00    -0.265 OA
ATOM      4  H   UNL     1       0.213  -0.729   1.986  0.00  0.00    +0.149 HD
ENDROOT
BRANCH   2   5
ATOM      5  C   UNL     1       2.776  -1.093   2.384  0.00  0.00    +0.303 C 
ATOM      6  O   UNL     1       2.154  -1.387   3.384  0.00  0.00    -0.265 OA
ATOM      7  N   UNL     1       4.119  -1.205   2.368  0.00  0.00    -0.278 N 
ATOM      8  H   UNL     1       4.611  -1.034   1.550  0.00  0.00    +0.155 HD
BRANCH   7   9
ATOM      9  C   UNL     1       4.804  -1.567   3.532  0.00  0.00    +0.036 A 
ATOM     10  C   UNL     1       6.054  -1.024   3.802  0.00  0.00    +0.025 A 
ATOM     11  C   UNL     1       6.728  -1.384   4.952  0.00  0.00    +0.024 A 
ATOM     12  C   UNL     1       6.159  -2.285   5.836  0.00  0.00    +0.071 A 
ATOM     13  C   UNL     1       4.914  -2.827   5.569  0.00  0.00    +0.146 A 
ATOM     14  C   UNL     1       4.233  -2.467   4.423  0.00  0.00    +0.057 A 
ATOM     15 CL   UNL     1       7.010  -2.735   7.280  0.00  0.00    -0.081 Cl
BRANCH  13  16
ATOM     16  N   UNL     1       4.310  -3.791   6.517  0.00  0.00    +0.058 N 
ATOM     17  O   UNL     1       3.223  -4.265   6.285  0.00  0.00    -0.126 OA
ATOM     18  O   UNL     1       4.904  -4.104   7.522  0.00  0.00    -0.126 OA
ENDBRANCH  13  16
ENDBRANCH   7   9
ENDBRANCH   2   5
BRANCH   1  20
ATOM     19  C   UNL     1      -0.017   1.514  -0.006  0.00  0.00    +0.028 C 
ATOM     20  C   UNL     1       0.001  -0.016  -0.003  0.00  0.00    +0.071 C 
BRANCH  20  21
ATOM     21  C   UNL     1      -1.435  -0.544   0.013  0.00  0.00    +0.026 C 
BRANCH  21  22
ATOM     22  C   UNL     1      -1.419  -2.069  -0.109  0.00  0.00    +0.037 C 
BRANCH  22  23
ATOM     23  C   UNL     1      -2.834  -2.588  -0.093  0.00  0.00    -0.047 A 
ATOM     24  C   UNL     1      -3.435  -2.917   1.108  0.00  0.00    +0.007 A 
ATOM     25  C   UNL     1      -4.731  -3.393   1.125  0.00  0.00    +0.045 A 
ATOM     26  C   UNL     1      -5.430  -3.543  -0.064  0.00  0.00    +0.117 A 
ATOM     27  C   UNL     1      -4.825  -3.212  -1.268  0.00  0.00    +0.045 A 
ATOM     28  C   UNL     1      -3.530  -2.731  -1.279  0.00  0.00    +0.007 A 
BRANCH  26  29
ATOM     29  O   UNL     1      -6.705  -4.012  -0.050  0.00  0.00    -0.507 OA
ATOM     30  H   UNL     1      -7.378  -3.322   0.029  0.00  0.00    +0.292 HD
ENDBRANCH  26  29
ENDBRANCH  22  23
ENDBRANCH  21  22
ENDBRANCH  20  21
ENDBRANCH   1  20
TORSDOF 8
