REMARK  Name = ZINC50101164
REMARK  5 active torsions:
REMARK  status: ('A' for Active; 'I' for Inactive)
REMARK    1  A    between atoms: C_1  and  C_2
REMARK    2  A    between atoms: C_2  and  C_21
REMARK    3  A    between atoms: C_8  and  C_10
REMARK    4  A    between atoms: C_16  and  N_19
REMARK    5  A    between atoms: N_19  and  C_20
REMARK                            x       y       z     vdW  Elec       q    Type
REMARK                         _______ _______ _______ _____ _____    ______ ____
ROOT
ATOM      1  C   UNL     1       0.208   1.520  -0.128  0.00  0.00    +0.011 C 
ATOM      2  C   UNL     1       0.124  -0.006  -0.072  0.00  0.00    -0.031 C 
ATOM      3  C   UNL     1      -1.339  -0.437   0.016  0.00  0.00    +0.062 C 
ATOM      4  C   UNL     1      -1.437  -1.912   0.297  0.00  0.00    +0.047 A 
ATOM      5  C   UNL     1      -0.379  -2.645   0.793  0.00  0.00    -0.022 A 
ATOM      6  C   UNL     1      -0.563  -4.004   1.029  0.00  0.00    +0.117 A 
ATOM      7  N   UNL     1      -1.735  -4.554   0.770  0.00  0.00    -0.233 NA
ATOM      8  C   UNL     1      -2.732  -3.822   0.289  0.00  0.00    +0.197 A 
ATOM      9  N   UNL     1      -2.588  -2.526   0.056  0.00  0.00    -0.229 NA
ATOM     10  C   UNL     1       0.966  -2.039   1.081  0.00  0.00    -0.038 C 
ATOM     11  C   UNL     1       0.858  -0.517   1.173  0.00  0.00    -0.005 C 
ATOM     12  C   UNL     1       0.765  -0.602  -1.327  0.00  0.00    +0.011 C 
ENDROOT
BRANCH   8  13
ATOM     13  C   UNL     1      -4.034  -4.469   0.006  0.00  0.00    +0.194 A 
ATOM     14  N   UNL     1      -5.108  -3.875  -0.471  0.00  0.00    -0.212 NA
ATOM     15  H   UNL     1      -3.736  -6.467   0.522  0.00  0.00    +0.191 HD
ATOM     16  C   UNL     1      -6.091  -4.759  -0.600  0.00  0.00    +0.245 A 
ATOM     17  N   UNL     1      -5.668  -5.934  -0.209  0.00  0.00    -0.161 NA
ATOM     18  N   UNL     1      -4.329  -5.777   0.186  0.00  0.00    -0.256 N 
ENDBRANCH   8  13
BRANCH  10  19
ATOM     19  N   UNL     1       1.472  -2.563   2.357  0.00  0.00    +0.382 N 
ATOM     20  C   UNL     1       2.841  -2.079   2.578  0.00  0.00    -0.100 C 
ATOM     21  H   UNL     1       0.878  -2.248   3.109  0.00  0.00    -0.085 HD
ATOM     22  H   UNL     1       1.472  -3.572   2.329  0.00  0.00    -0.085 HD
ENDBRANCH  10  19
TORSDOF 2
