REMARK  Name = ZINC31914362
REMARK  9 active torsions:
REMARK  status: ('A' for Active; 'I' for Inactive)
REMARK    1  A    between atoms: C_1  and  C_2
REMARK    2  A    between atoms: C_2  and  C_3
REMARK    3  A    between atoms: C_3  and  C_5
REMARK    4  A    between atoms: C_3  and  O_19
REMARK    5  A    between atoms: C_6  and  C_15
REMARK    6  A    between atoms: C_10  and  C_14
REMARK    7  A    between atoms: C_15  and  C_16
REMARK    8  A    between atoms: C_15  and  C_17
REMARK    9  A    between atoms: C_15  and  C_18
REMARK                            x       y       z     vdW  Elec       q    Type
REMARK                         _______ _______ _______ _____ _____    ______ ____
ROOT
ATOM      1  C   UNL     1       3.248  -1.360   0.401  0.00  0.00    +0.075 A 
ATOM      2  C   UNL     1       2.974  -0.041   0.508  0.00  0.00    +0.071 A 
ATOM      3  N   UNL     1       1.649   0.120   0.528  0.00  0.00    -0.232 NA
ATOM      4  C   UNL     1       1.065  -1.067   0.437  0.00  0.00    +0.138 A 
ATOM      5  N   UNL     1       2.049  -2.018   0.355  0.00  0.00    -0.298 N 
ATOM      6  C   UNL     1       1.725  -3.340   0.251  0.00  0.00    +0.022 A 
ATOM      7  C   UNL     1       0.434  -3.731   0.228  0.00  0.00    +0.021 A 
ATOM      8  C   UNL     1      -0.597  -2.780   0.310  0.00  0.00    +0.005 A 
ATOM      9  C   UNL     1      -0.288  -1.459   0.413  0.00  0.00    +0.047 A 
ATOM     10  C   UNL     1       2.819  -4.372   0.162  0.00  0.00    +0.064 C 
ENDROOT
BRANCH   2  11
ATOM     11  C   UNL     1       3.996   1.064   0.590  0.00  0.00    +0.006 C 
ATOM     12  C   UNL     1       4.840   1.074  -0.686  0.00  0.00    +0.017 C 
ATOM     13  C   UNL     1       3.281   2.409   0.739  0.00  0.00    +0.017 C 
ATOM     14  C   UNL     1       4.902   0.832   1.800  0.00  0.00    +0.017 C 
ENDBRANCH   2  11
BRANCH   1  15
ATOM     15  C   UNL     1       4.616  -1.988   0.342  0.00  0.00    +0.163 C 
BRANCH  15  17
ATOM     16  C   UNL     1       6.089  -3.697   1.416  0.00  0.00    +0.007 C 
ATOM     17  C   UNL     1       4.851  -2.818   1.605  0.00  0.00    +0.034 C 
ENDBRANCH  15  17
BRANCH  15  18
ATOM     18  O   UNL     1       4.703  -2.834  -0.807  0.00  0.00    -0.386 OA
ATOM     19  H   UNL     1       4.561  -2.412  -1.813  0.00  0.00    +0.210 HD
ENDBRANCH  15  18
ENDBRANCH   1  15
TORSDOF 4
