REMARK  Name = ZINC48560349
REMARK  5 active torsions:
REMARK  status: ('A' for Active; 'I' for Inactive)
REMARK    1  A    between atoms: C_1  and  C_2
REMARK    2  A    between atoms: C_2  and  C_4
REMARK    3  A    between atoms: C_2  and  N_13
REMARK    4  A    between atoms: N_16  and  C_17
REMARK    5  A    between atoms: C_20  and  N_24
REMARK                            x       y       z     vdW  Elec       q    Type
REMARK                         _______ _______ _______ _____ _____    ______ ____
ROOT
ATOM      1  N   UNL     1       0.711  -0.484   1.191  0.00  0.00    -0.290 N 
ATOM      2  C   UNL     1       2.054  -0.602   1.173  0.00  0.00    +0.304 C 
ATOM      3  O   UNL     1       2.676  -0.307   0.171  0.00  0.00    -0.252 OA
ATOM      4  N   UNL     1       2.706  -1.046   2.266  0.00  0.00    -0.269 N 
ATOM      5  H   UNL     1       0.214  -0.719   1.990  0.00  0.00    +0.151 HD
ATOM      6  H   UNL     1       2.217  -1.218   3.086  0.00  0.00    +0.156 HD
ENDROOT
BRANCH   4   7
ATOM      7  C   UNL     1       4.090  -1.261   2.216  0.00  0.00    +0.036 A 
ATOM      8  C   UNL     1       4.655  -2.311   2.928  0.00  0.00    +0.025 A 
ATOM      9  C   UNL     1       6.019  -2.523   2.880  0.00  0.00    +0.026 A 
ATOM     10  C   UNL     1       6.826  -1.685   2.121  0.00  0.00    +0.049 A 
ATOM     11  C   UNL     1       6.260  -0.635   1.409  0.00  0.00    +0.064 A 
ATOM     12  C   UNL     1       4.895  -0.427   1.452  0.00  0.00    +0.045 A 
ATOM     13 CL   UNL     1       7.268   0.413   0.460  0.00  0.00    -0.082 Cl
BRANCH  10  14
ATOM     14  N   UNL     1       8.208  -1.900   2.074  0.00  0.00    -0.318 N 
ATOM     15  C   UNL     1       9.116  -1.266   3.045  0.00  0.00    +0.124 C 
ATOM     16  C   UNL     1       9.822  -2.373   3.830  0.00  0.00    +0.123 C 
ATOM     17  N   UNL     1      10.326  -3.403   2.932  0.00  0.00    -0.313 N 
ATOM     18  C   UNL     1       9.864  -3.626   1.701  0.00  0.00    +0.230 C 
ATOM     19  O   UNL     1      10.310  -4.565   1.077  0.00  0.00    -0.274 OA
ATOM     20  C   UNL     1       8.813  -2.771   1.055  0.00  0.00    +0.200 C 
ATOM     21  H   UNL     1      11.049  -3.966   3.251  0.00  0.00    +0.149 HD
ENDBRANCH  10  14
ENDBRANCH   4   7
BRANCH   1  23
ATOM     22  C   UNL     1      -0.011   1.529   0.005  0.00  0.00    +0.036 C 
ATOM     23  C   UNL     1       0.002  -0.001   0.004  0.00  0.00    +0.137 C 
BRANCH  23  24
ATOM     24  C   UNL     1      -1.414  -0.515   0.020  0.00  0.00    +0.126 A 
ATOM     25  C   UNL     1      -2.082  -0.960  -1.053  0.00  0.00    +0.055 A 
ATOM     26  C   UNL     1      -3.411  -1.356  -0.573  0.00  0.00    +0.020 A 
ATOM     27  C   UNL     1      -4.549  -1.885  -1.181  0.00  0.00    +0.011 A 
ATOM     28  C   UNL     1      -5.659  -2.149  -0.427  0.00  0.00    +0.001 A 
ATOM     29  C   UNL     1      -5.659  -1.892   0.937  0.00  0.00    +0.004 A 
ATOM     30  C   UNL     1      -4.544  -1.369   1.554  0.00  0.00    +0.047 A 
ATOM     31  C   UNL     1      -3.405  -1.094   0.807  0.00  0.00    +0.135 A 
ATOM     32  O   UNL     1      -2.190  -0.598   1.115  0.00  0.00    -0.458 OA
ENDBRANCH  23  24
ENDBRANCH   1  23
TORSDOF 4
