REMARK  Name = ZINC48640317
REMARK  2 active torsions:
REMARK  status: ('A' for Active; 'I' for Inactive)
REMARK    1  A    between atoms: C_4  and  C_7
REMARK    2  A    between atoms: C_10  and  N_12
REMARK                            x       y       z     vdW  Elec       q    Type
REMARK                         _______ _______ _______ _____ _____    ______ ____
ROOT
ATOM      1  C   UNL     1       1.466  -2.078  -0.021  0.00  0.00    +0.088 A 
ATOM      2  C   UNL     1       2.763  -2.515  -0.031  0.00  0.00    +0.077 A 
ATOM      3  S   UNL     1       2.518  -4.286  -0.044  0.00  0.00    -0.056 S 
ATOM      4  C   UNL     1       0.731  -4.267  -0.033  0.00  0.00    +0.196 A 
ATOM      5  N   UNL     1       0.480  -2.964  -0.016  0.00  0.00    -0.221 NA
ENDROOT
BRANCH   4   6
ATOM      6  N   UNL     1      -0.140  -5.310  -0.036  0.00  0.00    -0.189 NA
ATOM      7  C   UNL     1      -0.650  -5.739  -1.172  0.00  0.00    +0.195 C 
ATOM      8  N   UNL     1      -0.219  -5.208  -2.360  0.00  0.00    -0.370 N 
ATOM      9  N   UNL     1      -1.611  -6.716  -1.166  0.00  0.00    -0.370 N 
ATOM     10  H   UNL     1       0.513  -4.572  -2.370  0.00  0.00    +0.159 HD
ATOM     11  H   UNL     1      -0.647  -5.468  -3.191  0.00  0.00    +0.159 HD
ATOM     12  H   UNL     1      -1.915  -7.092  -0.326  0.00  0.00    +0.159 HD
ATOM     13  H   UNL     1      -1.986  -7.032  -2.003  0.00  0.00    +0.159 HD
ENDBRANCH   4   6
BRANCH   1  17
ATOM     14  C   UNL     1      -0.081   1.379   0.018  0.00  0.00    +0.023 A 
ATOM     15  C   UNL     1       1.089   2.067   0.011  0.00  0.00    +0.047 A 
ATOM     16  S   UNL     1       2.297   0.752  -0.010  0.00  0.00    -0.094 S 
ATOM     17  C   UNL     1       1.167  -0.630  -0.008  0.00  0.00    +0.052 A 
ATOM     18  C   UNL     1      -0.049   0.000   0.009  0.00  0.00    +0.034 A 
ATOM     19 BR   UNL     1      -1.654  -1.001   0.018  0.00  0.00    -0.049 Br
ENDBRANCH   1  17
TORSDOF 2
