REMARK  Name = ZINC64704779
REMARK  5 active torsions:
REMARK  status: ('A' for Active; 'I' for Inactive)
REMARK    1  A    between atoms: C_10  and  C_11
REMARK    2  A    between atoms: C_11  and  C_13
REMARK    3  A    between atoms: C_13  and  N_14
REMARK    4  A    between atoms: C_17  and  C_22
REMARK    5  A    between atoms: C_22  and  C_23
REMARK                            x       y       z     vdW  Elec       q    Type
REMARK                         _______ _______ _______ _____ _____    ______ ____
ROOT
ATOM      1  N   UNL     1       7.398   0.292   0.024  0.00  0.00    -0.217 N 
ATOM      2  C   UNL     1       8.008   0.710  -1.104  0.00  0.00    +0.244 C 
ATOM      3  O   UNL     1       7.749   0.380  -2.241  0.00  0.00    -0.273 OA
ATOM      4  C   UNL     1       9.084   1.677  -0.653  0.00  0.00    +0.165 C 
ATOM      5  N   UNL     1       8.943   1.694   0.813  0.00  0.00    -0.287 N 
ATOM      6  C   UNL     1       7.931   0.860   1.112  0.00  0.00    +0.310 C 
ATOM      7  O   UNL     1       7.546   0.642   2.244  0.00  0.00    -0.252 OA
ATOM      8  H   UNL     1       9.474   2.209   1.441  0.00  0.00    +0.151 HD
ENDROOT
BRANCH   1   9
ATOM      9  C   UNL     1       6.286  -0.660   0.053  0.00  0.00    +0.197 C 
BRANCH   9  10
ATOM     10  C   UNL     1       4.981   0.088  -0.045  0.00  0.00    +0.181 C 
ATOM     11  O   UNL     1       4.981   1.298  -0.131  0.00  0.00    -0.290 OA
BRANCH  10  21
ATOM     12  C   UNL     1      -0.016   1.357   0.052  0.00  0.00    +0.001 A 
ATOM     13  C   UNL     1       1.168   2.090   0.045  0.00  0.00    +0.001 A 
ATOM     14  C   UNL     1       2.379   1.465   0.017  0.00  0.00    +0.009 A 
ATOM     15  C   UNL     1       2.435   0.067  -0.006  0.00  0.00    -0.007 A 
ATOM     16  C   UNL     1       1.233  -0.682   0.001  0.00  0.00    -0.017 A 
ATOM     17  C   UNL     1       0.002  -0.004   0.030  0.00  0.00    +0.008 A 
ATOM     18  C   UNL     1       1.294  -2.086  -0.021  0.00  0.00    +0.008 A 
ATOM     19  C   UNL     1       2.493  -2.730  -0.048  0.00  0.00    +0.001 A 
ATOM     20  C   UNL     1       3.696  -2.039  -0.056  0.00  0.00    +0.012 A 
ATOM     21  C   UNL     1       3.712  -0.647  -0.036  0.00  0.00    +0.027 A 
ENDBRANCH  10  21
ENDBRANCH   9  10
ENDBRANCH   1   9
BRANCH   4  22
ATOM     22  C   UNL     1      10.469   1.168  -1.058  0.00  0.00    +0.065 C 
BRANCH  22  23
ATOM     23  C   UNL     1      11.507   2.204  -0.708  0.00  0.00    -0.039 C 
ATOM     24  C   UNL     1      12.257   2.256   0.416  0.00  0.00    -0.001 A 
ATOM     25  C   UNL     1      12.329   1.397   1.604  0.00  0.00    +0.010 A 
ATOM     26  C   UNL     1      13.200   1.713   2.590  0.00  0.00    +0.001 A 
ATOM     27  C   UNL     1      14.033   2.837   2.505  0.00  0.00    +0.002 A 
ATOM     28  C   UNL     1      14.024   3.673   1.446  0.00  0.00    +0.026 A 
ATOM     29  C   UNL     1      13.148   3.437   0.351  0.00  0.00    +0.043 A 
ATOM     30  N   UNL     1      12.956   4.089  -0.770  0.00  0.00    -0.380 N 
ATOM     31  C   UNL     1      11.924   3.392  -1.546  0.00  0.00    +0.144 C 
ATOM     32  H   UNL     1      13.420   4.896  -1.042  0.00  0.00    +0.160 HD
ENDBRANCH  22  23
ENDBRANCH   4  22
TORSDOF 5
