REMARK  Name = ZINC58201098
REMARK  9 active torsions:
REMARK  status: ('A' for Active; 'I' for Inactive)
REMARK    1  A    between atoms: C_1  and  C_2
REMARK    2  A    between atoms: C_2  and  C_3
REMARK    3  A    between atoms: C_3  and  C_4
REMARK    4  A    between atoms: C_3  and  N_6
REMARK    5  A    between atoms: C_4  and  C_5
REMARK    6  A    between atoms: C_7  and  C_9
REMARK    7  A    between atoms: N_12  and  C_20
REMARK    8  A    between atoms: C_20  and  C_21
REMARK    9  A    between atoms: N_26  and  C_27
REMARK                            x       y       z     vdW  Elec       q    Type
REMARK                         _______ _______ _______ _____ _____    ______ ____
ROOT
ATOM      1  C   UNL     1      -0.234   0.422  -4.849  0.00  0.00    +0.276 C 
ATOM      2  C   UNL     1      -0.788   1.843  -4.664  0.00  0.00    +0.160 C 
ATOM      3  N   UNL     1      -1.513   2.202  -5.895  0.00  0.00    -0.314 N 
ATOM      4  C   UNL     1      -0.929   1.850  -7.122  0.00  0.00    +0.073 A 
ATOM      5  C   UNL     1      -1.405   2.401  -8.301  0.00  0.00    +0.027 A 
ATOM      6  C   UNL     1      -0.830   2.049  -9.508  0.00  0.00    +0.002 A 
ATOM      7  C   UNL     1       0.219   1.148  -9.538  0.00  0.00    +0.004 A 
ATOM      8  C   UNL     1       0.699   0.597  -8.365  0.00  0.00    +0.047 A 
ATOM      9  C   UNL     1       0.129   0.945  -7.150  0.00  0.00    +0.143 A 
ATOM     10  O   UNL     1       0.612   0.401  -6.001  0.00  0.00    -0.476 OA
ENDROOT
BRANCH   1  12
ATOM     11  N   UNL     1      -0.055  -0.114  -2.441  0.00  0.00    -0.309 N 
ATOM     12  C   UNL     1       0.561   0.028  -3.631  0.00  0.00    +0.256 C 
ATOM     13  O   UNL     1       1.755  -0.162  -3.722  0.00  0.00    -0.272 OA
ATOM     14  H   UNL     1      -1.010   0.038  -2.368  0.00  0.00    +0.149 HD
BRANCH  11  15
ATOM     15  C   UNL     1       0.718  -0.497  -1.257  0.00  0.00    +0.073 C 
BRANCH  15  17
ATOM     16  C   UNL     1      -0.019   1.526   0.010  0.00  0.00    +0.006 C 
ATOM     17  C   UNL     1       0.002  -0.004   0.002  0.00  0.00    +0.019 C 
ENDBRANCH  15  17
BRANCH  15  18
ATOM     18  C   UNL     1       0.849  -2.021  -1.205  0.00  0.00    +0.019 C 
ATOM     19  C   UNL     1       1.673  -2.503  -2.400  0.00  0.00    +0.006 C 
ENDBRANCH  15  18
ENDBRANCH  11  15
ENDBRANCH   1  12
BRANCH   3  20
ATOM     20  C   UNL     1      -2.799   2.901  -5.840  0.00  0.00    +0.201 C 
BRANCH  20  21
ATOM     21  C   UNL     1      -2.562   4.389  -5.856  0.00  0.00    +0.238 C 
ATOM     22  O   UNL     1      -1.431   4.823  -5.908  0.00  0.00    -0.274 OA
ATOM     23  N   UNL     1      -3.608   5.238  -5.813  0.00  0.00    -0.239 N 
ATOM     24  C   UNL     1      -3.397   6.569  -5.827  0.00  0.00    +0.306 C 
ATOM     25  O   UNL     1      -2.263   7.004  -5.880  0.00  0.00    -0.252 OA
ATOM     26  N   UNL     1      -4.443   7.418  -5.784  0.00  0.00    -0.302 N 
ATOM     27  C   UNL     1      -4.213   8.865  -5.800  0.00  0.00    +0.129 C 
ATOM     28  H   UNL     1      -4.513   4.891  -5.771  0.00  0.00    +0.159 HD
ATOM     29  H   UNL     1      -5.348   7.071  -5.742  0.00  0.00    +0.150 HD
ENDBRANCH  20  21
ENDBRANCH   3  20
TORSDOF 6
