REMARK  Name = ZINC46962577
REMARK  6 active torsions:
REMARK  status: ('A' for Active; 'I' for Inactive)
REMARK    1  A    between atoms: C_1  and  C_2
REMARK    2  A    between atoms: C_2  and  C_4
REMARK    3  A    between atoms: C_2  and  N_10
REMARK    4  A    between atoms: N_8  and  C_9
REMARK    5  A    between atoms: N_13  and  C_14
REMARK    6  A    between atoms: N_13  and  C_15
REMARK                            x       y       z     vdW  Elec       q    Type
REMARK                         _______ _______ _______ _____ _____    ______ ____
ROOT
ATOM      1  N   UNL     1      -1.372  -0.511   0.012  0.00  0.00    -0.290 N 
ATOM      2  C   UNL     1      -2.051  -0.643  -1.145  0.00  0.00    +0.303 C 
ATOM      3  O   UNL     1      -1.522  -0.341  -2.197  0.00  0.00    -0.253 OA
ATOM      4  N   UNL     1      -3.315  -1.109  -1.135  0.00  0.00    -0.282 N 
ATOM      5  C   UNL     1      -3.952  -1.473   0.133  0.00  0.00    +0.134 C 
ATOM      6  H   UNL     1      -1.794  -0.752   0.852  0.00  0.00    +0.151 HD
ENDROOT
BRANCH   4   7
ATOM      7  C   UNL     1      -4.053  -1.252  -2.393  0.00  0.00    +0.108 C 
ATOM      8  C   UNL     1      -5.300  -0.372  -2.348  0.00  0.00    +0.028 C 
ATOM      9  C   UNL     1      -6.166  -0.698  -3.570  0.00  0.00    +0.007 C 
ATOM     10  C   UNL     1      -6.754  -2.096  -3.385  0.00  0.00    +0.035 C 
ATOM     11  C   UNL     1      -5.670  -3.085  -3.045  0.00  0.00    -0.042 A 
ATOM     12  C   UNL     1      -4.431  -2.697  -2.585  0.00  0.00    -0.024 A 
ATOM     13  C   UNL     1      -3.479  -3.661  -2.282  0.00  0.00    +0.006 A 
ATOM     14  C   UNL     1      -3.763  -5.002  -2.442  0.00  0.00    +0.000 A 
ATOM     15  C   UNL     1      -5.005  -5.390  -2.906  0.00  0.00    +0.000 A 
ATOM     16  C   UNL     1      -5.952  -4.435  -3.207  0.00  0.00    +0.004 A 
ENDBRANCH   4   7
BRANCH   1  18
ATOM     17  C   UNL     1      -0.019   1.526   0.010  0.00  0.00    +0.036 C 
ATOM     18  C   UNL     1       0.002  -0.004   0.002  0.00  0.00    +0.139 C 
BRANCH  18  19
ATOM     19  C   UNL     1       0.731  -0.503   1.223  0.00  0.00    +0.153 A 
ATOM     20  N   UNL     1       0.271  -0.523   2.444  0.00  0.00    -0.133 NA
ATOM     21  N   UNL     1       1.159  -1.015   3.233  0.00  0.00    -0.138 NA
ATOM     22  C   UNL     1       2.226  -1.331   2.551  0.00  0.00    +0.224 A 
ATOM     23  N   UNL     1       1.983  -1.020   1.255  0.00  0.00    -0.319 N 
ATOM     24  C   UNL     1       2.890  -1.204   0.120  0.00  0.00    +0.151 C 
ENDBRANCH  18  19
ENDBRANCH   1  18
TORSDOF 3
