REMARK  Name = ZINC63478742
REMARK  4 active torsions:
REMARK  status: ('A' for Active; 'I' for Inactive)
REMARK    1  A    between atoms: C_1  and  O_2
REMARK    2  A    between atoms: O_2  and  C_3
REMARK    3  A    between atoms: C_10  and  C_18
REMARK    4  A    between atoms: N_24  and  C_27
REMARK                            x       y       z     vdW  Elec       q    Type
REMARK                         _______ _______ _______ _____ _____    ______ ____
ROOT
ATOM      1  C   UNL     1       0.626  -0.619   1.042  0.00  0.00    +0.121 A 
ATOM      2  C   UNL     1       1.202   0.173   2.051  0.00  0.00    +0.047 A 
ATOM      3  C   UNL     1       1.842  -0.360   3.113  0.00  0.00    +0.029 A 
ATOM      4  C   UNL     1       1.956  -1.815   3.243  0.00  0.00    +0.043 A 
ATOM      5  N   UNL     1       2.496  -2.572   4.170  0.00  0.00    -0.376 N 
ATOM      6  C   UNL     1       2.400  -3.964   3.742  0.00  0.00    +0.128 C 
ATOM      7  C   UNL     1       1.685  -4.848   4.768  0.00  0.00    +0.121 C 
ATOM      8  N   UNL     1       1.381  -6.140   4.133  0.00  0.00    -0.307 NA
ATOM      9  C   UNL     1       0.393  -6.037   3.054  0.00  0.00    +0.086 C 
ATOM     10  C   UNL     1       0.968  -5.207   1.891  0.00  0.00    +0.048 C 
ATOM     11  C   UNL     1       1.537  -3.941   2.490  0.00  0.00    -0.035 C 
ATOM     12  C   UNL     1       1.340  -2.654   2.183  0.00  0.00    +0.003 A 
ATOM     13  C   UNL     1       0.666  -1.971   1.072  0.00  0.00    +0.055 A 
ATOM     14  H   UNL     1       2.223  -6.591   3.809  0.00  0.00    +0.123 HD
ATOM     15  H   UNL     1       2.892  -2.260   4.998  0.00  0.00    +0.160 HD
ENDROOT
BRANCH   7  16
ATOM     16  C   UNL     1       2.578  -5.066   5.962  0.00  0.00    +0.101 A 
ATOM     17  C   UNL     1       3.787  -5.771   5.828  0.00  0.00    +0.263 A 
ATOM     18  N   UNL     1       4.572  -5.955   6.908  0.00  0.00    -0.274 N 
ATOM     19  H   UNL     1       5.407  -6.441   6.819  0.00  0.00    +0.173 HD
ATOM     20  C   UNL     1       4.207  -5.469   8.109  0.00  0.00    +0.337 A 
ATOM     21  O   UNL     1       4.929  -5.645   9.071  0.00  0.00    -0.246 OA
ATOM     22  N   UNL     1       3.055  -4.791   8.260  0.00  0.00    -0.227 N 
ATOM     23  C   UNL     1       2.227  -4.576   7.185  0.00  0.00    +0.270 A 
ATOM     24  O   UNL     1       1.075  -3.891   7.339  0.00  0.00    -0.267 OA
ATOM     25  O   UNL     1       4.123  -6.213   4.743  0.00  0.00    -0.267 OA
BRANCH  22  26
ATOM     26  C   UNL     1       2.699  -4.295   9.522  0.00  0.00    +0.073 A 
ATOM     27  C   UNL     1       3.091  -3.019   9.904  0.00  0.00    +0.028 A 
ATOM     28  C   UNL     1       2.739  -2.533  11.148  0.00  0.00    +0.002 A 
ATOM     29  C   UNL     1       1.996  -3.316  12.013  0.00  0.00    +0.002 A 
ATOM     30  C   UNL     1       1.604  -4.587  11.637  0.00  0.00    +0.022 A 
ATOM     31  C   UNL     1       1.948  -5.077  10.391  0.00  0.00    +0.065 A 
ATOM     32 CL   UNL     1       1.450  -6.671   9.916  0.00  0.00    -0.081 Cl
ENDBRANCH  22  26
ENDBRANCH   7  16
BRANCH   1  34
ATOM     33  C   UNL     1      -0.017   1.425   0.010  0.00  0.00    +0.277 C 
ATOM     34  O   UNL     1       0.002  -0.004   0.002  0.00  0.00    -0.495 OA
ENDBRANCH   1  34
TORSDOF 3
