REMARK  Name = ZINC10960067
REMARK  11 active torsions:
REMARK  status: ('A' for Active; 'I' for Inactive)
REMARK    1  A    between atoms: C_1  and  C_2
REMARK    2  A    between atoms: C_5  and  C_8
REMARK    3  A    between atoms: N_14  and  C_15
REMARK    4  A    between atoms: C_15  and  C_16
REMARK    5  A    between atoms: C_16  and  C_17
REMARK    6  A    between atoms: N_19  and  C_20
REMARK    7  A    between atoms: C_20  and  C_22
REMARK    8  A    between atoms: C_20  and  C_26
REMARK    9  A    between atoms: C_22  and  C_23
REMARK   10  A    between atoms: C_23  and  C_24
REMARK   11  A    between atoms: C_23  and  C_25
REMARK                            x       y       z     vdW  Elec       q    Type
REMARK                         _______ _______ _______ _____ _____    ______ ____
ROOT
ATOM      1  C   UNL     1      -0.985  -3.660   4.276  0.00  0.00    +0.215 C 
ATOM      2  O   UNL     1       0.065  -3.152   4.609  0.00  0.00    -0.276 OA
ATOM      3  N   UNL     1      -1.998  -3.755   5.160  0.00  0.00    -0.305 N 
ATOM      4  H   UNL     1      -2.861  -4.095   4.875  0.00  0.00    +0.149 HD
ENDROOT
BRANCH   1   5
ATOM      5  C   UNL     1      -1.157  -4.184   2.873  0.00  0.00    +0.117 C 
BRANCH   5   6
ATOM      6  C   UNL     1       0.131  -3.954   2.081  0.00  0.00    +0.135 C 
BRANCH   6  13
ATOM      7  C   UNL     1      -0.490  -3.510  -0.336  0.00  0.00    +0.163 A 
ATOM      8  N   UNL     1      -0.559  -4.205  -1.437  0.00  0.00    -0.153 NA
ATOM      9  N   UNL     1      -0.193  -5.525  -1.141  0.00  0.00    -0.254 N 
ATOM     10  H   UNL     1      -0.152  -6.263  -1.769  0.00  0.00    +0.191 HD
ATOM     11  C   UNL     1       0.095  -5.581   0.176  0.00  0.00    +0.176 A 
ATOM     12  S   UNL     1       0.597  -6.969   1.042  0.00  0.00    -0.011 S 
ATOM     13  N   UNL     1      -0.078  -4.345   0.685  0.00  0.00    -0.303 N 
BRANCH   7  18
ATOM     14  C   UNL     1      -1.674   2.099   0.181  0.00  0.00    +0.044 C 
ATOM     15  C   UNL     1      -1.364   0.630   0.046  0.00  0.00    -0.050 A 
ATOM     16  C   UNL     1      -1.338  -0.175   1.170  0.00  0.00    +0.004 A 
ATOM     17  C   UNL     1      -1.055  -1.520   1.053  0.00  0.00    +0.012 A 
ATOM     18  C   UNL     1      -0.794  -2.068  -0.203  0.00  0.00    +0.019 A 
ATOM     19  C   UNL     1      -0.822  -1.251  -1.333  0.00  0.00    +0.012 A 
ATOM     20  C   UNL     1      -1.112   0.092  -1.204  0.00  0.00    +0.004 A 
ENDBRANCH   7  18
ENDBRANCH   6  13
ENDBRANCH   5   6
ENDBRANCH   1   5
BRANCH   3  21
ATOM     21  C   UNL     1      -1.796  -3.345   6.552  0.00  0.00    +0.139 C 
BRANCH  21  22
ATOM     22  C   UNL     1      -2.737  -4.114   7.443  0.00  0.00    +0.129 A 
ATOM     23  N   UNL     1      -3.559  -5.115   7.029  0.00  0.00    -0.340 N 
ATOM     24  H   UNL     1      -3.642  -5.454   6.124  0.00  0.00    +0.167 HD
ATOM     25  C   UNL     1      -4.254  -5.560   8.136  0.00  0.00    +0.066 A 
ATOM     26  C   UNL     1      -5.215  -6.540   8.345  0.00  0.00    +0.028 A 
ATOM     27  C   UNL     1      -5.723  -6.739   9.611  0.00  0.00    +0.002 A 
ATOM     28  C   UNL     1      -5.280  -5.968  10.676  0.00  0.00    +0.002 A 
ATOM     29  C   UNL     1      -4.335  -5.000  10.489  0.00  0.00    +0.030 A 
ATOM     30  C   UNL     1      -3.805  -4.780   9.215  0.00  0.00    +0.089 A 
ATOM     31  N   UNL     1      -2.876  -3.921   8.723  0.00  0.00    -0.231 NA
ENDBRANCH  21  22
BRANCH  21  32
ATOM     32  C   UNL     1      -2.075  -1.847   6.688  0.00  0.00    +0.033 C 
BRANCH  32  33
ATOM     33  C   UNL     1      -1.713  -1.387   8.101  0.00  0.00    -0.015 C 
ATOM     34  C   UNL     1      -0.211  -1.567   8.327  0.00  0.00    +0.007 C 
ATOM     35  C   UNL     1      -2.080   0.089   8.267  0.00  0.00    +0.007 C 
ENDBRANCH  32  33
ENDBRANCH  21  32
ENDBRANCH   3  21
TORSDOF 8
