REMARK  Name = ZINC48554690
REMARK  2 active torsions:
REMARK  status: ('A' for Active; 'I' for Inactive)
REMARK    1  A    between atoms: N_13  and  S_16
REMARK    2  A    between atoms: S_16  and  N_19
REMARK                            x       y       z     vdW  Elec       q    Type
REMARK                         _______ _______ _______ _____ _____    ______ ____
ROOT
ATOM      1  C   UNL     1      -0.017   1.366   0.010  0.00  0.00    +0.002 A 
ATOM      2  C   UNL     1       1.156   2.107   0.002  0.00  0.00    +0.001 A 
ATOM      3  C   UNL     1       2.373   1.449  -0.013  0.00  0.00    +0.017 A 
ATOM      4  C   UNL     1       2.401   0.077  -0.020  0.00  0.00    +0.041 A 
ATOM      5  C   UNL     1       1.227  -0.710  -0.013  0.00  0.00    +0.080 A 
ATOM      6  C   UNL     1       0.002  -0.004   0.002  0.00  0.00    +0.029 A 
ATOM      7  N   UNL     1       1.419  -2.047  -0.023  0.00  0.00    -0.225 NA
ATOM      8  C   UNL     1       2.616  -2.588  -0.037  0.00  0.00    +0.162 A 
ATOM      9  S   UNL     1       3.682  -1.153  -0.040  0.00  0.00    -0.052 S 
ATOM     10  N   UNL     1       2.963  -3.924  -0.048  0.00  0.00    -0.307 N 
ATOM     11  C   UNL     1       1.926  -4.965  -0.050  0.00  0.00    +0.124 C 
ATOM     12  C   UNL     1       2.161  -5.889  -1.252  0.00  0.00    +0.129 C 
ATOM     13  N   UNL     1       3.574  -6.295  -1.262  0.00  0.00    -0.164 NA
ATOM     14  C   UNL     1       4.610  -5.254  -1.260  0.00  0.00    +0.129 C 
ATOM     15  C   UNL     1       4.375  -4.330  -0.064  0.00  0.00    +0.124 C 
ENDROOT
BRANCH  13  16
ATOM     16  S   UNL     1       3.989  -7.898  -1.275  0.00  0.00    +0.095 S 
ATOM     17  O   UNL     1       5.300  -7.982  -0.732  0.00  0.00    -0.141 OA
ATOM     18  O   UNL     1       2.889  -8.608  -0.723  0.00  0.00    -0.141 OA
BRANCH  16  19
ATOM     19  N   UNL     1       4.104  -8.361  -2.861  0.00  0.00    -0.193 NA
ATOM     20  H   UNL     1       3.934  -7.719  -3.567  0.00  0.00    +0.145 HD
ATOM     21  H   UNL     1       4.340  -9.276  -3.083  0.00  0.00    +0.145 HD
ENDBRANCH  16  19
ENDBRANCH  13  16
TORSDOF 2
