REMARK  Name = ZINC03839706
REMARK  11 active torsions:
REMARK  status: ('A' for Active; 'I' for Inactive)
REMARK    1  A    between atoms: C_1  and  C_2
REMARK    2  A    between atoms: C_2  and  C_3
REMARK    3  A    between atoms: C_2  and  C_4
REMARK    4  A    between atoms: C_4  and  C_5
REMARK    5  A    between atoms: C_5  and  C_7
REMARK    6  A    between atoms: C_5  and  N_10
REMARK    7  A    between atoms: C_11  and  C_13
REMARK    8  A    between atoms: C_15  and  O_24
REMARK    9  A    between atoms: C_17  and  O_23
REMARK   10  A    between atoms: C_19  and  O_22
REMARK   11  A    between atoms: O_24  and  C_25
REMARK                            x       y       z     vdW  Elec       q    Type
REMARK                         _______ _______ _______ _____ _____    ______ ____
ROOT
ATOM      1  C   UNL     1       0.075   0.116  -3.347  0.00  0.00    +0.016 C 
ATOM      2  C   UNL     1      -1.208   0.317  -3.138  0.00  0.00    +0.028 C 
ATOM      3  C   UNL     1      -1.856   0.242  -1.786  0.00  0.00    +0.228 C 
ATOM      4  C   UNL     1      -0.943  -0.495  -0.805  0.00  0.00    +0.188 C 
ATOM      5  C   UNL     1       0.461   0.117  -0.892  0.00  0.00    +0.151 C 
ATOM      6  C   UNL     1       1.055  -0.223  -2.261  0.00  0.00    +0.074 C 
ENDROOT
BRANCH   1   8
ATOM      7  N   UNL     1       1.888   0.032  -4.981  0.00  0.00    -0.300 N 
ATOM      8  C   UNL     1       0.580   0.230  -4.724  0.00  0.00    +0.241 C 
ATOM      9  O   UNL     1      -0.183   0.503  -5.630  0.00  0.00    -0.271 OA
ATOM     10  H   UNL     1       2.497  -0.186  -4.258  0.00  0.00    +0.150 HD
BRANCH   7  11
ATOM     11  C   UNL     1       2.391   0.145  -6.352  0.00  0.00    +0.159 C 
BRANCH  11  12
ATOM     12  C   UNL     1       2.698   1.589  -6.657  0.00  0.00    +0.231 C 
ATOM     13  O   UNL     1       2.515   2.439  -5.812  0.00  0.00    -0.274 OA
ATOM     14  N   UNL     1       3.176   1.935  -7.869  0.00  0.00    -0.328 N 
ATOM     15  H   UNL     1       3.322   1.254  -8.545  0.00  0.00    +0.145 HD
ATOM     16  H   UNL     1       3.373   2.864  -8.065  0.00  0.00    +0.145 HD
ENDBRANCH  11  12
BRANCH  11  17
ATOM     17  C   UNL     1       3.664  -0.690  -6.499  0.00  0.00    +0.034 C 
BRANCH  17  19
ATOM     18  C   UNL     1       2.426  -2.624  -7.483  0.00  0.00    +0.007 C 
ATOM     19  C   UNL     1       3.325  -2.172  -6.330  0.00  0.00    -0.015 C 
ATOM     20  C   UNL     1       4.616  -2.994  -6.337  0.00  0.00    +0.007 C 
ENDBRANCH  17  19
ENDBRANCH  11  17
ENDBRANCH   7  11
ENDBRANCH   1   8
BRANCH   5  21
ATOM     21  O   UNL     1       0.377   1.535  -0.743  0.00  0.00    -0.389 OA
ATOM     22  H   UNL     1       1.229   1.989  -0.803  0.00  0.00    +0.210 HD
ENDBRANCH   5  21
BRANCH   4  23
ATOM     23  O   UNL     1      -1.448  -0.349   0.524  0.00  0.00    -0.385 OA
ATOM     24  H   UNL     1      -0.908  -0.781   1.200  0.00  0.00    +0.210 HD
ENDBRANCH   4  23
BRANCH   3  25
ATOM     25  O   UNL     1      -3.096  -0.459  -1.894  0.00  0.00    -0.481 OA
BRANCH  25  26
ATOM     26  C   UNL     1      -4.181   0.261  -2.284  0.00  0.00    +0.136 A 
ATOM     27  C   UNL     1      -4.024   1.603  -2.645  0.00  0.00    +0.047 A 
ATOM     28  C   UNL     1      -5.090   2.349  -3.040  0.00  0.00    +0.012 A 
ATOM     29  C   UNL     1      -6.370   1.768  -3.088  0.00  0.00    -0.017 A 
ATOM     30  C   UNL     1      -7.492   2.511  -3.491  0.00  0.00    +0.008 A 
ATOM     31  C   UNL     1      -8.716   1.916  -3.527  0.00  0.00    +0.001 A 
ATOM     32  C   UNL     1      -8.875   0.579  -3.167  0.00  0.00    +0.001 A 
ATOM     33  C   UNL     1      -7.811  -0.171  -2.771  0.00  0.00    +0.010 A 
ATOM     34  C   UNL     1      -6.531   0.408  -2.722  0.00  0.00    -0.000 A 
ATOM     35  C   UNL     1      -5.409  -0.337  -2.324  0.00  0.00    +0.067 A 
ATOM     36 BR   UNL     1      -5.597  -2.155  -1.838  0.00  0.00    -0.046 Br
ENDBRANCH  25  26
ENDBRANCH   3  25
TORSDOF 9
