REMARK  Name = ZINC36983952
REMARK  4 active torsions:
REMARK  status: ('A' for Active; 'I' for Inactive)
REMARK    1  A    between atoms: C_2  and  S_10
REMARK    2  A    between atoms: C_5  and  C_6
REMARK    3  A    between atoms: S_10  and  N_13
REMARK    4  A    between atoms: N_13  and  C_14
REMARK                            x       y       z     vdW  Elec       q    Type
REMARK                         _______ _______ _______ _____ _____    ______ ____
ROOT
ATOM      1  S   UNL     1       1.373   3.884  -0.037  0.00  0.00    +0.060 S 
ATOM      2  O   UNL     1       0.062   4.412   0.110  0.00  0.00    -0.153 OA
ATOM      3  O   UNL     1       1.614   2.543  -0.440  0.00  0.00    -0.153 OA
ENDROOT
BRANCH   1   5
ATOM      4  C   UNL     1       2.884   4.367  -2.255  0.00  0.00    +0.052 A 
ATOM      5  C   UNL     1       2.205   4.916  -1.197  0.00  0.00    +0.127 A 
ATOM      6  C   UNL     1       2.182   6.268  -1.057  0.00  0.00    +0.082 A 
ATOM      7  S   UNL     1       3.082   6.833  -2.358  0.00  0.00    -0.073 S 
ATOM      8  C   UNL     1       3.504   5.272  -3.109  0.00  0.00    +0.103 A 
ATOM      9 BR   UNL     1       1.330   7.282   0.293  0.00  0.00    -0.041 Br
BRANCH   8  10
ATOM     10  C   UNL     1       4.271   5.019  -4.273  0.00  0.00    +0.393 C 
ATOM     11  O   UNL     1       4.459   3.867  -4.644  0.00  0.00    -0.240 OA
ATOM     12  O   UNL     1       4.745   5.953  -4.909  0.00  0.00    -0.240 OA
ENDBRANCH   8  10
ENDBRANCH   1   5
BRANCH   1  13
ATOM     13  N   UNL     1       2.129   4.082   1.424  0.00  0.00    -0.185 NA
ATOM     14  H   UNL     1       1.643   4.459   2.174  0.00  0.00    +0.148 HD
BRANCH  13  15
ATOM     15  C   UNL     1       3.530   3.686   1.583  0.00  0.00    +0.099 C 
ATOM     16  C   UNL     1       3.606   2.280   2.203  0.00  0.00    +0.044 C 
ATOM     17  C   UNL     1       5.053   1.986   2.668  0.00  0.00    +0.167 C 
ATOM     18  S   UNL     1       5.706   3.664   3.042  0.00  0.00    -0.029 S 
ATOM     19  O   UNL     1       6.788   3.945   2.166  0.00  0.00    -0.174 OA
ATOM     20  O   UNL     1       5.892   3.784   4.446  0.00  0.00    -0.174 OA
ATOM     21  C   UNL     1       4.250   4.677   2.542  0.00  0.00    +0.186 C 
ENDBRANCH  13  15
ENDBRANCH   1  13
TORSDOF 4
