REMARK  Name = ZINC36499269
REMARK  12 active torsions:
REMARK  status: ('A' for Active; 'I' for Inactive)
REMARK    1  A    between atoms: C_1  and  C_2
REMARK    2  A    between atoms: C_5  and  S_8
REMARK    3  A    between atoms: S_8  and  C_11
REMARK    4  A    between atoms: C_11  and  N_12
REMARK    5  A    between atoms: C_13  and  C_15
REMARK    6  A    between atoms: C_15  and  C_17
REMARK    7  A    between atoms: C_15  and  N_26
REMARK    8  A    between atoms: C_18  and  O_25
REMARK    9  A    between atoms: C_20  and  O_24
REMARK   10  A    between atoms: C_22  and  O_23
REMARK   11  A    between atoms: N_26  and  C_27
REMARK   12  A    between atoms: C_27  and  C_28
REMARK                            x       y       z     vdW  Elec       q    Type
REMARK                         _______ _______ _______ _____ _____    ______ ____
ROOT
ATOM      1  C   UNL     1       2.982  -5.033   3.401  0.00  0.00    +0.199 C 
ENDROOT
BRANCH   1   2
ATOM      2  C   UNL     1       4.488  -5.079   3.357  0.00  0.00    +0.065 A 
ATOM      3  C   UNL     1       5.142  -5.207   2.141  0.00  0.00    +0.129 A 
ATOM      4  C   UNL     1       6.528  -5.250   2.100  0.00  0.00    +0.091 A 
ATOM      5  C   UNL     1       7.259  -5.164   3.275  0.00  0.00    +0.124 A 
ATOM      6  C   UNL     1       6.605  -5.036   4.491  0.00  0.00    +0.091 A 
ATOM      7  C   UNL     1       5.220  -4.989   4.531  0.00  0.00    +0.129 A 
BRANCH   7   8
ATOM      8  O   UNL     1       4.579  -4.858   5.723  0.00  0.00    -0.506 OA
ATOM      9  H   UNL     1       4.369  -5.700   6.150  0.00  0.00    +0.292 HD
ENDBRANCH   7   8
BRANCH   5  10
ATOM     10  O   UNL     1       8.617  -5.207   3.235  0.00  0.00    -0.507 OA
ATOM     11  H   UNL     1       9.035  -4.340   3.144  0.00  0.00    +0.292 HD
ENDBRANCH   5  10
BRANCH   3  12
ATOM     12  O   UNL     1       4.426  -5.290   0.989  0.00  0.00    -0.506 OA
ATOM     13  H   UNL     1       4.320  -4.446   0.529  0.00  0.00    +0.292 HD
ENDBRANCH   3  12
ENDBRANCH   1   2
BRANCH   1  15
ATOM     14  N   UNL     1       2.395  -4.471   1.065  0.00  0.00    -0.294 N 
ATOM     15  C   UNL     1       2.429  -5.394   2.047  0.00  0.00    +0.240 C 
ATOM     16  O   UNL     1       2.014  -6.514   1.840  0.00  0.00    -0.273 OA
ATOM     17  H   UNL     1       2.727  -3.574   1.230  0.00  0.00    +0.150 HD
BRANCH  14  18
ATOM     18  C   UNL     1       1.856  -4.821  -0.251  0.00  0.00    +0.278 C 
BRANCH  18  19
ATOM     19  S   UNL     1       0.108  -4.346  -0.336  0.00  0.00    +0.013 S 
ATOM     20  O   UNL     1      -0.576  -4.786   0.829  0.00  0.00    -0.168 OA
ATOM     21  O   UNL     1      -0.413  -4.621  -1.629  0.00  0.00    -0.168 OA
BRANCH  19  26
ATOM     22  C   UNL     1       0.114   1.675   0.067  0.00  0.00    +0.044 C 
ATOM     23  C   UNL     1       0.113   0.171  -0.033  0.00  0.00    -0.050 A 
ATOM     24  C   UNL     1       0.192  -0.439  -1.271  0.00  0.00    +0.005 A 
ATOM     25  C   UNL     1       0.191  -1.818  -1.364  0.00  0.00    +0.027 A 
ATOM     26  C   UNL     1       0.111  -2.587  -0.218  0.00  0.00    +0.090 A 
ATOM     27  C   UNL     1       0.032  -1.978   1.020  0.00  0.00    +0.027 A 
ATOM     28  C   UNL     1       0.037  -0.598   1.113  0.00  0.00    +0.005 A 
ENDBRANCH  19  26
ENDBRANCH  18  19
ENDBRANCH  14  18
ENDBRANCH   1  15
BRANCH   1  29
ATOM     29  N   UNL     1       2.494  -5.988   4.399  0.00  0.00    -0.281 N 
ATOM     30  C   UNL     1       2.879  -7.278   4.342  0.00  0.00    +0.329 C 
ATOM     31  O   UNL     1       3.562  -7.667   3.418  0.00  0.00    -0.279 OA
BRANCH  29  32
ATOM     32  C   UNL     1       1.586  -5.541   5.458  0.00  0.00    +0.182 C 
BRANCH  32  33
ATOM     33  C   UNL     1       0.160  -5.683   4.992  0.00  0.00    +0.122 A 
ATOM     34  C   UNL     1      -0.616  -6.770   5.155  0.00  0.00    +0.046 A 
ATOM     35  C   UNL     1      -1.868  -6.471   4.570  0.00  0.00    +0.041 A 
ATOM     36  C   UNL     1      -1.782  -5.220   4.084  0.00  0.00    +0.195 A 
ATOM     37  O   UNL     1      -0.553  -4.745   4.347  0.00  0.00    -0.466 OA
ENDBRANCH  32  33
ENDBRANCH  29  32
ENDBRANCH   1  29
TORSDOF 11
