REMARK  Name = ZINC67090147
REMARK  4 active torsions:
REMARK  status: ('A' for Active; 'I' for Inactive)
REMARK    1  A    between atoms: C_3  and  N_9
REMARK    2  A    between atoms: C_6  and  C_7
REMARK    3  A    between atoms: C_12  and  N_15
REMARK    4  A    between atoms: N_18  and  N_19
REMARK                            x       y       z     vdW  Elec       q    Type
REMARK                         _______ _______ _______ _____ _____    ______ ____
ROOT
ATOM      1  N   UNL     1       6.687   3.785  -2.211  0.00  0.00    -0.295 N 
ATOM      2  C   UNL     1       7.378   4.935  -2.079  0.00  0.00    +0.316 C 
ATOM      3  O   UNL     1       7.308   5.571  -1.045  0.00  0.00    -0.251 OA
ATOM      4  N   UNL     1       8.147   5.380  -3.093  0.00  0.00    -0.219 N 
ATOM      5  H   UNL     1       6.743   3.278  -3.035  0.00  0.00    +0.151 HD
ATOM      6  H   UNL     1       8.644   6.207  -2.998  0.00  0.00    +0.174 HD
ENDROOT
BRANCH   4   7
ATOM      7  N   UNL     1       8.228   4.646  -4.284  0.00  0.00    -0.246 N 
ATOM      8  C   UNL     1       9.021   5.105  -5.330  0.00  0.00    +0.157 A 
ATOM      9  C   UNL     1       9.099   4.380  -6.520  0.00  0.00    +0.050 A 
ATOM     10  C   UNL     1       9.903   4.880  -7.532  0.00  0.00    +0.045 A 
ATOM     11  C   UNL     1      10.581   6.070  -7.300  0.00  0.00    +0.152 A 
ATOM     12  N   UNL     1      10.449   6.689  -6.143  0.00  0.00    -0.136 NA
ATOM     13  N   UNL     1       9.701   6.235  -5.204  0.00  0.00    -0.132 NA
ATOM     14 CL   UNL     1      11.603   6.742  -8.532  0.00  0.00    -0.060 Cl
ATOM     15  H   UNL     1       7.731   3.819  -4.379  0.00  0.00    +0.172 HD
ENDBRANCH   4   7
BRANCH   1  19
ATOM     16  N   UNL     1       3.578   2.018  -0.022  0.00  0.00    -0.315 N 
ATOM     17  C   UNL     1       4.847   1.278  -0.044  0.00  0.00    +0.108 C 
ATOM     18  C   UNL     1       5.692   1.784  -1.217  0.00  0.00    +0.041 C 
ATOM     19  C   UNL     1       5.852   3.302  -1.109  0.00  0.00    +0.077 C 
ATOM     20  C   UNL     1       4.476   3.968  -1.182  0.00  0.00    +0.041 C 
ATOM     21  C   UNL     1       3.617   3.487  -0.015  0.00  0.00    +0.108 C 
BRANCH  16  24
ATOM     22  C   UNL     1      -0.004   1.379   0.238  0.00  0.00    +0.024 A 
ATOM     23  C   UNL     1       1.190   2.048   0.231  0.00  0.00    +0.045 A 
ATOM     24  C   UNL     1       2.367   1.344  -0.013  0.00  0.00    +0.121 A 
ATOM     25  N   UNL     1       2.345   0.037  -0.239  0.00  0.00    -0.239 NA
ATOM     26  C   UNL     1       1.219  -0.645  -0.241  0.00  0.00    +0.131 A 
ATOM     27  C   UNL     1       0.002  -0.004  -0.003  0.00  0.00    +0.070 A 
BRANCH  27  28
ATOM     28  C   UNL     1      -1.223  -0.746  -0.005  0.00  0.00    +0.101 C 
ATOM     29  N   UNL     1      -2.194  -1.335  -0.006  0.00  0.00    -0.191 NA
ENDBRANCH  27  28
ENDBRANCH  16  24
ENDBRANCH   1  19
TORSDOF 4
