REMARK  Name = ZINC57850478
REMARK  4 active torsions:
REMARK  status: ('A' for Active; 'I' for Inactive)
REMARK    1  A    between atoms: C_8  and  C_13
REMARK    2  A    between atoms: N_9  and  C_10
REMARK    3  A    between atoms: C_10  and  C_11
REMARK    4  A    between atoms: C_11  and  O_12
REMARK                            x       y       z     vdW  Elec       q    Type
REMARK                         _______ _______ _______ _____ _____    ______ ____
ROOT
ATOM      1  C   UNL     1      -0.017   1.362   0.009  0.00  0.00    +0.002 A 
ATOM      2  C   UNL     1       1.167   2.086   0.002  0.00  0.00    +0.002 A 
ATOM      3  C   UNL     1       2.384   1.436  -0.013  0.00  0.00    +0.028 A 
ATOM      4  C   UNL     1       2.424   0.049  -0.021  0.00  0.00    +0.069 A 
ATOM      5  C   UNL     1       1.224  -0.685  -0.013  0.00  0.00    +0.090 A 
ATOM      6  C   UNL     1       0.002  -0.004   0.002  0.00  0.00    +0.030 A 
ATOM      7  N   UNL     1       1.557  -1.998  -0.024  0.00  0.00    -0.225 NA
ATOM      8  C   UNL     1       2.865  -2.122  -0.038  0.00  0.00    +0.178 A 
ATOM      9  N   UNL     1       3.447  -0.880  -0.037  0.00  0.00    -0.319 N 
ENDROOT
BRANCH   8  10
ATOM     10  C   UNL     1       3.594  -3.398  -0.052  0.00  0.00    +0.172 A 
ATOM     11  C   UNL     1       3.064  -4.620  -0.345  0.00  0.00    +0.054 A 
ATOM     12  C   UNL     1       4.111  -5.552  -0.239  0.00  0.00    +0.057 A 
ATOM     13  C   UNL     1       5.220  -4.864   0.110  0.00  0.00    +0.171 A 
ATOM     14  O   UNL     1       4.905  -3.565   0.216  0.00  0.00    -0.445 OA
ATOM     15 BR   UNL     1       6.935  -5.609   0.393  0.00  0.00    -0.008 Br
ENDBRANCH   8  10
BRANCH   9  16
ATOM     16  C   UNL     1       4.883  -0.593  -0.050  0.00  0.00    +0.151 C 
BRANCH  16  17
ATOM     17  C   UNL     1       5.398  -0.500   1.388  0.00  0.00    +0.177 C 
BRANCH  17  18
ATOM     18  O   UNL     1       6.799  -0.220   1.375  0.00  0.00    -0.393 OA
ATOM     19  H   UNL     1       7.194  -0.147   2.255  0.00  0.00    +0.209 HD
ENDBRANCH  17  18
ENDBRANCH  16  17
ENDBRANCH   9  16
TORSDOF 4
