REMARK  Name = ZINC28376396
REMARK  11 active torsions:
REMARK  status: ('A' for Active; 'I' for Inactive)
REMARK    1  A    between atoms: C_1  and  C_2
REMARK    2  A    between atoms: C_2  and  N_3
REMARK    3  A    between atoms: C_4  and  C_6
REMARK    4  A    between atoms: C_6  and  O_7
REMARK    5  A    between atoms: O_7  and  C_8
REMARK    6  A    between atoms: C_11  and  N_14
REMARK    7  A    between atoms: N_14  and  C_15
REMARK    8  A    between atoms: C_15  and  C_17
REMARK    9  A    between atoms: C_15  and  C_18
REMARK   10  A    between atoms: N_20  and  C_21
REMARK   11  A    between atoms: C_21  and  C_27
REMARK                            x       y       z     vdW  Elec       q    Type
REMARK                         _______ _______ _______ _____ _____    ______ ____
ROOT
ATOM      1  N   UNL     1      -0.721   1.571  -1.179  0.00  0.00    -0.333 N 
ATOM      2  H   UNL     1      -1.336   2.482  -1.119  0.00  0.00    +0.147 HD
ENDROOT
BRANCH   1   6
ATOM      3  C   UNL     1      -0.410  -0.498  -4.784  0.00  0.00    +0.121 A 
ATOM      4  C   UNL     1      -1.184   0.650  -4.708  0.00  0.00    +0.047 A 
ATOM      5  C   UNL     1      -1.288   1.336  -3.514  0.00  0.00    +0.026 A 
ATOM      6  C   UNL     1      -0.617   0.876  -2.389  0.00  0.00    +0.028 A 
ATOM      7  C   UNL     1       0.163  -0.270  -2.467  0.00  0.00    +0.026 A 
ATOM      8  C   UNL     1       0.261  -0.958  -3.660  0.00  0.00    +0.047 A 
BRANCH   3   9
ATOM      9  O   UNL     1      -0.308  -1.174  -5.960  0.00  0.00    -0.483 OA
BRANCH   9  10
ATOM     10  C   UNL     1       0.506  -2.348  -5.965  0.00  0.00    +0.324 C 
BRANCH  10  12
ATOM     11  N   UNL     1       1.203  -4.081  -7.587  0.00  0.00    -0.313 N 
ATOM     12  C   UNL     1       0.499  -2.958  -7.344  0.00  0.00    +0.251 C 
ATOM     13  O   UNL     1      -0.140  -2.438  -8.233  0.00  0.00    -0.272 OA
ATOM     14  H   UNL     1       1.783  -4.552  -6.780  0.00  0.00    +0.149 HD
BRANCH  11  16
ATOM     15  C   UNL     1       2.068  -5.931  -8.933  0.00  0.00    +0.024 C 
ATOM     16  C   UNL     1       1.196  -4.673  -8.927  0.00  0.00    +0.101 C 
ENDBRANCH  11  16
ENDBRANCH  10  12
ENDBRANCH   9  10
ENDBRANCH   3   9
ENDBRANCH   1   6
BRANCH   1  17
ATOM     17  C   UNL     1      -0.013   1.086   0.008  0.00  0.00    +0.154 C 
ATOM     18  C   UNL     1       1.423   1.615  -0.003  0.00  0.00    +0.038 C 
BRANCH  17  19
ATOM     19  C   UNL     1      -0.718   1.572   1.248  0.00  0.00    +0.234 C 
ATOM     20  O   UNL     1      -1.714   2.256   1.150  0.00  0.00    -0.274 OA
ATOM     21  N   UNL     1      -0.242   1.246   2.466  0.00  0.00    -0.296 N 
ATOM     22  H   UNL     1       0.662   0.625   2.555  0.00  0.00    +0.150 HD
BRANCH  21  23
ATOM     23  C   UNL     1      -0.927   1.718   3.671  0.00  0.00    +0.121 C 
ATOM     24  C   UNL     1      -0.948   3.248   3.679  0.00  0.00    +0.041 C 
ATOM     25  C   UNL     1      -1.664   3.742   4.938  0.00  0.00    +0.003 C 
ATOM     26  C   UNL     1      -0.924   3.235   6.178  0.00  0.00    +0.000 C 
ATOM     27  C   UNL     1      -0.903   1.705   6.169  0.00  0.00    +0.003 C 
ATOM     28  C   UNL     1      -0.187   1.212   4.911  0.00  0.00    +0.041 C 
BRANCH  23  29
ATOM     29  C   UNL     1      -2.308   1.209   3.682  0.00  0.00    +0.088 C 
ATOM     30  N   UNL     1      -3.374   0.816   3.690  0.00  0.00    -0.194 NA
ENDBRANCH  23  29
ENDBRANCH  21  23
ENDBRANCH  17  19
ENDBRANCH   1  17
TORSDOF 9
