REMARK  Name = ZINC15015815
REMARK  6 active torsions:
REMARK  status: ('A' for Active; 'I' for Inactive)
REMARK    1  A    between atoms: C_1  and  C_2
REMARK    2  A    between atoms: N_7  and  C_8
REMARK    3  A    between atoms: C_8  and  C_10
REMARK    4  A    between atoms: C_8  and  C_19
REMARK    5  A    between atoms: C_14  and  N_16
REMARK    6  A    between atoms: C_28  and  O_29
REMARK                            x       y       z     vdW  Elec       q    Type
REMARK                         _______ _______ _______ _____ _____    ______ ____
ROOT
ATOM      1  C   UNL     1      -0.070   5.347   0.030  0.00  0.00    +0.136 C 
ENDROOT
BRANCH   1   8
ATOM      2  C   UNL     1       2.474   5.664   4.467  0.00  0.00    +0.044 C 
ATOM      3  C   UNL     1       1.057   5.933   4.028  0.00  0.00    -0.046 A 
ATOM      4  C   UNL     1       0.105   6.377   4.936  0.00  0.00    +0.021 A 
ATOM      5  C   UNL     1      -1.184   6.613   4.503  0.00  0.00    +0.084 A 
ATOM      6  C   UNL     1      -0.641   6.001   2.345  0.00  0.00    +0.097 A 
ATOM      7  C   UNL     1       0.676   5.742   2.712  0.00  0.00    +0.045 A 
ATOM      8  N   UNL     1      -1.038   5.814   1.026  0.00  0.00    -0.320 N 
ATOM      9  H   UNL     1      -1.954   5.993   0.765  0.00  0.00    +0.148 HD
ATOM     10  N   UNL     1      -1.592   6.443   3.217  0.00  0.00    -0.350 N 
ATOM     11  H   UNL     1      -2.557   6.636   2.921  0.00  0.00    +0.166 HD
ENDBRANCH   1   8
BRANCH   1  12
ATOM     12  C   UNL     1      -0.515   5.782  -1.343  0.00  0.00    +0.021 A 
ATOM     13  C   UNL     1      -1.870   5.975  -1.596  0.00  0.00    +0.010 A 
ATOM     14  C   UNL     1      -2.304   6.367  -2.826  0.00  0.00    +0.010 A 
ATOM     15  C   UNL     1      -1.374   6.582  -3.857  0.00  0.00    +0.004 A 
ATOM     16  C   UNL     1      -1.784   6.987  -5.141  0.00  0.00    +0.011 A 
ATOM     17  C   UNL     1      -0.825   7.177  -6.094  0.00  0.00    +0.020 A 
ATOM     18  C   UNL     1       0.516   6.967  -5.781  0.00  0.00    +0.111 A 
ATOM     19  N   UNL     1       0.894   6.589  -4.584  0.00  0.00    -0.251 NA
ATOM     20  C   UNL     1       0.006   6.387  -3.607  0.00  0.00    +0.113 A 
ATOM     21  C   UNL     1       0.419   5.985  -2.319  0.00  0.00    +0.148 A 
BRANCH  21  22
ATOM     22  O   UNL     1       1.738   5.797  -2.052  0.00  0.00    -0.504 OA
ATOM     23  H   UNL     1       2.048   4.896  -2.220  0.00  0.00    +0.292 HD
ENDBRANCH  21  22
ENDBRANCH   1  12
BRANCH   1  24
ATOM     24  C   UNL     1       0.014   3.843   0.078  0.00  0.00    -0.021 A 
ATOM     25  C   UNL     1      -1.134   3.092   0.249  0.00  0.00    +0.006 A 
ATOM     26  C   UNL     1      -1.057   1.712   0.287  0.00  0.00    +0.003 A 
ATOM     27  C   UNL     1       0.169   1.084   0.166  0.00  0.00    +0.033 A 
ATOM     28  C   UNL     1       1.316   1.836  -0.005  0.00  0.00    +0.127 A 
ATOM     29  C   UNL     1       1.239   3.215  -0.049  0.00  0.00    +0.038 A 
BRANCH  28  30
ATOM     30  N   UNL     1       2.627   1.163  -0.141  0.00  0.00    +0.056 N 
ATOM     31  O   UNL     1       2.696  -0.052  -0.103  0.00  0.00    -0.126 OA
ATOM     32  O   UNL     1       3.639   1.825  -0.292  0.00  0.00    -0.126 OA
ENDBRANCH  28  30
ENDBRANCH   1  24
TORSDOF 5
