REMARK  Name = ZINC00706412
REMARK  9 active torsions:
REMARK  status: ('A' for Active; 'I' for Inactive)
REMARK    1  A    between atoms: C_1  and  C_2
REMARK    2  A    between atoms: C_3  and  C_20
REMARK    3  A    between atoms: C_4  and  C_10
REMARK    4  A    between atoms: C_12  and  O_18
REMARK    5  A    between atoms: C_13  and  O_17
REMARK    6  A    between atoms: O_18  and  C_19
REMARK    7  A    between atoms: C_20  and  O_22
REMARK    8  A    between atoms: O_22  and  C_23
REMARK    9  A    between atoms: C_23  and  C_24
REMARK                            x       y       z     vdW  Elec       q    Type
REMARK                         _______ _______ _______ _____ _____    ______ ____
ROOT
ATOM      1  C   UNL     1      -0.274   1.888  -0.139  0.00  0.00    +0.061 C 
ATOM      2  C   UNL     1      -0.933   1.840   1.216  0.00  0.00    +0.021 C 
ATOM      3  C   UNL     1      -0.166   1.824   2.327  0.00  0.00    +0.078 C 
ATOM      4  C   UNL     1      -0.869   1.776   3.668  0.00  0.00    +0.144 C 
ATOM      5  N   UNL     1      -2.341   1.749   3.649  0.00  0.00    -0.288 N 
ATOM      6  C   UNL     1      -2.968   1.769   2.456  0.00  0.00    +0.304 C 
ATOM      7  O   UNL     1      -4.183   1.748   2.430  0.00  0.00    -0.252 OA
ATOM      8  N   UNL     1      -2.296   1.818   1.299  0.00  0.00    -0.273 N 
ATOM      9  H   UNL     1      -2.848   1.718   4.476  0.00  0.00    +0.151 HD
ATOM     10  H   UNL     1      -2.805   1.834   0.474  0.00  0.00    +0.156 HD
ENDROOT
BRANCH   4  11
ATOM     11  C   UNL     1      -0.436   2.981   4.463  0.00  0.00    -0.018 A 
ATOM     12  C   UNL     1      -0.869   4.241   4.096  0.00  0.00    +0.055 A 
ATOM     13  C   UNL     1      -0.472   5.350   4.825  0.00  0.00    +0.163 A 
ATOM     14  C   UNL     1       0.361   5.192   5.928  0.00  0.00    +0.173 A 
ATOM     15  C   UNL     1       0.791   3.926   6.292  0.00  0.00    +0.063 A 
ATOM     16  C   UNL     1       0.387   2.822   5.562  0.00  0.00    +0.025 A 
ATOM     17 BR   UNL     1       1.923   3.705   7.791  0.00  0.00    -0.046 Br
BRANCH  14  18
ATOM     18  O   UNL     1       0.754   6.278   6.648  0.00  0.00    -0.503 OA
ATOM     19  H   UNL     1       0.160   6.502   7.377  0.00  0.00    +0.292 HD
ENDBRANCH  14  18
BRANCH  13  20
ATOM     20  O   UNL     1      -0.896   6.591   4.464  0.00  0.00    -0.491 OA
ATOM     21  C   UNL     1      -1.667   6.690   3.265  0.00  0.00    +0.277 C 
ENDBRANCH  13  20
ENDBRANCH   4  11
BRANCH   3  22
ATOM     22  C   UNL     1       1.246   1.852   2.242  0.00  0.00    +0.339 C 
ATOM     23  O   UNL     1       1.789   1.904   1.154  0.00  0.00    -0.245 OA
BRANCH  22  24
ATOM     24  O   UNL     1       1.990   1.821   3.367  0.00  0.00    -0.459 OA
BRANCH  24  25
ATOM     25  C   UNL     1       3.405   1.950   3.212  0.00  0.00    +0.264 C 
BRANCH  25  26
ATOM     26  C   UNL     1       4.086   1.763   4.570  0.00  0.00    +0.156 C 
ATOM     27  C   UNL     1       5.605   1.998   4.430  0.00  0.00    +0.037 C 
ATOM     28  C   UNL     1       6.195   0.901   5.358  0.00  0.00    +0.031 C 
ATOM     29  C   UNL     1       5.165  -0.240   5.156  0.00  0.00    +0.160 C 
ATOM     30  O   UNL     1       3.895   0.419   5.028  0.00  0.00    -0.373 OA
ENDBRANCH  25  26
ENDBRANCH  24  25
ENDBRANCH  22  24
ENDBRANCH   3  22
TORSDOF 7
