REMARK  Name = ZINC20103443
REMARK  2 active torsions:
REMARK  status: ('A' for Active; 'I' for Inactive)
REMARK    1  A    between atoms: C_12  and  N_14
REMARK    2  A    between atoms: N_14  and  N_15
REMARK                            x       y       z     vdW  Elec       q    Type
REMARK                         _______ _______ _______ _____ _____    ______ ____
ROOT
ATOM      1  C   UNL     1      -0.787   6.656   3.459  0.00  0.00    +0.224 A 
ATOM      2  N   UNL     1      -0.779   5.747   2.516  0.00  0.00    -0.234 NA
ATOM      3  C   UNL     1      -1.097   6.056   1.239  0.00  0.00    +0.093 A 
ATOM      4  C   UNL     1      -1.137   5.158   0.070  0.00  0.00    +0.037 A 
ATOM      5  C   UNL     1      -0.847   3.768   0.042  0.00  0.00    -0.029 A 
ATOM      6  C   UNL     1      -0.938   3.093  -1.131  0.00  0.00    -0.004 A 
ATOM      7  C   UNL     1      -1.309   3.773  -2.300  0.00  0.00    +0.126 A 
ATOM      8  N   UNL     1      -1.576   5.068  -2.271  0.00  0.00    -0.225 NA
ATOM      9  C   UNL     1      -1.502   5.752  -1.149  0.00  0.00    +0.113 A 
ATOM     10  S   UNL     1      -1.785   7.457  -0.740  0.00  0.00    -0.064 S 
ATOM     11  C   UNL     1      -1.431   7.394   0.995  0.00  0.00    +0.081 A 
ATOM     12  C   UNL     1      -1.427   8.329   2.020  0.00  0.00    +0.150 A 
ATOM     13  N   UNL     1      -1.099   7.921   3.246  0.00  0.00    -0.219 NA
ATOM     14  N   UNL     1      -1.397   3.080  -3.499  0.00  0.00    -0.315 N 
ATOM     15  C   UNL     1      -0.443   3.609  -4.483  0.00  0.00    +0.106 C 
ATOM     16  C   UNL     1      -0.465   2.733  -5.738  0.00  0.00    +0.019 C 
ATOM     17  C   UNL     1      -1.879   2.723  -6.324  0.00  0.00    +0.003 C 
ATOM     18  C   UNL     1      -2.859   2.215  -5.263  0.00  0.00    +0.019 C 
ATOM     19  C   UNL     1      -2.769   3.106  -4.022  0.00  0.00    +0.106 C 
ATOM     20  C   UNL     1      -0.654   1.617  -1.241  0.00  0.00    +0.039 C 
ATOM     21  C   UNL     1       0.141   1.132  -0.030  0.00  0.00    +0.005 C 
ATOM     22  C   UNL     1      -0.578   1.600   1.241  0.00  0.00    +0.005 C 
ATOM     23  C   UNL     1      -0.443   3.119   1.337  0.00  0.00    +0.036 C 
ENDROOT
BRANCH  12  24
ATOM     24  N   UNL     1      -1.758   9.653   1.776  0.00  0.00    -0.267 N 
ATOM     25  H   UNL     1      -2.027   9.974   0.759  0.00  0.00    +0.167 HD
BRANCH  24  26
ATOM     26  N   UNL     1      -1.748  10.559   2.799  0.00  0.00    -0.255 NA
ATOM     27  H   UNL     1      -2.036  11.549   2.414  0.00  0.00    +0.140 HD
ATOM     28  H   UNL     1      -2.464  10.244   3.573  0.00  0.00    +0.140 HD
ENDBRANCH  24  26
ENDBRANCH  12  24
TORSDOF 2
