REMARK  Name = ZINC48237393
REMARK  7 active torsions:
REMARK  status: ('A' for Active; 'I' for Inactive)
REMARK    1  A    between atoms: C_1  and  C_2
REMARK    2  A    between atoms: C_5  and  N_9
REMARK    3  A    between atoms: C_10  and  C_26
REMARK    4  A    between atoms: C_11  and  C_15
REMARK    5  A    between atoms: C_12  and  C_14
REMARK    6  A    between atoms: C_15  and  C_16
REMARK    7  A    between atoms: N_18  and  N_19
REMARK                            x       y       z     vdW  Elec       q    Type
REMARK                         _______ _______ _______ _____ _____    ______ ____
ROOT
ATOM      1  N   UNL     1       0.058  -4.173  -0.022  0.00  0.00    -0.236 N 
ATOM      2  C   UNL     1       0.696  -4.966   0.869  0.00  0.00    +0.046 A 
ATOM      3  C   UNL     1       0.468  -6.251   0.512  0.00  0.00    +0.005 A 
ATOM      4  C   UNL     1      -0.335  -6.245  -0.634  0.00  0.00    +0.064 A 
ATOM      5  N   UNL     1      -0.586  -5.000  -0.952  0.00  0.00    -0.171 NA
ATOM      6  C   UNL     1      -0.831  -7.462  -1.371  0.00  0.00    +0.068 C 
ATOM      7  C   UNL     1       1.513  -4.502   2.046  0.00  0.00    +0.066 C 
ENDROOT
BRANCH   1  12
ATOM      8  C   UNL     1      -0.018   1.503   0.010  0.00  0.00    +0.045 C 
ATOM      9  C   UNL     1       0.002  -0.004   0.002  0.00  0.00    -0.032 A 
ATOM     10  C   UNL     1       0.006  -0.688  -1.200  0.00  0.00    +0.007 A 
ATOM     11  C   UNL     1       0.024  -2.068  -1.211  0.00  0.00    +0.028 A 
ATOM     12  C   UNL     1       0.040  -2.771  -0.013  0.00  0.00    +0.067 A 
ATOM     13  C   UNL     1       0.036  -2.084   1.192  0.00  0.00    +0.048 A 
ATOM     14  C   UNL     1       0.023  -0.701   1.197  0.00  0.00    +0.046 A 
ATOM     15 CL   UNL     1       0.026   0.161   2.704  0.00  0.00    -0.083 Cl
ENDBRANCH   1  12
BRANCH   3  16
ATOM     16  C   UNL     1       0.988  -7.474   1.224  0.00  0.00    +0.136 C 
BRANCH  16  17
ATOM     17  C   UNL     1      -0.002  -7.902   2.276  0.00  0.00    +0.234 C 
ATOM     18  O   UNL     1      -1.029  -7.275   2.434  0.00  0.00    -0.274 OA
ATOM     19  N   UNL     1       0.253  -8.980   3.043  0.00  0.00    -0.234 N 
ATOM     20  H   UNL     1       1.074  -9.481   2.918  0.00  0.00    +0.173 HD
BRANCH  19  21
ATOM     21  N   UNL     1      -0.667  -9.377   4.022  0.00  0.00    -0.233 N 
ATOM     22  C   UNL     1      -0.405 -10.485   4.810  0.00  0.00    +0.232 A 
ATOM     23  N   UNL     1       0.724 -11.155   4.628  0.00  0.00    -0.222 NA
ATOM     24  C   UNL     1       1.005 -12.217   5.364  0.00  0.00    +0.116 A 
ATOM     25  C   UNL     1       0.102 -12.627   6.333  0.00  0.00    +0.039 A 
ATOM     26  C   UNL     1      -1.069 -11.903   6.496  0.00  0.00    +0.116 A 
ATOM     27  N   UNL     1      -1.286 -10.847   5.731  0.00  0.00    -0.222 NA
ATOM     28  H   UNL     1      -1.488  -8.876   4.148  0.00  0.00    +0.173 HD
ENDBRANCH  19  21
ENDBRANCH  16  17
ENDBRANCH   3  16
TORSDOF 4
