REMARK  Name = ZINC65395331
REMARK  8 active torsions:
REMARK  status: ('A' for Active; 'I' for Inactive)
REMARK    1  A    between atoms: C_1  and  C_2
REMARK    2  A    between atoms: C_2  and  C_3
REMARK    3  A    between atoms: C_2  and  C_4
REMARK    4  A    between atoms: C_4  and  C_5
REMARK    5  A    between atoms: C_5  and  C_7
REMARK    6  A    between atoms: C_5  and  N_13
REMARK    7  A    between atoms: N_11  and  C_12
REMARK    8  A    between atoms: C_14  and  C_16
REMARK                            x       y       z     vdW  Elec       q    Type
REMARK                         _______ _______ _______ _____ _____    ______ ____
ROOT
ATOM      1  N   UNL     1      -1.334  -0.811   2.491  0.00  0.00    -0.301 N 
ATOM      2  C   UNL     1      -2.373  -0.303   3.181  0.00  0.00    +0.250 C 
ATOM      3  O   UNL     1      -2.219   0.685   3.873  0.00  0.00    -0.270 OA
ATOM      4  H   UNL     1      -1.438  -1.641   1.998  0.00  0.00    +0.150 HD
ENDROOT
BRANCH   2   5
ATOM      5  C   UNL     1      -3.695  -0.943   3.098  0.00  0.00    +0.101 A 
ATOM      6  C   UNL     1      -4.804  -0.365   3.706  0.00  0.00    +0.023 A 
ATOM      7  C   UNL     1      -6.054  -0.993   3.610  0.00  0.00    -0.027 A 
ATOM      8  C   UNL     1      -7.214  -0.328   4.303  0.00  0.00    +0.037 C 
ATOM      9  C   UNL     1      -8.541  -0.861   3.769  0.00  0.00    +0.005 C 
ATOM     10  C   UNL     1      -8.495  -2.393   3.813  0.00  0.00    +0.006 C 
ATOM     11  C   UNL     1      -7.491  -2.871   2.767  0.00  0.00    +0.053 C 
ATOM     12  C   UNL     1      -6.175  -2.152   2.922  0.00  0.00    +0.022 A 
ATOM     13  N   UNL     1      -5.086  -2.723   2.331  0.00  0.00    -0.325 N 
ATOM     14  C   UNL     1      -3.869  -2.160   2.390  0.00  0.00    +0.261 A 
ATOM     15  O   UNL     1      -2.919  -2.693   1.843  0.00  0.00    -0.267 OA
ATOM     16  H   UNL     1      -5.196  -3.559   1.851  0.00  0.00    +0.169 HD
ENDBRANCH   2   5
BRANCH   1  17
ATOM     17  C   UNL     1      -0.047  -0.112   2.484  0.00  0.00    +0.141 C 
BRANCH  17  18
ATOM     18  C   UNL     1       0.750  -0.514   3.698  0.00  0.00    +0.148 A 
ATOM     19  N   UNL     1       0.908  -1.733   4.145  0.00  0.00    -0.217 NA
ATOM     20  C   UNL     1       1.671  -1.720   5.237  0.00  0.00    +0.245 A 
ATOM     21  N   UNL     1       2.012  -0.486   5.501  0.00  0.00    -0.158 NA
ATOM     22  N   UNL     1       1.428   0.318   4.508  0.00  0.00    -0.251 N 
ATOM     23  C   UNL     1       1.533   1.774   4.383  0.00  0.00    +0.174 C 
ENDBRANCH  17  18
BRANCH  17  24
ATOM     24  C   UNL     1       0.729  -0.484   1.219  0.00  0.00    +0.033 C 
BRANCH  24  26
ATOM     25  C   UNL     1      -0.043   1.564   0.014  0.00  0.00    +0.007 C 
ATOM     26  C   UNL     1      -0.020   0.034  -0.011  0.00  0.00    -0.015 C 
ATOM     27  C   UNL     1       0.689  -0.445  -1.279  0.00  0.00    +0.007 C 
ENDBRANCH  24  26
ENDBRANCH  17  24
ENDBRANCH   1  17
TORSDOF 5
