REMARK  Name = ZINC44792632
REMARK  6 active torsions:
REMARK  status: ('A' for Active; 'I' for Inactive)
REMARK    1  A    between atoms: C_1  and  N_2
REMARK    2  A    between atoms: N_2  and  C_3
REMARK    3  A    between atoms: C_3  and  C_4
REMARK    4  A    between atoms: C_9  and  C_11
REMARK    5  A    between atoms: C_11  and  C_16
REMARK    6  A    between atoms: N_17  and  O_18
REMARK                            x       y       z     vdW  Elec       q    Type
REMARK                         _______ _______ _______ _____ _____    ______ ____
ROOT
ATOM      1  C   UNL     1       0.018   0.177  -2.432  0.00  0.00    +0.105 C 
ATOM      2  C   UNL     1      -1.151   1.137  -2.711  0.00  0.00    +0.024 C 
ATOM      3  C   UNL     1      -1.946   0.534  -3.888  0.00  0.00    +0.001 C 
ATOM      4  C   UNL     1      -1.606  -0.976  -3.842  0.00  0.00    +0.001 C 
ATOM      5  C   UNL     1      -0.108  -0.977  -3.449  0.00  0.00    +0.024 C 
ENDROOT
BRANCH   1   6
ATOM      6  C   UNL     1       1.331   0.891  -2.620  0.00  0.00    +0.147 C 
ATOM      7  N   UNL     1       2.109   0.565  -3.599  0.00  0.00    -0.076 NA
ATOM      8  N   UNL     1       1.701   1.892  -1.750  0.00  0.00    -0.343 N 
ATOM      9  H   UNL     1       1.159   2.081  -0.969  0.00  0.00    +0.144 HD
ATOM     10  H   UNL     1       2.505   2.409  -1.919  0.00  0.00    +0.144 HD
BRANCH   7  11
ATOM     11  O   UNL     1       3.343   1.236  -3.776  0.00  0.00    -0.408 OA
ATOM     12  H   UNL     1       3.856   0.923  -4.534  0.00  0.00    +0.328 HD
ENDBRANCH   7  11
ENDBRANCH   1   6
BRANCH   1  15
ATOM     13  C   UNL     1       1.843  -1.782  -1.495  0.00  0.00    +0.132 C 
ATOM     14  N   UNL     1       0.761  -1.331  -0.617  0.00  0.00    -0.298 N 
ATOM     15  C   UNL     1      -0.080  -0.360  -1.027  0.00  0.00    +0.229 C 
ATOM     16  O   UNL     1      -0.916   0.080  -0.266  0.00  0.00    -0.275 OA
BRANCH  14  17
ATOM     17  C   UNL     1       0.593  -1.933   0.708  0.00  0.00    +0.163 C 
BRANCH  17  18
ATOM     18  C   UNL     1       1.398  -1.157   1.719  0.00  0.00    +0.066 A 
ATOM     19  C   UNL     1       0.837  -0.173   2.467  0.00  0.00    +0.071 A 
ATOM     20  S   UNL     1       2.245   0.346   3.436  0.00  0.00    -0.084 S 
ATOM     21  C   UNL     1       3.374  -0.726   2.795  0.00  0.00    +0.156 A 
ATOM     22  N   UNL     1       2.676  -1.406   1.920  0.00  0.00    -0.251 NA
ENDBRANCH  17  18
ENDBRANCH  14  17
ENDBRANCH   1  15
TORSDOF 5
