REMARK  Name = ZINC39920697
REMARK  7 active torsions:
REMARK  status: ('A' for Active; 'I' for Inactive)
REMARK    1  A    between atoms: C_1  and  C_2
REMARK    2  A    between atoms: C_5  and  O_8
REMARK    3  A    between atoms: O_8  and  C_9
REMARK    4  A    between atoms: C_9  and  C_11
REMARK    5  A    between atoms: C_9  and  C_12
REMARK    6  A    between atoms: N_14  and  N_15
REMARK    7  A    between atoms: C_16  and  C_27
REMARK                            x       y       z     vdW  Elec       q    Type
REMARK                         _______ _______ _______ _____ _____    ______ ____
ROOT
ATOM      1  N   UNL     1      -1.046  -8.220   2.176  0.00  0.00    -0.188 N 
ATOM      2  C   UNL     1      -2.396  -8.457   2.688  0.00  0.00    +0.247 C 
ATOM      3  N   UNL     1      -3.069  -9.490   1.891  0.00  0.00    -0.318 N 
ATOM      4  C   UNL     1      -2.356 -10.628   1.531  0.00  0.00    +0.041 A 
ATOM      5  C   UNL     1      -2.982 -11.845   1.326  0.00  0.00    +0.024 A 
ATOM      6  C   UNL     1      -2.233 -12.946   0.957  0.00  0.00    +0.002 A 
ATOM      7  C   UNL     1      -0.861 -12.841   0.792  0.00  0.00    +0.001 A 
ATOM      8  C   UNL     1      -0.221 -11.636   0.996  0.00  0.00    +0.015 A 
ATOM      9  C   UNL     1      -0.964 -10.519   1.372  0.00  0.00    +0.059 A 
ATOM     10  C   UNL     1      -0.326  -9.215   1.622  0.00  0.00    +0.267 C 
ATOM     11  O   UNL     1       0.843  -9.040   1.334  0.00  0.00    -0.268 OA
ATOM     12  H   UNL     1      -3.994  -9.380   1.621  0.00  0.00    +0.148 HD
ENDROOT
BRANCH   2  13
ATOM     13  C   UNL     1      -2.313  -8.914   4.122  0.00  0.00    +0.145 A 
ATOM     14  C   UNL     1      -3.181  -9.737   4.737  0.00  0.00    +0.048 A 
ATOM     15  C   UNL     1      -2.724  -9.896   6.065  0.00  0.00    +0.041 A 
ATOM     16  C   UNL     1      -1.604  -9.161   6.183  0.00  0.00    +0.195 A 
ATOM     17  O   UNL     1      -1.357  -8.573   5.001  0.00  0.00    -0.464 OA
ENDBRANCH   2  13
BRANCH   1  20
ATOM     18  C   UNL     1      -0.410  -6.166   1.155  0.00  0.00    +0.270 C 
ATOM     19  O   UNL     1      -0.811  -6.587   0.090  0.00  0.00    -0.270 OA
ATOM     20  N   UNL     1      -0.495  -6.935   2.259  0.00  0.00    -0.226 N 
ATOM     21  H   UNL     1      -0.175  -6.598   3.110  0.00  0.00    +0.173 HD
BRANCH  18  22
ATOM     22  C   UNL     1       0.182  -4.783   1.244  0.00  0.00    +0.257 C 
ATOM     23  C   UNL     1       1.662  -4.886   1.620  0.00  0.00    +0.062 C 
BRANCH  22  24
ATOM     24  O   UNL     1       0.057  -4.129  -0.021  0.00  0.00    -0.480 OA
BRANCH  24  29
ATOM     25  C   UNL     1      -0.008   1.503   0.009  0.00  0.00    +0.044 C 
ATOM     26  C   UNL     1       0.009  -0.004   0.001  0.00  0.00    -0.050 A 
ATOM     27  C   UNL     1       0.240  -0.698   1.175  0.00  0.00    +0.007 A 
ATOM     28  C   UNL     1       0.257  -2.079   1.170  0.00  0.00    +0.046 A 
ATOM     29  C   UNL     1       0.041  -2.770  -0.013  0.00  0.00    +0.122 A 
ATOM     30  C   UNL     1      -0.192  -2.072  -1.189  0.00  0.00    +0.046 A 
ATOM     31  C   UNL     1      -0.213  -0.690  -1.178  0.00  0.00    +0.007 A 
ENDBRANCH  24  29
ENDBRANCH  22  24
ENDBRANCH  18  22
ENDBRANCH   1  20
TORSDOF 5
