REMARK  Name = ZINC20985973
REMARK  3 active torsions:
REMARK  status: ('A' for Active; 'I' for Inactive)
REMARK    1  A    between atoms: C_1  and  C_2
REMARK    2  A    between atoms: C_2  and  C_15
REMARK    3  A    between atoms: N_3  and  N_4
REMARK                            x       y       z     vdW  Elec       q    Type
REMARK                         _______ _______ _______ _____ _____    ______ ____
ROOT
ATOM      1  N   UNL     1      -0.021   0.060  -2.335  0.00  0.00    -0.221 N 
ATOM      2  C   UNL     1      -0.023  -0.627  -3.539  0.00  0.00    +0.139 A 
ATOM      3  C   UNL     1      -0.044   0.097  -4.741  0.00  0.00    +0.046 A 
ATOM      4  C   UNL     1      -0.046  -0.564  -5.932  0.00  0.00    +0.013 A 
ATOM      5  C   UNL     1      -0.026  -1.974  -5.913  0.00  0.00    +0.001 A 
ATOM      6  C   UNL     1      -0.026  -2.718  -7.103  0.00  0.00    +0.010 A 
ATOM      7  C   UNL     1      -0.006  -4.079  -7.047  0.00  0.00    +0.001 A 
ATOM      8  C   UNL     1       0.015  -4.743  -5.823  0.00  0.00    +0.002 A 
ATOM      9  C   UNL     1       0.015  -4.053  -4.650  0.00  0.00    +0.028 A 
ATOM     10  C   UNL     1      -0.005  -2.647  -4.667  0.00  0.00    +0.073 A 
ATOM     11  N   UNL     1       0.001  -1.944  -3.529  0.00  0.00    -0.231 NA
ATOM     12  H   UNL     1      -0.036   1.160  -2.329  0.00  0.00    +0.176 HD
ENDROOT
BRANCH   1  15
ATOM     13  C   UNL     1      -0.018   1.503   0.010  0.00  0.00    +0.068 C 
ATOM     14  C   UNL     1       0.002  -0.004   0.002  0.00  0.00    +0.063 C 
ATOM     15  N   UNL     1       0.000  -0.647  -1.126  0.00  0.00    -0.186 NA
BRANCH  14  16
ATOM     16  C   UNL     1       0.024  -0.748   1.275  0.00  0.00    -0.002 A 
ATOM     17  C   UNL     1       0.032  -0.059   2.490  0.00  0.00    +0.011 A 
ATOM     18  C   UNL     1       0.047  -0.761   3.677  0.00  0.00    +0.016 A 
ATOM     19  C   UNL     1       0.067  -2.146   3.666  0.00  0.00    +0.018 A 
ATOM     20  C   UNL     1       0.064  -2.835   2.465  0.00  0.00    +0.016 A 
ATOM     21  C   UNL     1       0.043  -2.145   1.271  0.00  0.00    +0.011 A 
ATOM     22 BR   UNL     1       0.095  -3.100   5.298  0.00  0.00    -0.050 Br
ENDBRANCH  14  16
ENDBRANCH   1  15
TORSDOF 2
