REMARK  Name = ZINC03954077
REMARK  10 active torsions:
REMARK  status: ('A' for Active; 'I' for Inactive)
REMARK    1  A    between atoms: C_1  and  C_2
REMARK    2  A    between atoms: C_2  and  O_4
REMARK    3  A    between atoms: O_4  and  C_5
REMARK    4  A    between atoms: C_5  and  C_6
REMARK    5  A    between atoms: C_6  and  C_8
REMARK    6  A    between atoms: C_14  and  C_32
REMARK    7  A    between atoms: C_24  and  C_31
REMARK    8  A    between atoms: C_27  and  O_30
REMARK    9  A    between atoms: C_34  and  C_36
REMARK   10  A    between atoms: C_34  and  C_37
REMARK                            x       y       z     vdW  Elec       q    Type
REMARK                         _______ _______ _______ _____ _____    ______ ____
ROOT
ATOM      1  C   UNL     1       2.818  -4.167  -0.040  0.00  0.00    +0.165 C 
ATOM      2  C   UNL     1       3.075  -4.786  -1.443  0.00  0.00    +0.162 C 
ATOM      3  C   UNL     1       4.493  -5.429  -1.377  0.00  0.00    +0.039 C 
ATOM      4  C   UNL     1       4.638  -5.698   0.130  0.00  0.00    +0.004 C 
ATOM      5  C   UNL     1       4.145  -4.364   0.722  0.00  0.00    +0.010 C 
ATOM      6  C   UNL     1       4.010  -4.442   2.222  0.00  0.00    +0.010 C 
ATOM      7  C   UNL     1       5.066  -5.383   2.822  0.00  0.00    +0.005 C 
ATOM      8  C   UNL     1       6.315  -5.414   1.952  0.00  0.00    +0.003 C 
ATOM      9  C   UNL     1       5.988  -6.108   0.621  0.00  0.00    +0.000 C 
ATOM     10  C   UNL     1       7.139  -5.808  -0.340  0.00  0.00    +0.031 C 
ATOM     11  C   UNL     1       8.396  -6.338   0.303  0.00  0.00    -0.027 C 
ATOM     12  C   UNL     1       8.533  -6.496   1.583  0.00  0.00    -0.065 C 
ATOM     13  C   UNL     1       7.481  -6.140   2.607  0.00  0.00    -0.008 C 
ATOM     14  C   UNL     1       7.045  -7.414   3.320  0.00  0.00    +0.014 C 
ATOM     15  C   UNL     1       7.949  -8.579   2.921  0.00  0.00    +0.032 C 
ATOM     16  C   UNL     1       9.427  -8.238   3.076  0.00  0.00    +0.119 C 
ATOM     17  C   UNL     1       9.818  -7.106   2.118  0.00  0.00    +0.062 C 
ATOM     18  C   UNL     1       8.109  -5.190   3.634  0.00  0.00    +0.016 C 
ATOM     19  C   UNL     1       5.044  -3.184   0.330  0.00  0.00    +0.015 C 
ATOM     20  O   UNL     1       2.122  -5.855  -1.561  0.00  0.00    -0.343 OA
ATOM     21  C   UNL     1       1.136  -5.667  -0.532  0.00  0.00    +0.166 C 
ATOM     22  O   UNL     1       1.787  -4.967   0.544  0.00  0.00    -0.332 OA
ATOM     23  C   UNL     1      -0.052  -4.861  -1.068  0.00  0.00    +0.074 C 
ATOM     24  C   UNL     1       0.637  -7.032  -0.034  0.00  0.00    +0.074 C 
ENDROOT
BRANCH   1  25
ATOM     25  C   UNL     1       2.465  -2.705  -0.116  0.00  0.00    +0.205 C 
ATOM     26  O   UNL     1       2.821  -2.046  -1.063  0.00  0.00    -0.291 OA
BRANCH  25  27
ATOM     27  C   UNL     1       1.665  -2.064   0.990  0.00  0.00    +0.309 C 
BRANCH  27  28
ATOM     28  O   UNL     1       1.559  -0.637   0.746  0.00  0.00    -0.457 OA
BRANCH  28  30
ATOM     29  C   UNL     1       0.720   1.573   1.458  0.00  0.00    +0.136 C 
ATOM     30  C   UNL     1       0.873   0.086   1.645  0.00  0.00    +0.304 C 
ATOM     31  O   UNL     1       0.377  -0.457   2.604  0.00  0.00    -0.251 OA
ENDBRANCH  28  30
ENDBRANCH  27  28
ENDBRANCH  25  27
ENDBRANCH   1  25
BRANCH  16  32
ATOM     32  O   UNL     1       9.697  -7.846   4.424  0.00  0.00    -0.391 OA
ATOM     33  H   UNL     1      10.621  -7.616   4.589  0.00  0.00    +0.210 HD
ENDBRANCH  16  32
TORSDOF 5
