REMARK  Name = ZINC00115372
REMARK  4 active torsions:
REMARK  status: ('A' for Active; 'I' for Inactive)
REMARK    1  A    between atoms: C_6  and  N_7
REMARK    2  A    between atoms: C_9  and  N_21
REMARK    3  A    between atoms: C_10  and  C_19
REMARK    4  A    between atoms: C_11  and  C_13
REMARK                            x       y       z     vdW  Elec       q    Type
REMARK                         _______ _______ _______ _____ _____    ______ ____
ROOT
ATOM      1  C   UNL     1      -0.017   1.385   0.010  0.00  0.00    +0.023 A 
ATOM      2  C   UNL     1       1.170   2.091   0.002  0.00  0.00    +0.009 A 
ATOM      3  C   UNL     1       2.380   1.421  -0.013  0.00  0.00    +0.004 A 
ATOM      4  C   UNL     1       2.406   0.034  -0.021  0.00  0.00    +0.136 A 
ATOM      5  C   UNL     1       1.214  -0.678  -0.013  0.00  0.00    +0.069 A 
ATOM      6  C   UNL     1       0.002  -0.004   0.002  0.00  0.00    +0.028 A 
ATOM      7  O   UNL     1       3.582  -0.639  -0.036  0.00  0.00    -0.441 OA
ATOM      8  C   UNL     1       4.714  -0.020   0.338  0.00  0.00    +0.198 C 
ATOM      9  C   UNL     1       4.817   1.329   0.367  0.00  0.00    +0.094 C 
ATOM     10  C   UNL     1       3.663   2.210  -0.022  0.00  0.00    +0.071 C 
ENDROOT
BRANCH  10  11
ATOM     11  C   UNL     1       3.904   2.770  -1.425  0.00  0.00    +0.002 C 
ATOM     12  C   UNL     1       5.206   3.573  -1.437  0.00  0.00    +0.004 C 
ATOM     13  C   UNL     1       5.447   4.133  -2.840  0.00  0.00    +0.000 C 
ATOM     14  C   UNL     1       4.283   5.045  -3.232  0.00  0.00    +0.000 C 
ATOM     15  C   UNL     1       2.980   4.243  -3.220  0.00  0.00    +0.000 C 
ATOM     16  C   UNL     1       2.739   3.682  -1.816  0.00  0.00    +0.004 C 
ENDBRANCH  10  11
BRANCH   6  17
ATOM     17  N   UNL     1      -1.197  -0.720   0.010  0.00  0.00    -0.358 N 
ATOM     18  H   UNL     1      -2.044  -0.248   0.021  0.00  0.00    +0.142 HD
ATOM     19  H   UNL     1      -1.183  -1.690   0.004  0.00  0.00    +0.142 HD
ENDBRANCH   6  17
BRANCH   8  20
ATOM     20  N   UNL     1       5.799  -0.779   0.703  0.00  0.00    -0.328 N 
ATOM     21  H   UNL     1       5.740  -1.747   0.688  0.00  0.00    +0.145 HD
ATOM     22  H   UNL     1       6.623  -0.347   0.976  0.00  0.00    +0.145 HD
ENDBRANCH   8  20
BRANCH   9  23
ATOM     23  C   UNL     1       6.051   1.930   0.777  0.00  0.00    +0.100 C 
ATOM     24  N   UNL     1       7.029   2.407   1.102  0.00  0.00    -0.191 NA
ENDBRANCH   9  23
TORSDOF 4
