REMARK  Name = ZINC33923904
REMARK  6 active torsions:
REMARK  status: ('A' for Active; 'I' for Inactive)
REMARK    1  A    between atoms: C_1  and  C_2
REMARK    2  A    between atoms: N_8  and  C_9
REMARK    3  A    between atoms: C_9  and  C_10
REMARK    4  A    between atoms: C_11  and  C_21
REMARK    5  A    between atoms: N_23  and  N_24
REMARK    6  A    between atoms: C_25  and  C_26
REMARK                            x       y       z     vdW  Elec       q    Type
REMARK                         _______ _______ _______ _____ _____    ______ ____
ROOT
ATOM      1  C   UNL     1       4.013   0.662   2.235  0.00  0.00    +0.063 A 
ATOM      2  C   UNL     1       3.796   1.235   3.456  0.00  0.00    +0.170 A 
ATOM      3  N   UNL     1       4.752   0.811   4.301  0.00  0.00    -0.124 NA
ATOM      4  N   UNL     1       5.550   0.011   3.684  0.00  0.00    -0.058 NA
ATOM      5  N   UNL     1       5.110  -0.117   2.359  0.00  0.00    -0.194 N 
ATOM      6  C   UNL     1       5.696  -0.899   1.357  0.00  0.00    +0.240 A 
ATOM      7  C   UNL     1       6.884  -1.744   1.512  0.00  0.00    +0.206 A 
ATOM      8  N   UNL     1       7.131  -2.319   0.367  0.00  0.00    -0.032 NA
ATOM      9  O   UNL     1       6.146  -1.888  -0.556  0.00  0.00    -0.239 OA
ATOM     10  N   UNL     1       5.275  -1.005   0.128  0.00  0.00    -0.027 NA
ATOM     11  N   UNL     1       7.621  -1.905   2.680  0.00  0.00    -0.337 N 
ATOM     12  H   UNL     1       7.361  -1.434   3.487  0.00  0.00    +0.144 HD
ATOM     13  H   UNL     1       8.396  -2.487   2.688  0.00  0.00    +0.144 HD
ENDROOT
BRANCH   2  14
ATOM     14  C   UNL     1       2.699   2.162   3.791  0.00  0.00    +0.285 C 
ATOM     15  O   UNL     1       1.888   2.477   2.940  0.00  0.00    -0.267 OA
ATOM     16  N   UNL     1       2.595   2.660   5.039  0.00  0.00    -0.202 N 
ATOM     17  H   UNL     1       3.242   2.409   5.717  0.00  0.00    +0.178 HD
BRANCH  16  18
ATOM     18  N   UNL     1       1.553   3.541   5.357  0.00  0.00    -0.187 NA
ATOM     19  C   UNL     1       1.371   3.915   6.589  0.00  0.00    +0.145 C 
BRANCH  19  20
ATOM     20  C   UNL     1       2.136   3.283   7.668  0.00  0.00    +0.033 A 
ATOM     21  C   UNL     1       2.169   3.598   9.015  0.00  0.00    +0.018 A 
ATOM     22  C   UNL     1       2.975   2.850   9.842  0.00  0.00    +0.023 A 
ATOM     23  C   UNL     1       3.708   1.834   9.315  0.00  0.00    +0.055 A 
ATOM     24  S   UNL     1       3.264   1.901   7.587  0.00  0.00    -0.080 S 
ATOM     25 BR   UNL     1       4.892   0.647  10.190  0.00  0.00    -0.043 Br
ENDBRANCH  19  20
ENDBRANCH  16  18
ENDBRANCH   2  14
BRANCH   1  26
ATOM     26  C   UNL     1       3.185   0.857   0.991  0.00  0.00    -0.019 C 
BRANCH  26  33
ATOM     27  C   UNL     1       0.688   1.540  -0.098  0.00  0.00    -0.013 C 
ATOM     28  C   UNL     1       1.238   0.116  -0.194  0.00  0.00    -0.071 C 
ATOM     29  C   UNL     1       0.075  -0.880  -0.192  0.00  0.00    -0.016 C 
ATOM     30  C   UNL     1       0.630  -2.304  -0.288  0.00  0.00    -0.003 C 
ATOM     31  C   UNL     1       1.601  -2.543   0.872  0.00  0.00    -0.019 C 
ATOM     32  C   UNL     1       2.707  -1.486   0.829  0.00  0.00    -0.078 C 
ATOM     33  N   UNL     1       2.115  -0.148   0.953  0.00  0.00    +0.385 N 
ATOM     34  H   UNL     1       1.577  -0.097   1.805  0.00  0.00    -0.081 HD
ENDBRANCH  26  33
ENDBRANCH   1  26
TORSDOF 5
