REMARK  Name = ZINC62475141
REMARK  13 active torsions:
REMARK  status: ('A' for Active; 'I' for Inactive)
REMARK    1  A    between atoms: C_1  and  C_2
REMARK    2  A    between atoms: C_2  and  C_3
REMARK    3  A    between atoms: C_2  and  C_4
REMARK    4  A    between atoms: N_6  and  C_7
REMARK    5  A    between atoms: C_7  and  C_8
REMARK    6  A    between atoms: C_8  and  N_9
REMARK    7  A    between atoms: N_12  and  C_13
REMARK    8  A    between atoms: N_12  and  C_18
REMARK    9  A    between atoms: C_13  and  C_14
REMARK   10  A    between atoms: C_14  and  N_15
REMARK   11  A    between atoms: N_15  and  C_16
REMARK   12  A    between atoms: N_15  and  C_17
REMARK   13  A    between atoms: C_18  and  C_19
REMARK                            x       y       z     vdW  Elec       q    Type
REMARK                         _______ _______ _______ _____ _____    ______ ____
ROOT
ATOM      1  N   UNL     1      -4.368  -4.398   0.020  0.00  0.00    -0.298 N 
ATOM      2  C   UNL     1      -4.596  -5.726   0.015  0.00  0.00    +0.302 C 
ATOM      3  O   UNL     1      -3.662  -6.504   0.002  0.00  0.00    -0.253 OA
ATOM      4  N   UNL     1      -5.861  -6.193   0.025  0.00  0.00    -0.283 N 
ATOM      5  H   UNL     1      -5.114  -3.778   0.031  0.00  0.00    +0.150 HD
ENDROOT
BRANCH   1   6
ATOM      6  C   UNL     1      -2.994  -3.891   0.010  0.00  0.00    +0.124 C 
BRANCH   6   7
ATOM      7  C   UNL     1      -3.014  -2.361   0.018  0.00  0.00    +0.123 C 
BRANCH   7  10
ATOM      8  C   UNL     1      -1.412  -0.526   0.013  0.00  0.00    +0.216 C 
ATOM      9  O   UNL     1      -2.344   0.250   0.026  0.00  0.00    -0.276 OA
ATOM     10  N   UNL     1      -1.640  -1.854   0.008  0.00  0.00    -0.314 N 
ATOM     11  H   UNL     1      -0.894  -2.474  -0.003  0.00  0.00    +0.149 HD
BRANCH   8  13
ATOM     12  C   UNL     1      -0.019   1.526   0.010  0.00  0.00    +0.017 C 
ATOM     13  C   UNL     1       0.002  -0.004   0.002  0.00  0.00    +0.069 C 
ATOM     14  C   UNL     1       0.742  -0.511   1.242  0.00  0.00    +0.017 C 
ENDBRANCH   8  13
ENDBRANCH   7  10
ENDBRANCH   6   7
ENDBRANCH   1   6
BRANCH   4  15
ATOM     15  C   UNL     1      -6.987  -5.256   0.041  0.00  0.00    +0.091 C 
BRANCH  15  16
ATOM     16  C   UNL     1      -7.393  -4.922  -1.396  0.00  0.00    -0.060 C 
BRANCH  16  17
ATOM     17  N   UNL     1      -8.522  -3.983  -1.381  0.00  0.00    +0.377 N 
ATOM     18  C   UNL     1      -8.835  -3.570  -2.755  0.00  0.00    -0.097 C 
ATOM     19  C   UNL     1      -9.696  -4.638  -0.787  0.00  0.00    -0.097 C 
ATOM     20  H   UNL     1      -8.277  -3.172  -0.833  0.00  0.00    -0.083 HD
ENDBRANCH  16  17
ENDBRANCH  15  16
ENDBRANCH   4  15
BRANCH   4  21
ATOM     21  C   UNL     1      -6.109  -7.637   0.019  0.00  0.00    +0.144 C 
BRANCH  21  22
ATOM     22  C   UNL     1      -6.180  -8.139   1.438  0.00  0.00    -0.030 A 
ATOM     23  C   UNL     1      -5.032  -8.567   2.078  0.00  0.00    +0.006 A 
ATOM     24  C   UNL     1      -5.097  -9.028   3.380  0.00  0.00    +0.020 A 
ATOM     25  C   UNL     1      -6.312  -9.062   4.042  0.00  0.00    +0.041 A 
ATOM     26  C   UNL     1      -7.460  -8.633   3.401  0.00  0.00    +0.020 A 
ATOM     27  C   UNL     1      -7.393  -8.167   2.101  0.00  0.00    +0.006 A 
ATOM     28 CL   UNL     1      -6.394  -9.641   5.676  0.00  0.00    -0.084 Cl
ENDBRANCH  21  22
ENDBRANCH   4  21
TORSDOF 9
