REMARK  Name = ZINC10322428
REMARK  7 active torsions:
REMARK  status: ('A' for Active; 'I' for Inactive)
REMARK    1  A    between atoms: C_6  and  C_10
REMARK    2  A    between atoms: C_13  and  N_16
REMARK    3  A    between atoms: C_17  and  C_19
REMARK    4  A    between atoms: C_19  and  N_20
REMARK    5  A    between atoms: C_21  and  C_23
REMARK    6  A    between atoms: C_23  and  N_24
REMARK    7  A    between atoms: C_25  and  C_27
REMARK                            x       y       z     vdW  Elec       q    Type
REMARK                         _______ _______ _______ _____ _____    ______ ____
ROOT
ATOM      1  N   UNL     1      -1.191   1.867   0.018  0.00  0.00    -0.284 N 
ATOM      2  C   UNL     1      -0.027   1.205   0.177  0.00  0.00    +0.234 C 
ATOM      3  O   UNL     1      -0.029   0.002   0.327  0.00  0.00    -0.274 OA
ATOM      4  H   UNL     1      -1.196   2.836  -0.025  0.00  0.00    +0.155 HD
ENDROOT
BRANCH   1   8
ATOM      5  C   UNL     1      -4.768  -0.253  -0.292  0.00  0.00    +0.002 A 
ATOM      6  C   UNL     1      -4.748   0.998   0.323  0.00  0.00    +0.012 A 
ATOM      7  C   UNL     1      -3.564   1.697   0.425  0.00  0.00    +0.024 A 
ATOM      8  C   UNL     1      -2.391   1.155  -0.086  0.00  0.00    +0.033 A 
ATOM      9  C   UNL     1      -2.408  -0.089  -0.705  0.00  0.00    +0.024 A 
ATOM     10  C   UNL     1      -3.589  -0.794  -0.803  0.00  0.00    +0.012 A 
BRANCH   5  16
ATOM     11  C   UNL     1     -10.223  -2.697  -0.377  0.00  0.00    +0.005 A 
ATOM     12  C   UNL     1      -9.553  -3.743  -1.032  0.00  0.00    +0.018 A 
ATOM     13  C   UNL     1      -8.226  -3.661  -1.266  0.00  0.00    +0.093 A 
ATOM     14  N   UNL     1      -7.517  -2.563  -0.869  0.00  0.00    -0.306 N 
ATOM     15  C   UNL     1      -6.195  -2.232  -0.978  0.00  0.00    +0.121 A 
ATOM     16  C   UNL     1      -6.041  -1.007  -0.403  0.00  0.00    +0.090 A 
ATOM     17  N   UNL     1      -7.237  -0.601   0.051  0.00  0.00    -0.228 NA
ATOM     18  C   UNL     1      -8.143  -1.526  -0.227  0.00  0.00    +0.138 A 
ATOM     19  C   UNL     1      -9.529  -1.598   0.024  0.00  0.00    +0.047 A 
ENDBRANCH   5  16
ENDBRANCH   1   8
BRANCH   2  20
ATOM     20  C   UNL     1       1.277   1.961   0.164  0.00  0.00    +0.200 C 
BRANCH  20  21
ATOM     21  N   UNL     1       2.387   1.023   0.348  0.00  0.00    -0.305 N 
ATOM     22  C   UNL     1       3.656   1.476   0.370  0.00  0.00    +0.231 C 
ATOM     23  O   UNL     1       3.879   2.661   0.237  0.00  0.00    -0.274 OA
ATOM     24  H   UNL     1       2.208   0.075   0.455  0.00  0.00    +0.149 HD
BRANCH  22  25
ATOM     25  C   UNL     1       4.798   0.511   0.560  0.00  0.00    +0.200 C 
BRANCH  25  26
ATOM     26  N   UNL     1       6.065   1.245   0.547  0.00  0.00    -0.300 N 
ATOM     27  C   UNL     1       7.229   0.583   0.701  0.00  0.00    +0.280 C 
ATOM     28  O   UNL     1       7.227  -0.624   0.851  0.00  0.00    -0.267 OA
ATOM     29  H   UNL     1       6.067   2.208   0.427  0.00  0.00    +0.150 HD
BRANCH  27  30
ATOM     30  C   UNL     1       8.498   1.319   0.687  0.00  0.00    +0.189 A 
ATOM     31  C   UNL     1       9.742   0.774   0.832  0.00  0.00    +0.054 A 
ATOM     32  C   UNL     1      10.658   1.836   0.755  0.00  0.00    +0.042 A 
ATOM     33  C   UNL     1       9.942   2.966   0.571  0.00  0.00    +0.196 A 
ATOM     34  O   UNL     1       8.641   2.650   0.525  0.00  0.00    -0.458 OA
ENDBRANCH  27  30
ENDBRANCH  25  26
ENDBRANCH  22  25
ENDBRANCH  20  21
ENDBRANCH   2  20
TORSDOF 7
