REMARK  Name = ZINC65423539
REMARK  5 active torsions:
REMARK  status: ('A' for Active; 'I' for Inactive)
REMARK    1  A    between atoms: C_4  and  C_7
REMARK    2  A    between atoms: C_7  and  C_8
REMARK    3  A    between atoms: C_8  and  C_9
REMARK    4  A    between atoms: C_12  and  C_22
REMARK    5  A    between atoms: C_27  and  C_28
REMARK                            x       y       z     vdW  Elec       q    Type
REMARK                         _______ _______ _______ _____ _____    ______ ____
ROOT
ATOM      1  C   UNL     1       5.394  -1.834   1.413  0.00  0.00    +0.019 C 
ATOM      2  N   UNL     1       5.908  -2.110   2.783  0.00  0.00    +0.406 N 
ATOM      3  C   UNL     1       5.194  -3.357   3.151  0.00  0.00    +0.069 C 
ATOM      4  N   UNL     1       4.777  -3.979   1.884  0.00  0.00    -0.262 N 
ATOM      5  N   UNL     1       5.237  -3.197   0.845  0.00  0.00    -0.254 NA
ATOM      6  C   UNL     1       4.044  -5.153   1.755  0.00  0.00    +0.134 A 
ATOM      7  C   UNL     1       3.824  -5.693   0.492  0.00  0.00    +0.045 A 
ATOM      8  C   UNL     1       3.093  -6.862   0.379  0.00  0.00    +0.005 A 
ATOM      9  C   UNL     1       2.606  -7.454   1.537  0.00  0.00    +0.020 A 
ATOM     10  C   UNL     1       2.863  -6.864   2.757  0.00  0.00    +0.113 A 
ATOM     11  N   UNL     1       3.567  -5.751   2.836  0.00  0.00    -0.239 NA
ATOM     12  H   UNL     1       6.905  -2.260   2.768  0.00  0.00    -0.080 HD
ATOM     13  H   UNL     1       6.116  -3.545   0.492  0.00  0.00    +0.142 HD
ATOM     14  H   UNL     1       5.667  -1.360   3.414  0.00  0.00    -0.080 HD
ENDROOT
BRANCH   3  15
ATOM     15  C   UNL     1       6.117  -4.281   3.904  0.00  0.00    -0.032 A 
ATOM     16  C   UNL     1       6.795  -5.279   3.233  0.00  0.00    +0.004 A 
ATOM     17  C   UNL     1       7.643  -6.126   3.922  0.00  0.00    +0.000 A 
ATOM     18  C   UNL     1       7.816  -5.980   5.287  0.00  0.00    +0.001 A 
ATOM     19  C   UNL     1       7.143  -4.986   5.968  0.00  0.00    +0.012 A 
ATOM     20  C   UNL     1       6.293  -4.125   5.277  0.00  0.00    +0.024 A 
BRANCH  20  21
ATOM     21  C   UNL     1       5.571  -3.050   6.003  0.00  0.00    +0.181 A 
ATOM     22  H   UNL     1       3.603  -0.671   6.444  0.00  0.00    +0.190 HD
ATOM     23  N   UNL     1       5.718  -2.750   7.300  0.00  0.00    -0.215 NA
ATOM     24  C   UNL     1       4.934  -1.752   7.614  0.00  0.00    +0.216 A 
ATOM     25  N   UNL     1       4.257  -1.384   6.512  0.00  0.00    -0.265 N 
ATOM     26  N   UNL     1       4.685  -2.232   5.478  0.00  0.00    -0.152 NA
ENDBRANCH  20  21
ENDBRANCH   3  15
BRANCH   1  27
ATOM     27  C   UNL     1       4.046  -1.112   1.474  0.00  0.00    +0.005 C 
BRANCH  27  28
ATOM     28  C   UNL     1       3.515  -0.904   0.054  0.00  0.00    +0.035 C 
BRANCH  28  32
ATOM     29  C   UNL     1      -0.247   1.112   0.220  0.00  0.00    +0.000 A 
ATOM     30  C   UNL     1       0.925   1.841   0.138  0.00  0.00    +0.000 A 
ATOM     31  C   UNL     1       2.142   1.189   0.085  0.00  0.00    +0.003 A 
ATOM     32  C   UNL     1       2.188  -0.193   0.113  0.00  0.00    -0.047 A 
ATOM     33  C   UNL     1       1.016  -0.921   0.195  0.00  0.00    +0.003 A 
ATOM     34  C   UNL     1      -0.201  -0.269   0.247  0.00  0.00    +0.000 A 
ENDBRANCH  28  32
ENDBRANCH  27  28
ENDBRANCH   1  27
TORSDOF 5
