REMARK  Name = ZINC18023410
REMARK  4 active torsions:
REMARK  status: ('A' for Active; 'I' for Inactive)
REMARK    1  A    between atoms: C_1  and  C_2
REMARK    2  A    between atoms: N_10  and  N_14
REMARK    3  A    between atoms: C_15  and  C_17
REMARK    4  A    between atoms: N_22  and  C_24
REMARK                            x       y       z     vdW  Elec       q    Type
REMARK                         _______ _______ _______ _____ _____    ______ ____
ROOT
ATOM      1  N   UNL     1       1.776   5.061   5.479  0.00  0.00    -0.223 N 
ATOM      2  C   UNL     1       2.501   4.567   6.502  0.00  0.00    +0.235 C 
ATOM      3  O   UNL     1       2.185   3.515   7.017  0.00  0.00    -0.274 OA
ATOM      4  H   UNL     1       2.029   5.902   5.066  0.00  0.00    +0.174 HD
ENDROOT
BRANCH   1  14
ATOM      5  C   UNL     1      -0.013   1.086   0.008  0.00  0.00    +0.007 C 
ATOM      6  C   UNL     1      -0.729   1.579   1.267  0.00  0.00    -0.014 C 
ATOM      7  C   UNL     1      -0.750   3.109   1.275  0.00  0.00    +0.006 C 
ATOM      8  C   UNL     1      -1.477   3.602   2.529  0.00  0.00    +0.035 C 
ATOM      9  C   UNL     1      -0.764   3.080   3.771  0.00  0.00    +0.114 C 
ATOM     10  C   UNL     1      -0.713   1.556   3.765  0.00  0.00    +0.035 C 
ATOM     11  C   UNL     1       0.011   1.072   2.506  0.00  0.00    +0.006 C 
ATOM     12  C   UNL     1       0.630   3.655   3.860  0.00  0.00    +0.263 C 
ATOM     13  O   UNL     1       1.535   3.512   3.066  0.00  0.00    -0.271 OA
ATOM     14  N   UNL     1       0.657   4.360   5.010  0.00  0.00    -0.137 N 
ATOM     15  C   UNL     1      -0.518   4.306   5.649  0.00  0.00    +0.326 C 
ATOM     16  O   UNL     1      -0.739   4.864   6.706  0.00  0.00    -0.251 OA
ATOM     17  N   UNL     1      -1.429   3.567   4.987  0.00  0.00    -0.284 N 
ATOM     18  H   UNL     1      -2.343   3.390   5.260  0.00  0.00    +0.151 HD
ENDBRANCH   1  14
BRANCH   2  19
ATOM     19  C   UNL     1       3.705   5.321   7.005  0.00  0.00    +0.103 C 
ATOM     20  C   UNL     1       3.285   6.646   7.681  0.00  0.00    +0.110 C 
ATOM     21  C   UNL     1       3.159   6.293   9.146  0.00  0.00    +0.221 C 
ATOM     22  O   UNL     1       2.586   6.966   9.976  0.00  0.00    -0.275 OA
ATOM     23  N   UNL     1       3.775   5.124   9.394  0.00  0.00    -0.270 N 
ATOM     24  C   UNL     1       4.378   4.570   8.176  0.00  0.00    +0.127 C 
BRANCH  23  25
ATOM     25  C   UNL     1       3.833   4.515  10.649  0.00  0.00    +0.044 A 
ATOM     26  C   UNL     1       4.873   4.794  11.509  0.00  0.00    +0.024 A 
ATOM     27  C   UNL     1       4.941   4.193  12.762  0.00  0.00    +0.002 A 
ATOM     28  C   UNL     1       3.985   3.314  13.173  0.00  0.00    +0.008 A 
ATOM     29  C   UNL     1       2.908   3.003  12.326  0.00  0.00    -0.016 A 
ATOM     30  C   UNL     1       2.825   3.612  11.050  0.00  0.00    +0.004 A 
ATOM     31  C   UNL     1       1.752   3.296  10.203  0.00  0.00    +0.010 A 
ATOM     32  C   UNL     1       0.800   2.416  10.621  0.00  0.00    +0.001 A 
ATOM     33  C   UNL     1       0.878   1.820  11.878  0.00  0.00    +0.001 A 
ATOM     34  C   UNL     1       1.907   2.099  12.723  0.00  0.00    +0.008 A 
ENDBRANCH  23  25
ENDBRANCH   2  19
TORSDOF 3
