REMARK  Name = ZINC37059082
REMARK  6 active torsions:
REMARK  status: ('A' for Active; 'I' for Inactive)
REMARK    1  A    between atoms: C_1  and  C_2
REMARK    2  A    between atoms: C_5  and  N_11
REMARK    3  A    between atoms: C_7  and  N_8
REMARK    4  A    between atoms: N_11  and  C_12
REMARK    5  A    between atoms: C_12  and  C_14
REMARK    6  A    between atoms: C_12  and  C_15
REMARK                            x       y       z     vdW  Elec       q    Type
REMARK                         _______ _______ _______ _____ _____    ______ ____
ROOT
ATOM      1  N   UNL     1       0.558  -4.114  -0.096  0.00  0.00    -0.337 N 
ATOM      2  H   UNL     1       0.817  -4.584   0.712  0.00  0.00    +0.147 HD
ENDROOT
BRANCH   1   7
ATOM      3  C   UNL     1      -0.537   1.447   0.088  0.00  0.00    +0.046 C 
ATOM      4  C   UNL     1      -0.246  -0.031   0.040  0.00  0.00    -0.020 A 
ATOM      5  C   UNL     1      -0.348  -0.715  -1.158  0.00  0.00    +0.007 A 
ATOM      6  C   UNL     1      -0.082  -2.069  -1.207  0.00  0.00    +0.023 A 
ATOM      7  C   UNL     1       0.289  -2.744  -0.051  0.00  0.00    +0.030 A 
ATOM      8  C   UNL     1       0.390  -2.054   1.150  0.00  0.00    +0.056 A 
ATOM      9  C   UNL     1       0.127  -0.699   1.191  0.00  0.00    +0.131 A 
BRANCH   9  10
ATOM     10  N   UNL     1       0.241   0.038   2.469  0.00  0.00    +0.057 N 
ATOM     11  O   UNL     1       0.674   1.167   2.480  0.00  0.00    -0.126 OA
ATOM     12  O   UNL     1      -0.100  -0.488   3.503  0.00  0.00    -0.126 OA
ENDBRANCH   9  10
ENDBRANCH   1   7
BRANCH   1  13
ATOM     13  C   UNL     1       0.450  -4.840  -1.364  0.00  0.00    +0.098 C 
ATOM     14  C   UNL     1      -1.002  -5.267  -1.585  0.00  0.00    +0.033 C 
BRANCH  13  15
ATOM     15  C   UNL     1       1.332  -6.061  -1.320  0.00  0.00    -0.026 A 
ATOM     16  C   UNL     1       1.409  -6.816  -0.165  0.00  0.00    +0.008 A 
ATOM     17  C   UNL     1       2.217  -7.937  -0.123  0.00  0.00    +0.040 A 
ATOM     18  C   UNL     1       2.950  -8.303  -1.239  0.00  0.00    +0.142 A 
ATOM     19  C   UNL     1       2.873  -7.546  -2.396  0.00  0.00    +0.076 A 
ATOM     20  C   UNL     1       2.059  -6.428  -2.437  0.00  0.00    +0.028 A 
ATOM     21 CL   UNL     1       3.791  -8.004  -3.797  0.00  0.00    -0.081 Cl
ATOM     22  F   UNL     1       3.741  -9.398  -1.198  0.00  0.00    -0.204 F 
ENDBRANCH  13  15
ENDBRANCH   1  13
TORSDOF 4
