REMARK  Name = ZINC09284391
REMARK  7 active torsions:
REMARK  status: ('A' for Active; 'I' for Inactive)
REMARK    1  A    between atoms: C_1  and  C_2
REMARK    2  A    between atoms: C_2  and  C_4
REMARK    3  A    between atoms: C_2  and  S_10
REMARK    4  A    between atoms: S_10  and  C_11
REMARK    5  A    between atoms: C_14  and  C_22
REMARK    6  A    between atoms: N_15  and  C_16
REMARK    7  A    between atoms: C_16  and  C_17
REMARK                            x       y       z     vdW  Elec       q    Type
REMARK                         _______ _______ _______ _____ _____    ______ ____
ROOT
ATOM      1  C   UNL     1       2.516  -4.485  -0.661  0.00  0.00    +0.193 A 
ATOM      2  N   UNL     1       1.355  -5.074  -0.483  0.00  0.00    -0.122 NA
ATOM      3  N   UNL     1       1.482  -6.347  -0.604  0.00  0.00    -0.128 NA
ATOM      4  C   UNL     1       2.734  -6.650  -0.858  0.00  0.00    +0.167 A 
ATOM      5  N   UNL     1       3.435  -5.467  -0.903  0.00  0.00    -0.295 N 
ENDROOT
BRANCH   4   6
ATOM      6  C   UNL     1       3.286  -8.007  -1.059  0.00  0.00    +0.038 A 
ATOM      7  C   UNL     1       4.103  -8.275  -2.158  0.00  0.00    +0.014 A 
ATOM      8  C   UNL     1       4.619  -9.541  -2.338  0.00  0.00    +0.021 A 
ATOM      9  C   UNL     1       4.319 -10.549  -1.437  0.00  0.00    +0.042 A 
ATOM     10  C   UNL     1       3.505 -10.291  -0.347  0.00  0.00    +0.040 A 
ATOM     11  C   UNL     1       2.987  -9.027  -0.153  0.00  0.00    +0.053 A 
ATOM     12 CL   UNL     1       1.965  -8.705   1.213  0.00  0.00    -0.083 Cl
ATOM     13 CL   UNL     1       4.967 -12.142  -1.674  0.00  0.00    -0.083 Cl
ENDBRANCH   4   6
BRANCH   1  14
ATOM     14  S   UNL     1       2.832  -2.753  -0.594  0.00  0.00    -0.073 S 
BRANCH  14  16
ATOM     15  C   UNL     1       0.723  -2.638   1.139  0.00  0.00    +0.029 C 
ATOM     16  C   UNL     1       1.164  -2.144  -0.240  0.00  0.00    +0.137 C 
BRANCH  16  17
ATOM     17  C   UNL     1       1.166  -0.637  -0.257  0.00  0.00    +0.233 C 
ATOM     18  O   UNL     1       2.207  -0.030  -0.121  0.00  0.00    -0.274 OA
ATOM     19  N   UNL     1       0.011   0.037  -0.423  0.00  0.00    -0.239 N 
ATOM     20  C   UNL     1       0.012   1.384  -0.438  0.00  0.00    +0.303 C 
ATOM     21  O   UNL     1       1.056   1.992  -0.302  0.00  0.00    -0.253 OA
ATOM     22  N   UNL     1      -1.143   2.058  -0.609  0.00  0.00    -0.313 N 
ATOM     23  H   UNL     1      -0.822  -0.449  -0.531  0.00  0.00    +0.159 HD
ATOM     24  H   UNL     1      -1.975   1.572  -0.722  0.00  0.00    +0.146 HD
ATOM     25  H   UNL     1      -1.142   3.028  -0.620  0.00  0.00    +0.146 HD
ENDBRANCH  16  17
ENDBRANCH  14  16
ENDBRANCH   1  14
BRANCH   5  26
ATOM     26  C   UNL     1       4.867  -5.296  -1.157  0.00  0.00    +0.200 C 
BRANCH  26  27
ATOM     27  C   UNL     1       5.615  -5.317   0.151  0.00  0.00    +0.125 A 
ATOM     28  C   UNL     1       6.115  -6.411   0.754  0.00  0.00    +0.046 A 
ATOM     29  C   UNL     1       6.735  -5.974   1.947  0.00  0.00    +0.041 A 
ATOM     30  C   UNL     1       6.569  -4.641   2.006  0.00  0.00    +0.195 A 
ATOM     31  O   UNL     1       5.891  -4.248   0.916  0.00  0.00    -0.466 OA
ENDBRANCH  26  27
ENDBRANCH   5  26
TORSDOF 6
