REMARK  Name = ZINC00178327
REMARK  3 active torsions:
REMARK  status: ('A' for Active; 'I' for Inactive)
REMARK    1  A    between atoms: C_3  and  N_8
REMARK    2  A    between atoms: C_9  and  C_11
REMARK    3  A    between atoms: C_15  and  N_22
REMARK                            x       y       z     vdW  Elec       q    Type
REMARK                         _______ _______ _______ _____ _____    ______ ____
ROOT
ATOM      1  C   UNL     1      -1.122  -2.163   0.214  0.00  0.00    +0.122 A 
ATOM      2  C   UNL     1       0.081  -2.848   0.194  0.00  0.00    +0.031 A 
ATOM      3  C   UNL     1       0.061  -4.261   0.300  0.00  0.00    +0.020 A 
ATOM      4  C   UNL     1       1.263  -4.986   0.288  0.00  0.00    +0.044 A 
ATOM      5  C   UNL     1       1.236  -6.348   0.385  0.00  0.00    +0.127 A 
ATOM      6  C   UNL     1       0.028  -7.022   0.495  0.00  0.00    +0.036 A 
ATOM      7  C   UNL     1      -1.164  -6.330   0.509  0.00  0.00    +0.049 A 
ATOM      8  C   UNL     1      -1.164  -4.942   0.412  0.00  0.00    +0.139 A 
ATOM      9  O   UNL     1      -2.333  -4.267   0.425  0.00  0.00    -0.422 OA
ATOM     10  C   UNL     1      -2.369  -2.927   0.333  0.00  0.00    +0.350 A 
ATOM     11  O   UNL     1      -3.438  -2.346   0.348  0.00  0.00    -0.244 OA
ENDROOT
BRANCH   1  13
ATOM     12  N   UNL     1       0.002  -0.004   0.002  0.00  0.00    -0.281 N 
ATOM     13  C   UNL     1      -1.150  -0.694   0.111  0.00  0.00    +0.255 C 
ATOM     14  O   UNL     1      -2.214  -0.104   0.124  0.00  0.00    -0.270 OA
ATOM     15  H   UNL     1       0.845  -0.477  -0.077  0.00  0.00    +0.155 HD
BRANCH  12  18
ATOM     16  C   UNL     1       0.995   3.486   0.597  0.00  0.00    +0.003 A 
ATOM     17  C   UNL     1       1.016   2.104   0.598  0.00  0.00    +0.023 A 
ATOM     18  C   UNL     1      -0.018   1.394   0.002  0.00  0.00    +0.035 A 
ATOM     19  C   UNL     1      -1.069   2.075  -0.598  0.00  0.00    +0.043 A 
ATOM     20  C   UNL     1      -1.087   3.457  -0.592  0.00  0.00    +0.043 A 
ATOM     21  C   UNL     1      -0.054   4.162   0.002  0.00  0.00    +0.020 A 
ATOM     22 CL   UNL     1      -2.402   4.310  -1.338  0.00  0.00    -0.083 Cl
ENDBRANCH  12  18
ENDBRANCH   1  13
BRANCH   5  23
ATOM     23  N   UNL     1       2.505  -7.110   0.372  0.00  0.00    +0.056 N 
ATOM     24  O   UNL     1       2.486  -8.325   0.458  0.00  0.00    -0.126 OA
ATOM     25  O   UNL     1       3.567  -6.523   0.275  0.00  0.00    -0.126 OA
ENDBRANCH   5  23
TORSDOF 3
