REMARK  Name = ZINC39667297
REMARK  12 active torsions:
REMARK  status: ('A' for Active; 'I' for Inactive)
REMARK    1  A    between atoms: C_1  and  O_2
REMARK    2  A    between atoms: O_2  and  C_3
REMARK    3  A    between atoms: C_5  and  C_13
REMARK    4  A    between atoms: C_7  and  O_11
REMARK    5  A    between atoms: C_8  and  O_9
REMARK    6  A    between atoms: O_9  and  C_10
REMARK    7  A    between atoms: O_11  and  C_12
REMARK    8  A    between atoms: C_17  and  C_26
REMARK    9  A    between atoms: N_28  and  C_29
REMARK   10  A    between atoms: C_29  and  C_30
REMARK   11  A    between atoms: C_33  and  S_36
REMARK   12  A    between atoms: S_36  and  C_37
REMARK                            x       y       z     vdW  Elec       q    Type
REMARK                         _______ _______ _______ _____ _____    ______ ____
ROOT
ATOM      1  C   UNL     1       2.395   0.361  -4.222  0.00  0.00    +0.247 C 
ATOM      2  O   UNL     1       2.258   1.569  -4.219  0.00  0.00    -0.270 OA
ATOM      3  N   UNL     1       3.081  -0.237  -5.216  0.00  0.00    -0.296 N 
ATOM      4  C   UNL     1       3.243  -1.689  -5.462  0.00  0.00    +0.121 C 
ATOM      5  C   UNL     1       3.155  -1.838  -6.997  0.00  0.00    +0.100 C 
ATOM      6  C   UNL     1       3.551  -0.458  -7.548  0.00  0.00    -0.004 C 
ATOM      7  C   UNL     1       3.838   0.410  -6.315  0.00  0.00    +0.115 C 
ATOM      8  C   UNL     1       2.401   0.141  -8.351  0.00  0.00    -0.010 C 
ATOM      9  C   UNL     1       2.839   1.486  -8.937  0.00  0.00    -0.082 C 
ATOM     10  N   UNL     1       4.012   1.289  -9.797  0.00  0.00    +0.379 N 
ATOM     11  C   UNL     1       5.142   0.800  -8.999  0.00  0.00    -0.082 C 
ATOM     12  C   UNL     1       4.801  -0.575  -8.416  0.00  0.00    -0.010 C 
ATOM     13  H   UNL     1       3.791   0.614 -10.514  0.00  0.00    -0.086 HD
ATOM     14  H   UNL     1       4.261   2.166 -10.229  0.00  0.00    -0.086 HD
ENDROOT
BRANCH   1  17
ATOM     15  C   UNL     1       1.802  -2.458  -1.810  0.00  0.00    +0.166 A 
ATOM     16  C   UNL     1       2.352  -1.700  -2.828  0.00  0.00    +0.062 A 
ATOM     17  C   UNL     1       1.810  -0.451  -3.137  0.00  0.00    +0.044 A 
ATOM     18  C   UNL     1       0.713   0.030  -2.417  0.00  0.00    +0.062 A 
ATOM     19  C   UNL     1       0.167  -0.732  -1.401  0.00  0.00    +0.166 A 
ATOM     20  C   UNL     1       0.706  -1.980  -1.098  0.00  0.00    +0.204 A 
BRANCH  15  22
ATOM     21  C   UNL     1       3.454  -4.104  -2.280  0.00  0.00    +0.277 C 
ATOM     22  O   UNL     1       2.330  -3.675  -1.509  0.00  0.00    -0.491 OA
ENDBRANCH  15  22
BRANCH  20  23
ATOM     23  O   UNL     1       0.164  -2.729  -0.102  0.00  0.00    -0.488 OA
ATOM     24  C   UNL     1       0.691  -2.538   1.212  0.00  0.00    +0.277 C 
ENDBRANCH  20  23
BRANCH  19  25
ATOM     25  O   UNL     1      -0.900  -0.265  -0.700  0.00  0.00    -0.491 OA
ATOM     26  C   UNL     1      -1.406   1.020  -1.067  0.00  0.00    +0.277 C 
ENDBRANCH  19  25
ENDBRANCH   1  17
BRANCH   5  27
ATOM     27  C   UNL     1       1.748  -2.186  -7.410  0.00  0.00    +0.218 C 
ATOM     28  O   UNL     1       0.806  -1.727  -6.800  0.00  0.00    -0.275 OA
ATOM     29  N   UNL     1       1.537  -3.007  -8.458  0.00  0.00    -0.311 N 
ATOM     30  H   UNL     1       2.291  -3.374  -8.947  0.00  0.00    +0.149 HD
BRANCH  29  31
ATOM     31  C   UNL     1       0.169  -3.345  -8.860  0.00  0.00    +0.139 C 
BRANCH  31  32
ATOM     32  C   UNL     1       0.209  -4.271 -10.048  0.00  0.00    -0.030 A 
ATOM     33  C   UNL     1       0.216  -3.749 -11.329  0.00  0.00    +0.006 A 
ATOM     34  C   UNL     1       0.252  -4.595 -12.420  0.00  0.00    +0.015 A 
ATOM     35  C   UNL     1       0.282  -5.971 -12.230  0.00  0.00    +0.008 A 
ATOM     36  C   UNL     1       0.276  -6.492 -10.942  0.00  0.00    +0.015 A 
ATOM     37  C   UNL     1       0.245  -5.640  -9.855  0.00  0.00    +0.006 A 
BRANCH  35  38
ATOM     38  S   UNL     1       0.328  -7.054 -13.620  0.00  0.00    -0.129 S 
ATOM     39  C   UNL     1       0.357  -8.711 -12.884  0.00  0.00    +0.090 C 
ENDBRANCH  35  38
ENDBRANCH  31  32
ENDBRANCH  29  31
ENDBRANCH   5  27
TORSDOF 8
