REMARK  Name = ZINC63492599
REMARK  6 active torsions:
REMARK  status: ('A' for Active; 'I' for Inactive)
REMARK    1  A    between atoms: C_4  and  C_7
REMARK    2  A    between atoms: C_7  and  N_8
REMARK    3  A    between atoms: C_11  and  C_14
REMARK    4  A    between atoms: C_14  and  C_15
REMARK    5  A    between atoms: C_15  and  N_16
REMARK    6  A    between atoms: C_17  and  C_19
REMARK                            x       y       z     vdW  Elec       q    Type
REMARK                         _______ _______ _______ _____ _____    ______ ____
ROOT
ATOM      1  N   UNL     1       7.220  -3.593   6.472  0.00  0.00    -0.315 N 
ATOM      2  C   UNL     1       8.393  -4.195   6.753  0.00  0.00    +0.218 C 
ATOM      3  O   UNL     1       9.086  -4.622   5.853  0.00  0.00    -0.275 OA
ATOM      4  H   UNL     1       6.666  -3.252   7.192  0.00  0.00    +0.149 HD
ENDROOT
BRANCH   2   5
ATOM      5  C   UNL     1       8.844  -4.336   8.184  0.00  0.00    +0.092 C 
ATOM      6  C   UNL     1       7.815  -5.156   8.965  0.00  0.00    +0.016 C 
ATOM      7  C   UNL     1       8.255  -5.272  10.426  0.00  0.00    +0.020 C 
ATOM      8  C   UNL     1       9.602  -5.999  10.492  0.00  0.00    +0.106 C 
ATOM      9  N   UNL     1      10.561  -5.298   9.627  0.00  0.00    -0.316 N 
ATOM     10  C   UNL     1      10.198  -5.051   8.224  0.00  0.00    +0.119 C 
ATOM     11  C   UNL     1      11.751  -4.888  10.110  0.00  0.00    +0.132 C 
ATOM     12  N   UNL     1      12.044  -4.996  11.394  0.00  0.00    -0.222 NA
ATOM     13  C   UNL     1      13.222  -4.669  11.914  0.00  0.00    +0.225 C 
ATOM     14  N   UNL     1      14.309  -4.506  11.170  0.00  0.00    -0.218 NA
ATOM     15  C   UNL     1      14.139  -4.623   9.856  0.00  0.00    +0.164 C 
ATOM     16  N   UNL     1      14.883  -5.041   8.877  0.00  0.00    -0.219 NA
ATOM     17  C   UNL     1      14.150  -5.306   7.788  0.00  0.00    +0.218 C 
ATOM     18  N   UNL     1      12.906  -4.932   7.902  0.00  0.00    -0.253 NA
ATOM     19  C   UNL     1      12.799  -4.294   9.208  0.00  0.00    +0.237 C 
ENDBRANCH   2   5
BRANCH   1  20
ATOM     20  C   UNL     1       6.781  -3.456   5.081  0.00  0.00    +0.104 C 
BRANCH  20  21
ATOM     21  C   UNL     1       5.428  -2.743   5.041  0.00  0.00    +0.022 C 
BRANCH  21  25
ATOM     22  N   UNL     1       4.082  -0.867   1.443  0.00  0.00    +0.382 N 
ATOM     23  C   UNL     1       3.141  -1.784   2.097  0.00  0.00    -0.078 C 
ATOM     24  C   UNL     1       3.561  -1.999   3.553  0.00  0.00    -0.015 C 
ATOM     25  C   UNL     1       4.970  -2.599   3.589  0.00  0.00    -0.013 C 
ATOM     26  C   UNL     1       5.929  -1.670   2.839  0.00  0.00    -0.015 C 
ATOM     27  C   UNL     1       5.421  -1.467   1.410  0.00  0.00    -0.078 C 
ATOM     28  H   UNL     1       4.116   0.000   1.958  0.00  0.00    -0.081 HD
BRANCH  22  29
ATOM     29  C   UNL     1       3.631  -0.603   0.070  0.00  0.00    -0.043 C 
BRANCH  29  33
ATOM     30  C   UNL     1      -0.109   1.458   0.169  0.00  0.00    +0.000 A 
ATOM     31  C   UNL     1       1.074   2.173   0.166  0.00  0.00    +0.000 A 
ATOM     32  C   UNL     1       2.285   1.506   0.134  0.00  0.00    +0.002 A 
ATOM     33  C   UNL     1       2.312   0.124   0.106  0.00  0.00    -0.064 A 
ATOM     34  C   UNL     1       1.129  -0.591   0.110  0.00  0.00    +0.002 A 
ATOM     35  C   UNL     1      -0.082   0.076   0.140  0.00  0.00    +0.000 A 
ENDBRANCH  29  33
ENDBRANCH  22  29
ENDBRANCH  21  25
ENDBRANCH  20  21
ENDBRANCH   1  20
TORSDOF 6
