REMARK  Name = ZINC10644930
REMARK  9 active torsions:
REMARK  status: ('A' for Active; 'I' for Inactive)
REMARK    1  A    between atoms: C_1  and  C_2
REMARK    2  A    between atoms: C_4  and  C_29
REMARK    3  A    between atoms: C_8  and  N_28
REMARK    4  A    between atoms: C_9  and  C_11
REMARK    5  A    between atoms: C_11  and  O_13
REMARK    6  A    between atoms: O_13  and  C_14
REMARK    7  A    between atoms: C_14  and  C_15
REMARK    8  A    between atoms: N_17  and  C_18
REMARK    9  A    between atoms: C_23  and  C_24
REMARK                            x       y       z     vdW  Elec       q    Type
REMARK                         _______ _______ _______ _____ _____    ______ ____
ROOT
ATOM      1  C   UNL     1       0.934  -0.925   4.602  0.00  0.00    +0.348 C 
ATOM      2  O   UNL     1       1.267   0.228   4.809  0.00  0.00    -0.244 OA
ENDROOT
BRANCH   1  11
ATOM      3  C   UNL     1      -2.723   1.358   1.133  0.00  0.00    +0.044 C 
ATOM      4  C   UNL     1      -2.770  -0.146   1.211  0.00  0.00    -0.037 A 
ATOM      5  C   UNL     1      -3.670  -0.857   0.452  0.00  0.00    +0.025 A 
ATOM      6  C   UNL     1      -3.712  -2.241   0.525  0.00  0.00    +0.014 A 
ATOM      7  N   UNL     1      -2.889  -2.893   1.324  0.00  0.00    -0.353 N 
ATOM      8  C   UNL     1      -2.010  -2.259   2.070  0.00  0.00    +0.088 A 
ATOM      9  C   UNL     1      -1.884  -0.851   2.063  0.00  0.00    +0.030 A 
ATOM     10  C   UNL     1      -0.857  -0.318   2.945  0.00  0.00    +0.055 A 
ATOM     11  C   UNL     1      -0.108  -1.206   3.688  0.00  0.00    +0.119 A 
ATOM     12  S   UNL     1      -0.778  -2.793   3.231  0.00  0.00    -0.062 S 
ATOM     13  C   UNL     1      -4.704  -3.006  -0.313  0.00  0.00    +0.063 C 
ATOM     14  H   UNL     1      -2.933  -3.861   1.363  0.00  0.00    +0.166 HD
BRANCH  10  15
ATOM     15  N   UNL     1      -0.635   1.048   3.034  0.00  0.00    -0.356 N 
ATOM     16  H   UNL     1      -0.874   1.628   2.295  0.00  0.00    +0.142 HD
ATOM     17  H   UNL     1      -0.240   1.423   3.837  0.00  0.00    +0.142 HD
ENDBRANCH  10  15
ENDBRANCH   1  11
BRANCH   1  18
ATOM     18  O   UNL     1       1.559  -1.934   5.244  0.00  0.00    -0.451 OA
BRANCH  18  19
ATOM     19  C   UNL     1       2.603  -1.576   6.153  0.00  0.00    +0.328 C 
BRANCH  19  20
ATOM     20  C   UNL     1       3.179  -2.824   6.771  0.00  0.00    +0.255 C 
ATOM     21  O   UNL     1       2.741  -3.912   6.464  0.00  0.00    -0.272 OA
ATOM     22  N   UNL     1       4.183  -2.731   7.666  0.00  0.00    -0.282 N 
ATOM     23  H   UNL     1       4.483  -1.859   7.970  0.00  0.00    +0.155 HD
BRANCH  22  24
ATOM     24  C   UNL     1       4.793  -3.890   8.156  0.00  0.00    +0.045 A 
ATOM     25  C   UNL     1       4.143  -5.114   8.059  0.00  0.00    +0.024 A 
ATOM     26  C   UNL     1       4.747  -6.256   8.544  0.00  0.00    +0.002 A 
ATOM     27  C   UNL     1       5.999  -6.184   9.127  0.00  0.00    +0.001 A 
ATOM     28  C   UNL     1       6.650  -4.968   9.226  0.00  0.00    +0.014 A 
ATOM     29  C   UNL     1       6.053  -3.822   8.736  0.00  0.00    +0.076 A 
BRANCH  29  30
ATOM     30  C   UNL     1       6.766  -2.498   8.838  0.00  0.00    +0.419 C 
ATOM     31  F   UNL     1       8.008  -2.683   9.455  0.00  0.00    -0.166 F 
ATOM     32  F   UNL     1       6.955  -1.970   7.556  0.00  0.00    -0.166 F 
ATOM     33  F   UNL     1       5.995  -1.611   9.598  0.00  0.00    -0.166 F 
ENDBRANCH  29  30
ENDBRANCH  22  24
ENDBRANCH  19  20
ENDBRANCH  18  19
ENDBRANCH   1  18
TORSDOF 7
