REMARK  Name = ZINC09133816
REMARK  5 active torsions:
REMARK  status: ('A' for Active; 'I' for Inactive)
REMARK    1  A    between atoms: C_1  and  C_2
REMARK    2  A    between atoms: C_2  and  O_3
REMARK    3  A    between atoms: O_3  and  C_4
REMARK    4  A    between atoms: C_11  and  C_13
REMARK    5  A    between atoms: C_19  and  C_21
REMARK                            x       y       z     vdW  Elec       q    Type
REMARK                         _______ _______ _______ _____ _____    ______ ____
ROOT
ATOM      1  C   UNL     1      -4.833   2.553   0.059  0.00  0.00    +0.287 C 
ATOM      2  O   UNL     1      -5.487   1.527   0.061  0.00  0.00    -0.266 OA
ATOM      3  N   UNL     1      -5.455   3.748   0.071  0.00  0.00    -0.232 N 
ATOM      4  C   UNL     1      -6.838   3.809   0.085  0.00  0.00    +0.315 A 
ATOM      5  N   UNL     1      -7.660   2.787   0.082  0.00  0.00    -0.092 NA
ATOM      6  N   UNL     1      -8.873   3.213   0.100  0.00  0.00    -0.106 NA
ATOM      7  C   UNL     1      -8.874   4.524   0.107  0.00  0.00    +0.250 A 
ATOM      8  O   UNL     1      -7.586   4.929   0.097  0.00  0.00    -0.405 OA
ATOM      9  H   UNL     1      -4.934   4.566   0.070  0.00  0.00    +0.160 HD
ENDROOT
BRANCH   7  10
ATOM     10  C   UNL     1     -10.066   5.399   0.122  0.00  0.00    +0.039 A 
ATOM     11  C   UNL     1      -9.919   6.787   0.134  0.00  0.00    +0.013 A 
ATOM     12  C   UNL     1     -11.038   7.589   0.144  0.00  0.00    +0.004 A 
ATOM     13  C   UNL     1     -12.312   7.031   0.156  0.00  0.00    -0.044 A 
ATOM     14  C   UNL     1     -12.463   5.661   0.147  0.00  0.00    -0.043 A 
ATOM     15  C   UNL     1     -11.343   4.844   0.131  0.00  0.00    +0.017 A 
ATOM     16  C   UNL     1     -13.814   4.994   0.149  0.00  0.00    +0.035 C 
ATOM     17  C   UNL     1     -14.897   5.974   0.596  0.00  0.00    +0.005 C 
ATOM     18  C   UNL     1     -14.765   7.253  -0.240  0.00  0.00    +0.005 C 
ATOM     19  C   UNL     1     -13.487   7.975   0.182  0.00  0.00    +0.035 C 
ENDBRANCH   7  10
BRANCH   1  27
ATOM     20  C   UNL     1      -0.043   3.862   0.022  0.00  0.00    +0.163 A 
ATOM     21  C   UNL     1       1.151   3.165   0.008  0.00  0.00    +0.049 A 
ATOM     22  C   UNL     1       1.160   1.777   0.001  0.00  0.00    +0.004 A 
ATOM     23  C   UNL     1      -0.013   1.076   0.008  0.00  0.00    +0.012 A 
ATOM     24  C   UNL     1      -1.231   1.760   0.017  0.00  0.00    +0.025 A 
ATOM     25  C   UNL     1      -1.251   3.166   0.030  0.00  0.00    +0.177 A 
ATOM     26  O   UNL     1      -2.541   3.556   0.043  0.00  0.00    -0.447 OA
ATOM     27  C   UNL     1      -3.366   2.488   0.045  0.00  0.00    +0.191 A 
ATOM     28  C   UNL     1      -2.633   1.344   0.033  0.00  0.00    +0.063 A 
BRANCH  20  29
ATOM     29  O   UNL     1      -0.038   5.222   0.029  0.00  0.00    -0.489 OA
BRANCH  29  31
ATOM     30  C   UNL     1       1.041   7.384   0.029  0.00  0.00    +0.048 C 
ATOM     31  C   UNL     1       1.237   5.867   0.020  0.00  0.00    +0.226 C 
ENDBRANCH  29  31
ENDBRANCH  20  29
ENDBRANCH   1  27
TORSDOF 4
