REMARK  Name = ZINC05252220
REMARK  6 active torsions:
REMARK  status: ('A' for Active; 'I' for Inactive)
REMARK    1  A    between atoms: C_1  and  C_2
REMARK    2  A    between atoms: C_3  and  C_4
REMARK    3  A    between atoms: C_4  and  N_5
REMARK    4  A    between atoms: N_13  and  C_27
REMARK    5  A    between atoms: C_16  and  S_17
REMARK    6  A    between atoms: S_17  and  C_18
REMARK                            x       y       z     vdW  Elec       q    Type
REMARK                         _______ _______ _______ _____ _____    ______ ____
ROOT
ATOM      1  N   UNL     1      -4.102   5.208   0.069  0.00  0.00    -0.309 N 
ATOM      2  C   UNL     1      -5.184   4.339   0.075  0.00  0.00    +0.152 A 
ATOM      3  C   UNL     1      -6.580   4.506   0.089  0.00  0.00    +0.280 A 
ATOM      4  O   UNL     1      -7.067   5.623   0.101  0.00  0.00    -0.265 OA
ATOM      5  N   UNL     1      -7.375   3.416   0.092  0.00  0.00    -0.273 N 
ATOM      6  H   UNL     1      -8.368   3.530   0.102  0.00  0.00    +0.173 HD
ATOM      7  C   UNL     1      -6.852   2.177   0.080  0.00  0.00    +0.331 A 
ATOM      8  O   UNL     1      -7.599   1.218   0.082  0.00  0.00    -0.246 OA
ATOM      9  N   UNL     1      -5.521   1.973   0.066  0.00  0.00    -0.280 N 
ATOM     10  C   UNL     1      -4.653   3.054   0.063  0.00  0.00    +0.169 A 
ATOM     11  N   UNL     1      -3.324   3.167   0.045  0.00  0.00    -0.203 NA
ATOM     12  C   UNL     1      -2.981   4.439   0.054  0.00  0.00    +0.181 A 
ATOM     13  C   UNL     1      -4.990   0.608   0.053  0.00  0.00    +0.155 C 
ENDROOT
BRANCH   1  14
ATOM     14  C   UNL     1      -4.157   6.672   0.077  0.00  0.00    +0.151 C 
BRANCH  14  17
ATOM     15  C   UNL     1      -5.185   8.488  -3.147  0.00  0.00    +0.035 C 
ATOM     16  C   UNL     1      -5.153   7.980  -1.729  0.00  0.00    -0.033 C 
ATOM     17  C   UNL     1      -4.189   7.181  -1.341  0.00  0.00    -0.010 C 
ENDBRANCH  14  17
ENDBRANCH   1  14
BRANCH  12  18
ATOM     18  S   UNL     1      -1.327   5.047   0.042  0.00  0.00    +0.007 S 
BRANCH  18  19
ATOM     19  C   UNL     1      -0.441   3.525   0.025  0.00  0.00    +0.266 A 
ATOM     20  N   UNL     1       0.863   3.416   0.012  0.00  0.00    -0.203 NA
ATOM     21  C   UNL     1       1.191   2.095   0.002  0.00  0.00    +0.110 A 
ATOM     22  C   UNL     1       2.403   1.404  -0.013  0.00  0.00    +0.031 A 
ATOM     23  C   UNL     1       2.404   0.026  -0.021  0.00  0.00    +0.002 A 
ATOM     24  C   UNL     1       1.208  -0.676  -0.013  0.00  0.00    +0.004 A 
ATOM     25  C   UNL     1       0.002  -0.004   0.002  0.00  0.00    +0.048 A 
ATOM     26  C   UNL     1      -0.017   1.381   0.010  0.00  0.00    +0.156 A 
ATOM     27  O   UNL     1      -1.006   2.304   0.019  0.00  0.00    -0.430 OA
ENDBRANCH  18  19
ENDBRANCH  12  18
TORSDOF 4
