REMARK  Name = ZINC40362497
REMARK  11 active torsions:
REMARK  status: ('A' for Active; 'I' for Inactive)
REMARK    1  A    between atoms: C_1  and  C_2
REMARK    2  A    between atoms: C_2  and  O_3
REMARK    3  A    between atoms: O_3  and  N_4
REMARK    4  A    between atoms: C_5  and  C_7
REMARK    5  A    between atoms: C_11  and  C_20
REMARK    6  A    between atoms: C_14  and  C_16
REMARK    7  A    between atoms: C_17  and  C_18
REMARK    8  A    between atoms: C_17  and  C_19
REMARK    9  A    between atoms: C_20  and  C_21
REMARK   10  A    between atoms: C_21  and  C_22
REMARK   11  A    between atoms: C_21  and  C_23
REMARK                            x       y       z     vdW  Elec       q    Type
REMARK                         _______ _______ _______ _____ _____    ______ ____
ROOT
ATOM      1  C   UNL     1      -2.612  -4.645   0.034  0.00  0.00    +0.175 C 
ATOM      2  C   UNL     1      -1.743  -5.375  -1.032  0.00  0.00    +0.103 C 
ATOM      3  S   UNL     1      -3.072  -5.735  -2.266  0.00  0.00    -0.136 S 
ATOM      4  C   UNL     1      -4.463  -5.897  -1.067  0.00  0.00    +0.135 C 
ATOM      5  N   UNL     1      -3.921  -5.281   0.157  0.00  0.00    -0.274 N 
ATOM      6  C   UNL     1      -4.596  -5.303   1.323  0.00  0.00    +0.241 C 
ATOM      7  O   UNL     1      -5.684  -5.843   1.386  0.00  0.00    -0.271 OA
ENDROOT
BRANCH   1   9
ATOM      8  N   UNL     1      -1.723  -2.406  -0.528  0.00  0.00    -0.193 N 
ATOM      9  C   UNL     1      -2.797  -3.207  -0.377  0.00  0.00    +0.257 C 
ATOM     10  O   UNL     1      -3.911  -2.769  -0.572  0.00  0.00    -0.272 OA
ATOM     11  H   UNL     1      -0.832  -2.756  -0.373  0.00  0.00    +0.182 HD
BRANCH   8  12
ATOM     12  O   UNL     1      -1.896  -1.055  -0.914  0.00  0.00    -0.280 OA
BRANCH  12  14
ATOM     13  C   UNL     1      -0.980   1.115  -1.456  0.00  0.00    +0.036 C 
ATOM     14  C   UNL     1      -0.674  -0.325  -1.037  0.00  0.00    +0.187 C 
ENDBRANCH  12  14
ENDBRANCH   8  12
ENDBRANCH   1   9
BRANCH   6  15
ATOM     15  C   UNL     1      -4.018  -4.674   2.521  0.00  0.00    +0.066 C 
ATOM     16  C   UNL     1      -4.732  -4.591   3.639  0.00  0.00    -0.071 C 
ATOM     17  C   UNL     1      -6.185  -4.992   3.637  0.00  0.00    +0.039 C 
ATOM     18  C   UNL     1      -4.089  -4.095   4.909  0.00  0.00    +0.039 C 
ENDBRANCH   6  15
BRANCH   4  19
ATOM     19  C   UNL     1      -5.694  -5.135  -1.561  0.00  0.00    +0.036 C 
BRANCH  19  20
ATOM     20  C   UNL     1      -6.233  -5.803  -2.828  0.00  0.00    -0.015 C 
ATOM     21  C   UNL     1      -6.735  -7.209  -2.489  0.00  0.00    +0.007 C 
ATOM     22  C   UNL     1      -7.387  -4.972  -3.392  0.00  0.00    +0.007 C 
ENDBRANCH  19  20
ENDBRANCH   4  19
TORSDOF 6
