REMARK  Name = ZINC43929637
REMARK  8 active torsions:
REMARK  status: ('A' for Active; 'I' for Inactive)
REMARK    1  A    between atoms: C_1  and  C_2
REMARK    2  A    between atoms: C_2  and  C_24
REMARK    3  A    between atoms: C_4  and  N_10
REMARK    4  A    between atoms: C_6  and  C_8
REMARK    5  A    between atoms: C_6  and  C_9
REMARK    6  A    between atoms: N_13  and  C_14
REMARK    7  A    between atoms: C_19  and  S_20
REMARK    8  A    between atoms: S_20  and  C_23
REMARK                            x       y       z     vdW  Elec       q    Type
REMARK                         _______ _______ _______ _____ _____    ______ ____
ROOT
ATOM      1  N   UNL     1       2.607  -0.808  -2.634  0.00  0.00    -0.296 N 
ATOM      2  C   UNL     1       3.768  -0.332  -3.125  0.00  0.00    +0.304 C 
ATOM      3  O   UNL     1       4.377   0.529  -2.519  0.00  0.00    -0.253 OA
ATOM      4  N   UNL     1       4.255  -0.809  -4.288  0.00  0.00    -0.268 N 
ATOM      5  H   UNL     1       2.121  -1.494  -3.118  0.00  0.00    +0.151 HD
ATOM      6  H   UNL     1       3.813  -1.552  -4.730  0.00  0.00    +0.156 HD
ENDROOT
BRANCH   1  10
ATOM      7  C   UNL     1      -0.021   1.557  -0.008  0.00  0.00    -0.010 C 
ATOM      8  C   UNL     1      -0.013   0.024  -0.018  0.00  0.00    -0.072 C 
ATOM      9  C   UNL     1       0.561  -0.479  -1.339  0.00  0.00    +0.009 C 
ATOM     10  C   UNL     1       2.078  -0.288  -1.368  0.00  0.00    +0.072 C 
ATOM     11  C   UNL     1       2.680  -1.079  -0.206  0.00  0.00    +0.009 C 
ATOM     12  C   UNL     1       2.122  -0.580   1.123  0.00  0.00    -0.072 C 
ATOM     13  N   UNL     1       0.671  -0.508   1.147  0.00  0.00    +0.386 N 
ATOM     14  C   UNL     1       2.753   0.770   1.476  0.00  0.00    -0.010 C 
ATOM     15  C   UNL     1       2.561  -1.585   2.213  0.00  0.00    -0.010 C 
ATOM     16  C   UNL     1      -1.487  -0.437   0.050  0.00  0.00    -0.010 C 
ATOM     17  H   UNL     1       0.391   0.044   1.963  0.00  0.00    -0.084 HD
ATOM     18  H   UNL     1       0.307  -1.448   1.330  0.00  0.00    -0.084 HD
ENDBRANCH   1  10
BRANCH   4  19
ATOM     19  C   UNL     1       5.396  -0.235  -4.858  0.00  0.00    +0.060 A 
ATOM     20  C   UNL     1       5.733   1.081  -4.565  0.00  0.00    +0.025 A 
ATOM     21  C   UNL     1       6.861   1.644  -5.129  0.00  0.00    +0.002 A 
ATOM     22  C   UNL     1       7.654   0.901  -5.984  0.00  0.00    +0.002 A 
ATOM     23  C   UNL     1       7.321  -0.408  -6.277  0.00  0.00    +0.029 A 
ATOM     24  C   UNL     1       6.198  -0.980  -5.712  0.00  0.00    +0.109 A 
BRANCH  24  25
ATOM     25  S   UNL     1       5.779  -2.651  -6.080  0.00  0.00    -0.004 S 
ATOM     26  O   UNL     1       4.416  -2.604  -6.480  0.00  0.00    -0.170 OA
ATOM     27  O   UNL     1       6.784  -3.086  -6.986  0.00  0.00    -0.170 OA
ATOM     28  C   UNL     1       5.936  -3.531  -4.502  0.00  0.00    +0.200 C 
ENDBRANCH  24  25
ENDBRANCH   4  19
TORSDOF 3
