REMARK  Name = ZINC52301638
REMARK  6 active torsions:
REMARK  status: ('A' for Active; 'I' for Inactive)
REMARK    1  A    between atoms: C_1  and  C_2
REMARK    2  A    between atoms: C_5  and  N_7
REMARK    3  A    between atoms: N_7  and  C_8
REMARK    4  A    between atoms: C_8  and  C_9
REMARK    5  A    between atoms: C_8  and  C_10
REMARK    6  A    between atoms: C_8  and  C_20
REMARK                            x       y       z     vdW  Elec       q    Type
REMARK                         _______ _______ _______ _____ _____    ______ ____
ROOT
ATOM      1  C   UNL     1       2.018  -0.707   3.172  0.00  0.00    +0.092 C 
ATOM      2  C   UNL     1       3.121  -1.480   2.446  0.00  0.00    +0.010 C 
ENDROOT
BRANCH   1   3
ATOM      3  C   UNL     1       2.632   0.160   4.241  0.00  0.00    +0.106 A 
ATOM      4  C   UNL     1       3.362  -0.292   5.270  0.00  0.00    +0.052 A 
ATOM      5  C   UNL     1       3.750   0.891   6.047  0.00  0.00    +0.021 A 
ATOM      6  C   UNL     1       4.496   1.093   7.207  0.00  0.00    +0.027 A 
ATOM      7  C   UNL     1       4.676   2.372   7.687  0.00  0.00    +0.019 A 
ATOM      8  C   UNL     1       4.118   3.454   7.020  0.00  0.00    +0.019 A 
ATOM      9  C   UNL     1       3.378   3.267   5.872  0.00  0.00    +0.048 A 
ATOM     10  C   UNL     1       3.185   1.986   5.372  0.00  0.00    +0.135 A 
ATOM     11  O   UNL     1       2.532   1.499   4.297  0.00  0.00    -0.461 OA
ATOM     12 BR   UNL     1       5.687   2.655   9.260  0.00  0.00    -0.050 Br
ENDBRANCH   1   3
BRANCH   1  13
ATOM     13  N   UNL     1       1.298   0.138   2.210  0.00  0.00    +0.397 N 
ATOM     14  H   UNL     1       1.942   0.789   1.786  0.00  0.00    -0.083 HD
ATOM     15  H   UNL     1       0.571   0.647   2.688  0.00  0.00    -0.083 HD
BRANCH  13  19
ATOM     16  C   UNL     1      -0.019   1.526   0.010  0.00  0.00    +0.006 C 
ATOM     17  C   UNL     1       0.002  -0.004   0.002  0.00  0.00    -0.030 C 
ATOM     18  C   UNL     1      -0.828  -0.728   1.065  0.00  0.00    -0.014 C 
ATOM     19  C   UNL     1       0.700  -0.708   1.168  0.00  0.00    -0.067 C 
ENDBRANCH  13  19
ENDBRANCH   1  13
BRANCH   1  20
ATOM     20  C   UNL     1       1.056  -1.680   3.805  0.00  0.00    +0.352 C 
ATOM     21  O   UNL     1      -0.120  -1.670   3.484  0.00  0.00    -0.247 OA
ATOM     22  O   UNL     1       1.454  -2.476   4.638  0.00  0.00    -0.247 OA
ENDBRANCH   1  20
TORSDOF 4
