REMARK  Name = ZINC40857331
REMARK  7 active torsions:
REMARK  status: ('A' for Active; 'I' for Inactive)
REMARK    1  A    between atoms: C_1  and  C_2
REMARK    2  A    between atoms: C_2  and  C_3
REMARK    3  A    between atoms: C_3  and  C_4
REMARK    4  A    between atoms: C_4  and  C_5
REMARK    5  A    between atoms: C_4  and  C_6
REMARK    6  A    between atoms: C_4  and  N_22
REMARK    7  A    between atoms: C_10  and  C_19
REMARK                            x       y       z     vdW  Elec       q    Type
REMARK                         _______ _______ _______ _____ _____    ______ ____
ROOT
ATOM      1  C   UNL     1      -2.908  -2.721  -0.101  0.00  0.00    +0.208 C 
ATOM      2  O   UNL     1      -1.738  -2.445   0.056  0.00  0.00    -0.277 OA
ATOM      3  N   UNL     1      -3.252  -3.868  -0.720  0.00  0.00    -0.265 N 
ATOM      4  C   UNL     1      -4.664  -4.255  -0.878  0.00  0.00    +0.168 C 
ATOM      5  C   UNL     1      -4.836  -4.814  -2.297  0.00  0.00    +0.276 C 
ATOM      6  O   UNL     1      -3.950  -5.923  -2.466  0.00  0.00    -0.476 OA
ATOM      7  C   UNL     1      -2.649  -5.755  -2.111  0.00  0.00    +0.143 A 
ATOM      8  C   UNL     1      -2.275  -4.734  -1.242  0.00  0.00    +0.078 A 
ATOM      9  C   UNL     1      -0.945  -4.574  -0.890  0.00  0.00    +0.027 A 
ATOM     10  C   UNL     1       0.012  -5.426  -1.409  0.00  0.00    +0.002 A 
ATOM     11  C   UNL     1      -0.357  -6.436  -2.278  0.00  0.00    +0.004 A 
ATOM     12  C   UNL     1      -1.682  -6.606  -2.622  0.00  0.00    +0.047 A 
ENDROOT
BRANCH   5  13
ATOM     13  C   UNL     1      -6.260  -5.268  -2.493  0.00  0.00    +0.253 C 
ATOM     14  O   UNL     1      -6.503  -6.442  -2.673  0.00  0.00    -0.272 OA
ATOM     15  N   UNL     1      -7.263  -4.368  -2.467  0.00  0.00    -0.326 N 
ATOM     16  H   UNL     1      -7.068  -3.429  -2.323  0.00  0.00    +0.145 HD
ATOM     17  H   UNL     1      -8.179  -4.660  -2.593  0.00  0.00    +0.145 HD
ENDBRANCH   5  13
BRANCH   1  18
ATOM     18  C   UNL     1      -3.978  -1.783   0.395  0.00  0.00    +0.005 C 
ATOM     19  C   UNL     1      -4.728  -1.189  -0.798  0.00  0.00    -0.001 C 
BRANCH  18  20
ATOM     20  N   UNL     1      -4.919  -2.521   1.248  0.00  0.00    +0.387 N 
ATOM     21  H   UNL     1      -5.697  -1.923   1.485  0.00  0.00    -0.089 HD
ATOM     22  H   UNL     1      -5.257  -3.332   0.752  0.00  0.00    -0.089 HD
ATOM     23  H   UNL     1      -4.450  -2.813   2.092  0.00  0.00    -0.089 HD
ENDBRANCH  18  20
BRANCH  18  24
ATOM     24  C   UNL     1      -3.332  -0.656   1.204  0.00  0.00    -0.004 C 
BRANCH  24  26
ATOM     25  C   UNL     1      -3.779   1.353   2.620  0.00  0.00    +0.004 C 
ATOM     26  C   UNL     1      -4.425   0.226   1.812  0.00  0.00    -0.004 C 
ENDBRANCH  24  26
ENDBRANCH  18  24
ENDBRANCH   1  18
TORSDOF 5
