REMARK  Name = ZINC37251494
REMARK  5 active torsions:
REMARK  status: ('A' for Active; 'I' for Inactive)
REMARK    1  A    between atoms: C_1  and  C_2
REMARK    2  A    between atoms: C_7  and  N_10
REMARK    3  A    between atoms: N_10  and  C_11
REMARK    4  A    between atoms: C_14  and  C_20
REMARK    5  A    between atoms: C_16  and  N_17
REMARK                            x       y       z     vdW  Elec       q    Type
REMARK                         _______ _______ _______ _____ _____    ______ ____
ROOT
ATOM      1  C   UNL     1       1.034  -3.717   3.110  0.00  0.00    +0.058 A 
ATOM      2  C   UNL     1       0.022  -4.485   2.548  0.00  0.00    +0.026 A 
ATOM      3  C   UNL     1      -0.083  -5.825   2.865  0.00  0.00    +0.014 A 
ATOM      4  C   UNL     1       0.817  -6.403   3.741  0.00  0.00    +0.057 A 
ATOM      5  C   UNL     1       1.825  -5.641   4.303  0.00  0.00    +0.047 A 
ATOM      6  C   UNL     1       1.940  -4.302   3.986  0.00  0.00    +0.147 A 
ENDROOT
BRANCH   4   7
ATOM      7  C   UNL     1       0.699  -7.865   4.085  0.00  0.00    +0.417 C 
ATOM      8  F   UNL     1      -0.388  -8.419   3.400  0.00  0.00    -0.166 F 
ATOM      9  F   UNL     1       1.873  -8.528   3.711  0.00  0.00    -0.166 F 
ATOM     10  F   UNL     1       0.503  -8.006   5.463  0.00  0.00    -0.166 F 
ENDBRANCH   4   7
BRANCH   6  11
ATOM     11  N   UNL     1       3.023  -3.489   4.583  0.00  0.00    +0.058 N 
ATOM     12  O   UNL     1       3.573  -2.637   3.924  0.00  0.00    -0.126 OA
ATOM     13  O   UNL     1       3.357  -3.676   5.729  0.00  0.00    -0.126 OA
ENDBRANCH   6  11
BRANCH   1  14
ATOM     14  N   UNL     1       1.144  -2.362   2.791  0.00  0.00    -0.339 N 
ATOM     15  H   UNL     1       1.798  -1.808   3.245  0.00  0.00    +0.146 HD
BRANCH  14  21
ATOM     16  C   UNL     1      -0.935   1.837   1.213  0.00  0.00    +0.007 C 
ATOM     17  C   UNL     1      -0.788   0.336   0.958  0.00  0.00    -0.012 C 
ATOM     18  C   UNL     1      -0.175   0.111  -0.426  0.00  0.00    +0.003 C 
ATOM     19  C   UNL     1      -0.028  -1.391  -0.680  0.00  0.00    +0.002 C 
ATOM     20  C   UNL     1       0.884  -2.002   0.386  0.00  0.00    +0.022 C 
ATOM     21  C   UNL     1       0.271  -1.777   1.770  0.00  0.00    +0.071 C 
ATOM     22  C   UNL     1       0.124  -0.275   2.025  0.00  0.00    +0.025 C 
ENDBRANCH  14  21
ENDBRANCH   1  14
TORSDOF 4
