REMARK  Name = ZINC54415087
REMARK  3 active torsions:
REMARK  status: ('A' for Active; 'I' for Inactive)
REMARK    1  A    between atoms: C_3  and  N_19
REMARK    2  A    between atoms: C_4  and  N_18
REMARK    3  A    between atoms: C_6  and  C_7
REMARK                            x       y       z     vdW  Elec       q    Type
REMARK                         _______ _______ _______ _____ _____    ______ ____
ROOT
ATOM      1  C   UNL     1       0.365   1.129  -0.172  0.00  0.00    +0.015 A 
ATOM      2  C   UNL     1       1.708   1.446  -0.223  0.00  0.00    +0.035 A 
ATOM      3  C   UNL     1       2.661   0.475   0.019  0.00  0.00    +0.147 A 
ATOM      4  C   UNL     1       2.274  -0.827   0.315  0.00  0.00    +0.056 A 
ATOM      5  C   UNL     1       0.928  -1.155   0.369  0.00  0.00    +0.038 A 
ATOM      6  C   UNL     1      -0.034  -0.175   0.125  0.00  0.00    +0.039 A 
ENDROOT
BRANCH   6   7
ATOM      7  C   UNL     1      -1.471  -0.516   0.180  0.00  0.00    +0.247 C 
ATOM      8  O   UNL     1      -1.820  -1.616   0.563  0.00  0.00    -0.270 OA
ATOM      9  N   UNL     1      -2.394   0.391  -0.194  0.00  0.00    -0.294 N 
ATOM     10  C   UNL     1      -2.146   1.797  -0.575  0.00  0.00    +0.112 C 
ATOM     11  C   UNL     1      -3.553   2.393  -0.890  0.00  0.00    +0.008 C 
ATOM     12  C   UNL     1      -3.955   1.715  -2.237  0.00  0.00    +0.007 C 
ATOM     13  C   UNL     1      -4.145   0.225  -1.868  0.00  0.00    +0.023 C 
ATOM     14  C   UNL     1      -3.865   0.170  -0.309  0.00  0.00    +0.077 C 
ATOM     15  C   UNL     1      -4.415   1.574   0.138  0.00  0.00    +0.027 C 
ENDBRANCH   6   7
BRANCH   4  16
ATOM     16  N   UNL     1       3.242  -1.805   0.558  0.00  0.00    -0.356 N 
ATOM     17  H   UNL     1       4.173  -1.552   0.658  0.00  0.00    +0.142 HD
ATOM     18  H   UNL     1       2.983  -2.737   0.627  0.00  0.00    +0.142 HD
ENDBRANCH   4  16
BRANCH   3  19
ATOM     19  N   UNL     1       4.099   0.822  -0.038  0.00  0.00    +0.058 N 
ATOM     20  O   UNL     1       4.478   1.895   0.371  0.00  0.00    -0.126 OA
ATOM     21  O   UNL     1       4.894   0.034  -0.494  0.00  0.00    -0.126 OA
ENDBRANCH   3  19
TORSDOF 3
