REMARK  Name = ZINC67130010
REMARK  8 active torsions:
REMARK  status: ('A' for Active; 'I' for Inactive)
REMARK    1  A    between atoms: C_1  and  C_2
REMARK    2  A    between atoms: C_2  and  C_3
REMARK    3  A    between atoms: C_2  and  C_4
REMARK    4  A    between atoms: C_4  and  C_6
REMARK    5  A    between atoms: C_4  and  N_17
REMARK    6  A    between atoms: C_18  and  C_20
REMARK    7  A    between atoms: C_20  and  N_21
REMARK    8  A    between atoms: C_26  and  C_28
REMARK                            x       y       z     vdW  Elec       q    Type
REMARK                         _______ _______ _______ _____ _____    ______ ____
ROOT
ATOM      1  N   UNL     1      -1.421  -2.141  -0.209  0.00  0.00    -0.310 N 
ATOM      2  C   UNL     1      -1.280  -2.758   0.981  0.00  0.00    +0.197 C 
ATOM      3  O   UNL     1      -1.078  -2.104   1.983  0.00  0.00    -0.278 OA
ATOM      4  H   UNL     1      -1.583  -2.663  -1.010  0.00  0.00    +0.149 HD
ENDROOT
BRANCH   1   5
ATOM      5  C   UNL     1      -1.330  -0.681  -0.292  0.00  0.00    +0.106 C 
BRANCH   5   6
ATOM      6  C   UNL     1      -2.092  -0.198  -1.499  0.00  0.00    -0.023 A 
ATOM      7  C   UNL     1      -2.033  -0.911  -2.682  0.00  0.00    +0.009 A 
ATOM      8  C   UNL     1      -2.730  -0.475  -3.794  0.00  0.00    +0.050 A 
ATOM      9  C   UNL     1      -3.490   0.680  -3.718  0.00  0.00    +0.162 A 
ATOM     10  C   UNL     1      -3.549   1.396  -2.531  0.00  0.00    +0.162 A 
ATOM     11  C   UNL     1      -2.854   0.954  -1.418  0.00  0.00    +0.055 A 
ATOM     12  O   UNL     1      -4.301   2.533  -2.466  0.00  0.00    -0.488 OA
ATOM     13  C   UNL     1      -3.826   3.641  -3.233  0.00  0.00    +0.232 C 
ATOM     14  C   UNL     1      -4.300   3.543  -4.674  0.00  0.00    +0.082 C 
ATOM     15  C   UNL     1      -3.717   2.338  -5.395  0.00  0.00    +0.232 C 
ATOM     16  O   UNL     1      -4.184   1.122  -4.807  0.00  0.00    -0.488 OA
ENDBRANCH   5   6
BRANCH   5  18
ATOM     17  C   UNL     1       0.233   1.257  -0.505  0.00  0.00    +0.009 C 
ATOM     18  C   UNL     1       0.138  -0.268  -0.417  0.00  0.00    +0.008 C 
ATOM     19  C   UNL     1       0.912  -0.758   0.808  0.00  0.00    +0.009 C 
ENDBRANCH   5  18
ENDBRANCH   1   5
BRANCH   2  20
ATOM     20  C   UNL     1      -1.374  -4.259   1.067  0.00  0.00    +0.020 C 
BRANCH  20  21
ATOM     21  N   UNL     1      -1.187  -4.682   2.462  0.00  0.00    +0.393 N 
ATOM     22  C   UNL     1      -2.317  -4.210   3.270  0.00  0.00    -0.077 C 
ATOM     23  C   UNL     1      -2.088  -4.577   4.738  0.00  0.00    -0.019 C 
ATOM     24  C   UNL     1      -1.969  -6.099   4.864  0.00  0.00    -0.003 C 
ATOM     25  C   UNL     1      -0.836  -6.590   3.959  0.00  0.00    -0.006 C 
ATOM     26  C   UNL     1      -1.111  -6.147   2.521  0.00  0.00    +0.020 C 
ATOM     27  H   UNL     1      -0.331  -4.287   2.820  0.00  0.00    -0.080 HD
BRANCH  26  28
ATOM     28  C   UNL     1       0.003  -6.628   1.626  0.00  0.00    +0.197 C 
ATOM     29  O   UNL     1       0.964  -5.918   1.419  0.00  0.00    -0.278 OA
ATOM     30  N   UNL     1      -0.070  -7.847   1.056  0.00  0.00    -0.331 N 
ATOM     31  H   UNL     1      -0.839  -8.415   1.222  0.00  0.00    +0.145 HD
ATOM     32  H   UNL     1       0.647  -8.157   0.481  0.00  0.00    +0.145 HD
ENDBRANCH  26  28
ENDBRANCH  20  21
ENDBRANCH   2  20
TORSDOF 6
