REMARK  Name = ZINC16043186
REMARK  8 active torsions:
REMARK  status: ('A' for Active; 'I' for Inactive)
REMARK    1  A    between atoms: C_1  and  O_2
REMARK    2  A    between atoms: O_2  and  C_3
REMARK    3  A    between atoms: C_6  and  O_25
REMARK    4  A    between atoms: C_7  and  C_9
REMARK    5  A    between atoms: C_17  and  O_24
REMARK    6  A    between atoms: C_20  and  C_21
REMARK    7  A    between atoms: C_20  and  N_53
REMARK    8  A    between atoms: O_25  and  C_26
REMARK                            x       y       z     vdW  Elec       q    Type
REMARK                         _______ _______ _______ _____ _____    ______ ____
ROOT
ATOM      1  C   UNL     1       1.149   1.869  -0.267  0.00  0.00    -0.027 C 
ATOM      2  C   UNL     1      -0.349   1.561  -0.366  0.00  0.00    +0.011 C 
ATOM      3  C   UNL     1      -1.043   2.031   0.914  0.00  0.00    +0.005 C 
ATOM      4  C   UNL     1      -2.546   1.767   0.809  0.00  0.00    +0.000 C 
ATOM      5  C   UNL     1      -3.122   2.517  -0.393  0.00  0.00    +0.003 C 
ATOM      6  C   UNL     1      -2.432   2.034  -1.670  0.00  0.00    +0.035 C 
ATOM      7  C   UNL     1      -0.930   2.300  -1.575  0.00  0.00    +0.066 C 
ATOM      8  C   UNL     1      -0.680   3.801  -1.414  0.00  0.00    +0.016 C 
ATOM      9  C   UNL     1       0.824   4.049  -1.276  0.00  0.00    -0.075 C 
ATOM     10  N   UNL     1       1.325   3.326  -0.088  0.00  0.00    +0.390 N 
ATOM     11  H   UNL     1       0.789   3.627   0.735  0.00  0.00    -0.080 HD
ENDROOT
BRANCH   1  16
ATOM     12  C   UNL     1       2.387   1.157   3.231  0.00  0.00    +0.121 A 
ATOM     13  C   UNL     1       2.801  -0.162   3.116  0.00  0.00    +0.049 A 
ATOM     14  C   UNL     1       2.679  -0.822   1.909  0.00  0.00    +0.049 A 
ATOM     15  C   UNL     1       2.140  -0.166   0.812  0.00  0.00    +0.122 A 
ATOM     16  C   UNL     1       1.731   1.155   0.925  0.00  0.00    -0.015 A 
ATOM     17  C   UNL     1       1.852   1.814   2.134  0.00  0.00    +0.051 A 
BRANCH  12  19
ATOM     18  C   UNL     1       3.067   1.068   5.509  0.00  0.00    +0.277 C 
ATOM     19  O   UNL     1       2.507   1.806   4.420  0.00  0.00    -0.495 OA
ENDBRANCH  12  19
BRANCH  15  20
ATOM     20  O   UNL     1       2.015  -0.816  -0.376  0.00  0.00    -0.495 OA
ATOM     21  C   UNL     1       2.456  -2.174  -0.421  0.00  0.00    +0.277 C 
ENDBRANCH  15  20
ENDBRANCH   1  16
BRANCH   7  22
ATOM     22  O   UNL     1      -0.292   1.837  -2.767  0.00  0.00    -0.388 OA
ATOM     23  H   UNL     1      -0.611   2.262  -3.574  0.00  0.00    +0.210 HD
ENDBRANCH   7  22
BRANCH  10  24
ATOM     24  C   UNL     1       2.752   3.639   0.129  0.00  0.00    +0.019 C 
BRANCH  24  25
ATOM     25  C   UNL     1       3.566   3.271  -1.085  0.00  0.00    +0.194 C 
ATOM     26  O   UNL     1       3.042   2.694  -2.014  0.00  0.00    -0.278 OA
ATOM     27  N   UNL     1       4.875   3.584  -1.138  0.00  0.00    -0.331 N 
ATOM     28  H   UNL     1       5.294   4.046  -0.395  0.00  0.00    +0.145 HD
ATOM     29  H   UNL     1       5.399   3.348  -1.920  0.00  0.00    +0.145 HD
ENDBRANCH  24  25
ENDBRANCH  10  24
TORSDOF 6
