REMARK  Name = ZINC05223557
REMARK  4 active torsions:
REMARK  status: ('A' for Active; 'I' for Inactive)
REMARK    1  A    between atoms: N_7  and  C1*_8
REMARK    2  A    between atoms: C3*_11  and  O3*_18
REMARK    3  A    between atoms: C4*_13  and  C5*_16
REMARK    4  A    between atoms: C5*_16  and  O5*_17
REMARK                            x       y       z     vdW  Elec       q    Type
REMARK                         _______ _______ _______ _____ _____    ______ ____
ROOT
ATOM      1  C   UNL     1       2.383   0.037  -0.021  0.00  0.00    +0.113 A 
ATOM      2  C   UNL     1       1.235  -0.684  -0.013  0.00  0.00    +0.094 A 
ATOM      3  C   UNL     1       0.002  -0.004   0.002  0.00  0.00    +0.267 A 
ATOM      4  N   UNL     1      -0.016   1.320   0.009  0.00  0.00    -0.274 N 
ATOM      5  C   UNL     1       1.120   2.017   0.002  0.00  0.00    +0.331 A 
ATOM      6  O   UNL     1       1.077   3.236   0.009  0.00  0.00    -0.246 OA
ATOM      7  N   UNL     1       2.315   1.397  -0.013  0.00  0.00    -0.273 N 
ATOM      8  O   UNL     1      -1.157  -0.699   0.010  0.00  0.00    -0.267 OA
ATOM      9  I   UNL     1       1.294  -2.778  -0.026  0.00  0.00    -0.037 I 
ATOM     10  H   UNL     1      -0.892   1.802   0.020  0.00  0.00    +0.173 HD
ENDROOT
BRANCH   7  11
ATOM     11  C1* UNL     1       3.547   2.189  -0.020  0.00  0.00    +0.226 C 
ATOM     12  C2* UNL     1       3.595   3.098  -1.274  0.00  0.00    +0.088 C 
ATOM     13  C3* UNL     1       5.126   3.307  -1.428  0.00  0.00    +0.150 C 
ATOM     14  C4* UNL     1       5.692   1.953  -0.950  0.00  0.00    +0.175 C 
ATOM     15  O4* UNL     1       4.692   1.329  -0.136  0.00  0.00    -0.348 OA
BRANCH  13  16
ATOM     16  O3* UNL     1       5.471   3.549  -2.794  0.00  0.00    -0.389 OA
ATOM     17  H3* UNL     1       5.067   4.344  -3.167  0.00  0.00    +0.210 HD
ENDBRANCH  13  16
BRANCH  14  18
ATOM     18  C5* UNL     1       6.963   2.181  -0.130  0.00  0.00    +0.190 C 
BRANCH  18  19
ATOM     19  O5* UNL     1       7.544   0.921   0.210  0.00  0.00    -0.392 OA
ATOM     20  H5* UNL     1       8.355   0.990   0.731  0.00  0.00    +0.210 HD
ENDBRANCH  18  19
ENDBRANCH  14  18
ENDBRANCH   7  11
TORSDOF 4
