REMARK  Name = ZINC32655085
REMARK  6 active torsions:
REMARK  status: ('A' for Active; 'I' for Inactive)
REMARK    1  A    between atoms: C_1  and  C_2
REMARK    2  A    between atoms: C_3  and  C_25
REMARK    3  A    between atoms: C_4  and  C_17
REMARK    4  A    between atoms: C_25  and  O_27
REMARK    5  A    between atoms: O_27  and  C_28
REMARK    6  A    between atoms: C_28  and  C_29
REMARK                            x       y       z     vdW  Elec       q    Type
REMARK                         _______ _______ _______ _____ _____    ______ ____
ROOT
ATOM      1  C   UNL     1      -6.006   2.827  -1.063  0.00  0.00    +0.061 C 
ATOM      2  C   UNL     1      -5.620   1.714  -2.003  0.00  0.00    +0.017 C 
ATOM      3  C   UNL     1      -4.367   1.232  -1.979  0.00  0.00    +0.065 C 
ATOM      4  C   UNL     1      -3.926   0.134  -2.904  0.00  0.00    +0.097 C 
ATOM      5  C   UNL     1      -5.114  -0.576  -3.495  0.00  0.00    +0.067 A 
ATOM      6  C   UNL     1      -6.355  -0.015  -3.462  0.00  0.00    +0.113 A 
ATOM      7  N   UNL     1      -7.416  -0.683  -4.026  0.00  0.00    -0.295 N 
ATOM      8  H   UNL     1      -8.421  -0.235  -4.006  0.00  0.00    +0.172 HD
ATOM      9  C   UNL     1      -7.233  -1.884  -4.604  0.00  0.00    +0.328 A 
ATOM     10  O   UNL     1      -8.182  -2.461  -5.099  0.00  0.00    -0.247 OA
ATOM     11  N   UNL     1      -6.016  -2.456  -4.643  0.00  0.00    -0.275 N 
ATOM     12  H   UNL     1      -5.885  -3.439  -5.118  0.00  0.00    +0.173 HD
ATOM     13  C   UNL     1      -4.949  -1.834  -4.102  0.00  0.00    +0.260 A 
ATOM     14  O   UNL     1      -3.849  -2.358  -4.140  0.00  0.00    -0.267 OA
ATOM     15  N   UNL     1      -6.551   1.209  -2.869  0.00  0.00    -0.304 N 
ATOM     16  H   UNL     1      -7.462   1.784  -3.094  0.00  0.00    +0.153 HD
ENDROOT
BRANCH   4  17
ATOM     17  C   UNL     1      -3.092   0.724  -4.012  0.00  0.00    -0.015 A 
ATOM     18  C   UNL     1      -3.638   1.673  -4.856  0.00  0.00    +0.006 A 
ATOM     19  C   UNL     1      -2.872   2.219  -5.870  0.00  0.00    +0.002 A 
ATOM     20  C   UNL     1      -1.563   1.808  -6.046  0.00  0.00    +0.021 A 
ATOM     21  C   UNL     1      -1.018   0.855  -5.205  0.00  0.00    +0.060 A 
ATOM     22  C   UNL     1      -1.784   0.312  -4.187  0.00  0.00    +0.063 A 
ATOM     23 CL   UNL     1      -1.101  -0.885  -3.131  0.00  0.00    -0.082 Cl
ATOM     24 CL   UNL     1       0.625   0.339  -5.426  0.00  0.00    -0.082 Cl
ENDBRANCH   4  17
BRANCH   3  25
ATOM     25  C   UNL     1      -3.437   1.776  -1.063  0.00  0.00    +0.338 C 
ATOM     26  O   UNL     1      -3.742   2.740  -0.386  0.00  0.00    -0.245 OA
BRANCH  25  27
ATOM     27  O   UNL     1      -2.210   1.227  -0.941  0.00  0.00    -0.457 OA
BRANCH  27  28
ATOM     28  C   UNL     1      -1.322   1.828   0.004  0.00  0.00    +0.259 C 
BRANCH  28  29
ATOM     29  C   UNL     1      -0.010   1.085   0.002  0.00  0.00    +0.006 C 
ATOM     30  C   UNL     1       1.119   1.750  -0.013  0.00  0.00    +0.007 C 
ENDBRANCH  28  29
ENDBRANCH  27  28
ENDBRANCH  25  27
ENDBRANCH   3  25
TORSDOF 5
