REMARK  Name = ZINC04894732
REMARK  7 active torsions:
REMARK  status: ('A' for Active; 'I' for Inactive)
REMARK    1  A    between atoms: C_1  and  C_2
REMARK    2  A    between atoms: C_2  and  C_3
REMARK    3  A    between atoms: C_3  and  C_5
REMARK    4  A    between atoms: C_3  and  C_6
REMARK    5  A    between atoms: C_9  and  C_20
REMARK    6  A    between atoms: C_15  and  N_19
REMARK    7  A    between atoms: C_16  and  C_17
REMARK                            x       y       z     vdW  Elec       q    Type
REMARK                         _______ _______ _______ _____ _____    ______ ____
ROOT
ATOM      1  C   UNL     1      -1.431  -2.062   0.065  0.00  0.00    +0.074 C 
ATOM      2  C   UNL     1      -2.844  -2.577  -0.035  0.00  0.00    +0.045 A 
ATOM      3  C   UNL     1      -3.672  -2.605  -1.091  0.00  0.00    +0.040 A 
ATOM      4  N   UNL     1      -4.836  -3.162  -0.685  0.00  0.00    -0.278 N 
ATOM      5  H   UNL     1      -5.620  -3.310  -1.237  0.00  0.00    +0.189 HD
ATOM      6  N   UNL     1      -4.713  -3.487   0.675  0.00  0.00    -0.135 NA
ATOM      7  C   UNL     1      -3.521  -3.140   1.068  0.00  0.00    +0.244 A 
ATOM      8  O   UNL     1      -2.937  -3.255   2.291  0.00  0.00    -0.422 OA
ATOM      9  C   UNL     1      -1.604  -3.067   2.362  0.00  0.00    +0.200 C 
ATOM     10  C   UNL     1      -0.853  -2.528   1.378  0.00  0.00    +0.094 C 
ATOM     11  C   UNL     1      -3.361  -2.106  -2.479  0.00  0.00    +0.065 C 
ENDROOT
BRANCH   9  12
ATOM     12  N   UNL     1      -0.966  -3.450   3.515  0.00  0.00    -0.328 N 
ATOM     13  H   UNL     1      -1.473  -3.840   4.244  0.00  0.00    +0.145 HD
ATOM     14  H   UNL     1      -0.007  -3.329   3.602  0.00  0.00    +0.145 HD
ENDBRANCH   9  12
BRANCH   1  15
ATOM     15  C   UNL     1      -1.434  -0.533   0.016  0.00  0.00    -0.002 C 
ATOM     16  C   UNL     1       0.007  -0.020   0.001  0.00  0.00    +0.008 C 
BRANCH  15  18
ATOM     17  C   UNL     1      -2.270   1.537   1.137  0.00  0.00    +0.004 C 
ATOM     18  C   UNL     1      -2.158   0.016   1.248  0.00  0.00    +0.001 C 
ENDBRANCH  15  18
ENDBRANCH   1  15
BRANCH  10  19
ATOM     19  C   UNL     1       0.557  -2.393   1.589  0.00  0.00    +0.100 C 
ATOM     20  N   UNL     1       1.675  -2.286   1.757  0.00  0.00    -0.191 NA
ENDBRANCH  10  19
TORSDOF 4
