REMARK  Name = ZINC40124441
REMARK  6 active torsions:
REMARK  status: ('A' for Active; 'I' for Inactive)
REMARK    1  A    between atoms: C_1  and  N_2
REMARK    2  A    between atoms: N_2  and  C_3
REMARK    3  A    between atoms: N_2  and  C_4
REMARK    4  A    between atoms: C_7  and  C_10
REMARK    5  A    between atoms: C_12  and  C_18
REMARK    6  A    between atoms: C_18  and  C_20
REMARK                            x       y       z     vdW  Elec       q    Type
REMARK                         _______ _______ _______ _____ _____    ______ ____
ROOT
ATOM      1  C   UNL     1      -4.356  -2.609   0.167  0.00  0.00    +0.142 C 
ATOM      2  C   UNL     1      -5.169  -2.976   1.386  0.00  0.00    +0.076 C 
ATOM      3  C   UNL     1      -6.416  -2.489   1.185  0.00  0.00    +0.249 C 
ATOM      4  C   UNL     1      -6.466  -1.808  -0.126  0.00  0.00    +0.285 C 
ATOM      5  O   UNL     1      -7.448  -1.266  -0.593  0.00  0.00    -0.267 OA
ATOM      6  N   UNL     1      -5.262  -1.877  -0.726  0.00  0.00    -0.298 N 
ATOM      7  O   UNL     1      -7.452  -2.606   2.048  0.00  0.00    -0.282 OA
ATOM      8  H   UNL     1      -5.034  -1.509  -1.594  0.00  0.00    +0.150 HD
ENDROOT
BRANCH   1  12
ATOM      9  C   UNL     1      -1.068  -0.120   1.286  0.00  0.00    +0.029 A 
ATOM     10  C   UNL     1      -0.853  -1.454   0.964  0.00  0.00    +0.023 A 
ATOM     11  C   UNL     1      -1.918  -2.255   0.603  0.00  0.00    +0.007 A 
ATOM     12  C   UNL     1      -3.197  -1.732   0.562  0.00  0.00    -0.022 A 
ATOM     13  C   UNL     1      -3.414  -0.404   0.882  0.00  0.00    +0.007 A 
ATOM     14  C   UNL     1      -2.355   0.402   1.249  0.00  0.00    +0.023 A 
BRANCH   9  16
ATOM     15  C   UNL     1      -0.222   2.099   1.997  0.00  0.00    +0.129 C 
ATOM     16  N   UNL     1       0.007   0.694   1.651  0.00  0.00    -0.336 N 
ATOM     17  C   UNL     1       1.364   0.142   1.690  0.00  0.00    +0.129 C 
ENDBRANCH   9  16
ENDBRANCH   1  12
BRANCH   2  18
ATOM     18  C   UNL     1      -4.699  -3.717   2.560  0.00  0.00    +0.195 C 
ATOM     19  O   UNL     1      -4.673  -3.177   3.650  0.00  0.00    -0.287 OA
BRANCH  18  20
ATOM     20  C   UNL     1      -4.256  -5.120   2.420  0.00  0.00    +0.022 A 
ATOM     21  C   UNL     1      -4.386  -5.777   1.194  0.00  0.00    +0.014 A 
ATOM     22  C   UNL     1      -3.971  -7.085   1.068  0.00  0.00    +0.039 A 
ATOM     23  C   UNL     1      -3.426  -7.749   2.157  0.00  0.00    +0.123 A 
ATOM     24  C   UNL     1      -3.295  -7.102   3.377  0.00  0.00    +0.039 A 
ATOM     25  C   UNL     1      -3.700  -5.792   3.511  0.00  0.00    +0.014 A 
ATOM     26  F   UNL     1      -3.021  -9.032   2.029  0.00  0.00    -0.205 F 
ENDBRANCH  18  20
ENDBRANCH   2  18
TORSDOF 4
