REMARK  Name = ZINC05130267
REMARK  7 active torsions:
REMARK  status: ('A' for Active; 'I' for Inactive)
REMARK    1  A    between atoms: C_1  and  O_2
REMARK    2  A    between atoms: O_2  and  C_3
REMARK    3  A    between atoms: C_6  and  C_10
REMARK    4  A    between atoms: C_8  and  O_9
REMARK    5  A    between atoms: C_13  and  C_24
REMARK    6  A    between atoms: C_19  and  N_23
REMARK    7  A    between atoms: C_20  and  C_21
REMARK                            x       y       z     vdW  Elec       q    Type
REMARK                         _______ _______ _______ _____ _____    ______ ____
ROOT
ATOM      1  C   UNL     1      -5.064  -2.729   0.043  0.00  0.00    +0.102 C 
ATOM      2  C   UNL     1      -5.862  -2.173  -1.108  0.00  0.00    +0.054 A 
ATOM      3  C   UNL     1      -5.706  -2.366  -2.440  0.00  0.00    +0.074 A 
ATOM      4  N   UNL     1      -6.680  -1.645  -3.070  0.00  0.00    -0.273 N 
ATOM      5  H   UNL     1      -6.819  -1.589  -4.029  0.00  0.00    +0.189 HD
ATOM      6  N   UNL     1      -7.444  -0.999  -2.086  0.00  0.00    -0.135 NA
ATOM      7  C   UNL     1      -6.961  -1.312  -0.917  0.00  0.00    +0.245 A 
ATOM      8  O   UNL     1      -7.371  -0.931   0.323  0.00  0.00    -0.421 OA
ATOM      9  C   UNL     1      -6.874  -1.608   1.377  0.00  0.00    +0.201 C 
ATOM     10  C   UNL     1      -5.821  -2.451   1.318  0.00  0.00    +0.098 C 
ENDROOT
BRANCH   3  11
ATOM     11  C   UNL     1      -4.673  -3.202  -3.090  0.00  0.00    +0.000 A 
ATOM     12  C   UNL     1      -4.424  -4.495  -2.627  0.00  0.00    +0.011 A 
ATOM     13  C   UNL     1      -3.460  -5.270  -3.237  0.00  0.00    +0.020 A 
ATOM     14  C   UNL     1      -2.739  -4.767  -4.307  0.00  0.00    +0.041 A 
ATOM     15  C   UNL     1      -2.980  -3.485  -4.770  0.00  0.00    +0.020 A 
ATOM     16  C   UNL     1      -3.947  -2.703  -4.172  0.00  0.00    +0.011 A 
ATOM     17 CL   UNL     1      -1.526  -5.748  -5.069  0.00  0.00    -0.084 Cl
ENDBRANCH   3  11
BRANCH   1  21
ATOM     18  C   UNL     1      -1.237  -0.827   0.195  0.00  0.00    +0.161 A 
ATOM     19  C   UNL     1      -2.395  -0.066   0.245  0.00  0.00    +0.050 A 
ATOM     20  C   UNL     1      -3.630  -0.684   0.195  0.00  0.00    +0.008 A 
ATOM     21  C   UNL     1      -3.715  -2.061   0.097  0.00  0.00    -0.031 A 
ATOM     22  C   UNL     1      -2.564  -2.825   0.048  0.00  0.00    +0.053 A 
ATOM     23  C   UNL     1      -1.322  -2.212   0.091  0.00  0.00    +0.159 A 
BRANCH  18  25
ATOM     24  C   UNL     1      -0.010   1.205   0.351  0.00  0.00    +0.277 C 
ATOM     25  O   UNL     1      -0.021  -0.220   0.244  0.00  0.00    -0.491 OA
ENDBRANCH  18  25
BRANCH  23  26
ATOM     26  O   UNL     1      -0.189  -2.962   0.036  0.00  0.00    -0.503 OA
ATOM     27  H   UNL     1       0.137  -3.245   0.901  0.00  0.00    +0.292 HD
ENDBRANCH  23  26
ENDBRANCH   1  21
BRANCH   9  28
ATOM     28  N   UNL     1      -7.481  -1.429   2.595  0.00  0.00    -0.328 N 
ATOM     29  H   UNL     1      -8.241  -0.831   2.675  0.00  0.00    +0.145 HD
ATOM     30  H   UNL     1      -7.150  -1.900   3.376  0.00  0.00    +0.145 HD
ENDBRANCH   9  28
BRANCH  10  31
ATOM     31  C   UNL     1      -5.402  -3.110   2.519  0.00  0.00    +0.101 C 
ATOM     32  N   UNL     1      -5.070  -3.632   3.471  0.00  0.00    -0.191 NA
ENDBRANCH  10  31
TORSDOF 6
