REMARK  Name = ZINC37332103
REMARK  5 active torsions:
REMARK  status: ('A' for Active; 'I' for Inactive)
REMARK    1  A    between atoms: C_1  and  C_2
REMARK    2  A    between atoms: N_5  and  C_8
REMARK    3  A    between atoms: C_8  and  C_9
REMARK    4  A    between atoms: C_9  and  C_11
REMARK    5  A    between atoms: C_13  and  N_16
REMARK                            x       y       z     vdW  Elec       q    Type
REMARK                         _______ _______ _______ _____ _____    ______ ____
ROOT
ATOM      1  C   UNL     1       2.569  -4.335   1.129  0.00  0.00    +0.165 C 
ATOM      2  O   UNL     1       3.018  -3.501   1.889  0.00  0.00    -0.292 OA
ENDROOT
BRANCH   1   3
ATOM      3  C   UNL     1       2.857  -5.704   1.332  0.00  0.00    +0.106 A 
ATOM      4  C   UNL     1       3.627  -6.237   2.352  0.00  0.00    +0.065 A 
ATOM      5  C   UNL     1       3.645  -7.620   2.167  0.00  0.00    +0.146 A 
ATOM      6  C   UNL     1       2.904  -7.904   1.067  0.00  0.00    +0.144 A 
ATOM      7  N   UNL     1       2.417  -6.754   0.555  0.00  0.00    -0.250 NA
BRANCH   5   8
ATOM      8  N   UNL     1       4.347  -8.604   3.021  0.00  0.00    +0.058 N 
ATOM      9  O   UNL     1       4.980  -8.229   3.981  0.00  0.00    -0.126 OA
ATOM     10  O   UNL     1       4.289  -9.783   2.759  0.00  0.00    -0.126 OA
ENDBRANCH   5   8
ENDBRANCH   1   3
BRANCH   1  11
ATOM     11  C   UNL     1       1.704  -3.911  -0.029  0.00  0.00    +0.004 C 
BRANCH  11  16
ATOM     12  C   UNL     1      -0.019   1.526   0.010  0.00  0.00    +0.007 C 
ATOM     13  C   UNL     1       0.002  -0.004   0.002  0.00  0.00    -0.018 C 
ATOM     14  C   UNL     1       0.727  -0.499  -1.252  0.00  0.00    -0.016 C 
ATOM     15  C   UNL     1       0.814  -2.027  -1.215  0.00  0.00    -0.078 C 
ATOM     16  N   UNL     1       1.556  -2.449  -0.021  0.00  0.00    +0.385 N 
ATOM     17  C   UNL     1       0.829  -2.040   1.187  0.00  0.00    -0.078 C 
ATOM     18  C   UNL     1       0.743  -0.513   1.242  0.00  0.00    -0.016 C 
ATOM     19  H   UNL     1       2.469  -2.020  -0.024  0.00  0.00    -0.081 HD
ENDBRANCH  11  16
ENDBRANCH   1  11
TORSDOF 4
