REMARK  Name = ZINC21247144
REMARK  6 active torsions:
REMARK  status: ('A' for Active; 'I' for Inactive)
REMARK    1  A    between atoms: C_1  and  O_2
REMARK    2  A    between atoms: O_2  and  C_3
REMARK    3  A    between atoms: C_5  and  C_13
REMARK    4  A    between atoms: C_7  and  N_10
REMARK    5  A    between atoms: C_8  and  O_9
REMARK    6  A    between atoms: C_18  and  C_23
REMARK                            x       y       z     vdW  Elec       q    Type
REMARK                         _______ _______ _______ _____ _____    ______ ____
ROOT
ATOM      1  C   UNL     1       5.106   3.326  -0.034  0.00  0.00    +0.136 C 
ATOM      2  C   UNL     1       4.948   4.808  -0.282  0.00  0.00    +0.036 C 
ATOM      3  C   UNL     1       5.293   5.459  -1.403  0.00  0.00    +0.017 C 
ATOM      4  C   UNL     1       5.030   6.952  -1.534  0.00  0.00    +0.059 C 
ATOM      5  C   UNL     1       5.180   7.626  -0.171  0.00  0.00    +0.032 C 
ATOM      6  C   UNL     1       4.156   6.992   0.778  0.00  0.00    +0.088 C 
ATOM      7  C   UNL     1       4.384   5.511   0.808  0.00  0.00    +0.163 C 
ATOM      8  O   UNL     1       4.071   4.891   1.806  0.00  0.00    -0.292 OA
ATOM      9  N   UNL     1       5.870   4.892  -2.494  0.00  0.00    -0.316 N 
ATOM     10  C   UNL     1       5.436   3.716  -3.098  0.00  0.00    +0.052 A 
ATOM     11  C   UNL     1       4.974   3.680  -4.402  0.00  0.00    +0.025 A 
ATOM     12  C   UNL     1       4.632   2.464  -4.967  0.00  0.00    +0.002 A 
ATOM     13  C   UNL     1       4.750   1.297  -4.233  0.00  0.00    +0.002 A 
ATOM     14  C   UNL     1       5.190   1.335  -2.922  0.00  0.00    +0.025 A 
ATOM     15  C   UNL     1       5.517   2.553  -2.346  0.00  0.00    +0.049 A 
ATOM     16  N   UNL     1       5.919   2.641  -1.016  0.00  0.00    -0.331 N 
ATOM     17  H   UNL     1       6.745   5.366  -2.962  0.00  0.00    +0.152 HD
ATOM     18  H   UNL     1       6.872   2.179  -0.717  0.00  0.00    +0.147 HD
ENDROOT
BRANCH   5  19
ATOM     19  C   UNL     1       4.911   9.103  -0.300  0.00  0.00    -0.043 A 
ATOM     20  C   UNL     1       3.684   9.544  -0.757  0.00  0.00    +0.007 A 
ATOM     21  C   UNL     1       3.435  10.899  -0.871  0.00  0.00    +0.038 A 
ATOM     22  C   UNL     1       4.419  11.814  -0.537  0.00  0.00    +0.123 A 
ATOM     23  C   UNL     1       5.650  11.370  -0.084  0.00  0.00    +0.038 A 
ATOM     24  C   UNL     1       5.895  10.015   0.034  0.00  0.00    +0.007 A 
ATOM     25  F   UNL     1       4.178  13.138  -0.652  0.00  0.00    -0.205 F 
ENDBRANCH   5  19
BRANCH   1  28
ATOM     26  C   UNL     1       1.990   1.553   1.159  0.00  0.00    +0.164 A 
ATOM     27  C   UNL     1       3.250   2.130   1.144  0.00  0.00    +0.055 A 
ATOM     28  C   UNL     1       3.738   2.694  -0.020  0.00  0.00    -0.017 A 
ATOM     29  C   UNL     1       2.974   2.680  -1.172  0.00  0.00    +0.042 A 
ATOM     30  C   UNL     1       1.718   2.102  -1.165  0.00  0.00    +0.171 A 
ATOM     31  C   UNL     1       1.223   1.534  -0.001  0.00  0.00    +0.189 A 
BRANCH  30  32
ATOM     32  N   UNL     1       0.902   2.088  -2.400  0.00  0.00    +0.060 N 
ATOM     33  O   UNL     1       1.337   2.587  -3.422  0.00  0.00    -0.126 OA
ATOM     34  O   UNL     1      -0.204   1.578  -2.393  0.00  0.00    -0.126 OA
ENDBRANCH  30  32
BRANCH  26  36
ATOM     35  C   UNL     1       2.350   1.059   3.458  0.00  0.00    +0.277 C 
ATOM     36  O   UNL     1       1.507   1.003   2.305  0.00  0.00    -0.491 OA
ENDBRANCH  26  36
BRANCH  31  37
ATOM     37  O   UNL     1      -0.012   0.965   0.007  0.00  0.00    -0.502 OA
ATOM     38  H   UNL     1      -0.618   0.951  -0.911  0.00  0.00    +0.292 HD
ENDBRANCH  31  37
ENDBRANCH   1  28
TORSDOF 5
