REMARK  Name = ZINC19869645
REMARK  4 active torsions:
REMARK  status: ('A' for Active; 'I' for Inactive)
REMARK    1  A    between atoms: C_1  and  C_2
REMARK    2  A    between atoms: C_2  and  S_3
REMARK    3  A    between atoms: S_3  and  C_4
REMARK    4  A    between atoms: C_9  and  N_10
REMARK                            x       y       z     vdW  Elec       q    Type
REMARK                         _______ _______ _______ _____ _____    ______ ____
ROOT
ATOM      1  C   UNL     1       0.099   1.013   2.823  0.00  0.00    +0.032 A 
ATOM      2  C   UNL     1       1.216   0.238   2.551  0.00  0.00    +0.066 A 
ATOM      3  C   UNL     1       1.976  -0.278   3.591  0.00  0.00    +0.163 A 
ATOM      4  C   UNL     1       1.612  -0.024   4.908  0.00  0.00    +0.164 A 
ATOM      5  C   UNL     1       0.491   0.747   5.182  0.00  0.00    +0.073 A 
ATOM      6  C   UNL     1      -0.267   1.265   4.144  0.00  0.00    +0.042 A 
ATOM      7  O   UNL     1       2.346  -0.523   5.942  0.00  0.00    -0.485 OA
ATOM      8  C   UNL     1       3.244  -1.595   5.636  0.00  0.00    +0.270 C 
ATOM      9  C   UNL     1       4.016  -1.227   4.362  0.00  0.00    +0.270 C 
ATOM     10  O   UNL     1       3.070  -1.036   3.304  0.00  0.00    -0.485 OA
ENDROOT
BRANCH   6  11
ATOM     11  N   UNL     1      -1.400   2.044   4.423  0.00  0.00    -0.357 N 
ATOM     12  H   UNL     1      -1.687   2.243   5.466  0.00  0.00    +0.142 HD
ATOM     13  H   UNL     1      -2.001   2.455   3.599  0.00  0.00    +0.142 HD
ENDBRANCH   6  11
BRANCH   1  14
ATOM     14  S   UNL     1      -0.862   1.671   1.500  0.00  0.00    -0.124 S 
BRANCH  14  16
ATOM     15  C   UNL     1      -0.753   1.593  -1.232  0.00  0.00    +0.015 C 
ATOM     16  C   UNL     1      -0.013   1.086   0.008  0.00  0.00    +0.071 C 
ENDBRANCH  14  16
ENDBRANCH   1  14
TORSDOF 3
