REMARK  Name = ZINC21231393
REMARK  9 active torsions:
REMARK  status: ('A' for Active; 'I' for Inactive)
REMARK    1  A    between atoms: C_1  and  C_2
REMARK    2  A    between atoms: C_2  and  C_3
REMARK    3  A    between atoms: C_2  and  C_4
REMARK    4  A    between atoms: C_4  and  C_6
REMARK    5  A    between atoms: C_4  and  S_12
REMARK    6  A    between atoms: S_12  and  C_13
REMARK    7  A    between atoms: C_16  and  C_24
REMARK    8  A    between atoms: N_17  and  C_18
REMARK    9  A    between atoms: C_18  and  C_19
REMARK                            x       y       z     vdW  Elec       q    Type
REMARK                         _______ _______ _______ _____ _____    ______ ____
ROOT
ATOM      1  C   UNL     1      -2.479   2.009  -2.212  0.00  0.00    +0.193 A 
ATOM      2  N   UNL     1      -2.200   2.406  -3.433  0.00  0.00    -0.122 NA
ATOM      3  N   UNL     1      -1.265   3.287  -3.408  0.00  0.00    -0.128 NA
ATOM      4  C   UNL     1      -0.894   3.512  -2.169  0.00  0.00    +0.165 A 
ATOM      5  N   UNL     1      -1.656   2.695  -1.365  0.00  0.00    -0.295 N 
ENDROOT
BRANCH   4   6
ATOM      6  C   UNL     1       0.148   4.460  -1.723  0.00  0.00    +0.019 A 
ATOM      7  C   UNL     1       0.699   4.346  -0.445  0.00  0.00    +0.013 A 
ATOM      8  C   UNL     1       1.675   5.230  -0.036  0.00  0.00    +0.021 A 
ATOM      9  C   UNL     1       2.101   6.237  -0.885  0.00  0.00    +0.041 A 
ATOM     10  C   UNL     1       1.554   6.359  -2.152  0.00  0.00    +0.021 A 
ATOM     11  C   UNL     1       0.582   5.477  -2.575  0.00  0.00    +0.013 A 
ATOM     12 CL   UNL     1       3.324   7.352  -0.361  0.00  0.00    -0.084 Cl
ENDBRANCH   4   6
BRANCH   1  13
ATOM     13  S   UNL     1      -3.689   0.814  -1.752  0.00  0.00    -0.073 S 
BRANCH  13  14
ATOM     14  C   UNL     1      -4.239   0.277  -3.390  0.00  0.00    +0.143 C 
BRANCH  14  15
ATOM     15  C   UNL     1      -4.958   1.411  -4.076  0.00  0.00    +0.234 C 
ATOM     16  O   UNL     1      -5.405   2.328  -3.421  0.00  0.00    -0.274 OA
ATOM     17  N   UNL     1      -5.102   1.405  -5.415  0.00  0.00    -0.239 N 
ATOM     18  C   UNL     1      -5.745   2.419  -6.028  0.00  0.00    +0.303 C 
ATOM     19  O   UNL     1      -6.194   3.339  -5.372  0.00  0.00    -0.253 OA
ATOM     20  N   UNL     1      -5.889   2.414  -7.368  0.00  0.00    -0.313 N 
ATOM     21  H   UNL     1      -4.696   0.573  -6.009  0.00  0.00    +0.159 HD
ATOM     22  H   UNL     1      -6.414   3.241  -7.868  0.00  0.00    +0.146 HD
ATOM     23  H   UNL     1      -5.483   1.581  -7.962  0.00  0.00    +0.146 HD
ENDBRANCH  14  15
BRANCH  14  25
ATOM     24  C   UNL     1      -5.648  -1.373  -4.630  0.00  0.00    +0.009 C 
ATOM     25  C   UNL     1      -5.188  -0.914  -3.245  0.00  0.00    +0.005 C 
ATOM     26  C   UNL     1      -4.461  -2.063  -2.543  0.00  0.00    +0.009 C 
ENDBRANCH  14  25
ENDBRANCH  13  14
ENDBRANCH   1  13
BRANCH   5  27
ATOM     27  C   UNL     1      -1.599   2.589   0.095  0.00  0.00    +0.200 C 
BRANCH  27  28
ATOM     28  C   UNL     1      -0.726   1.423   0.480  0.00  0.00    +0.125 A 
ATOM     29  C   UNL     1       0.616   1.443   0.576  0.00  0.00    +0.046 A 
ATOM     30  C   UNL     1       1.018   0.142   0.957  0.00  0.00    +0.041 A 
ATOM     31  C   UNL     1      -0.101  -0.595   1.070  0.00  0.00    +0.195 A 
ATOM     32  O   UNL     1      -1.155   0.186   0.781  0.00  0.00    -0.466 OA
ENDBRANCH  27  28
ENDBRANCH   5  27
TORSDOF 7
