REMARK  Name = ZINC61830293
REMARK  7 active torsions:
REMARK  status: ('A' for Active; 'I' for Inactive)
REMARK    1  A    between atoms: C_1  and  C_2
REMARK    2  A    between atoms: C_2  and  C_4
REMARK    3  A    between atoms: C_2  and  C_19
REMARK    4  A    between atoms: C_4  and  C_5
REMARK    5  A    between atoms: C_5  and  C_7
REMARK    6  A    between atoms: C_5  and  N_18
REMARK    7  A    between atoms: C_19  and  C_20
REMARK                            x       y       z     vdW  Elec       q    Type
REMARK                         _______ _______ _______ _____ _____    ______ ____
ROOT
ATOM      1  C   UNL     1       2.154   0.141   1.263  0.00  0.00    -0.043 C 
ENDROOT
BRANCH   1   2
ATOM      2  C   UNL     1       2.941  -0.447   2.406  0.00  0.00    -0.044 A 
ATOM      3  C   UNL     1       3.054   0.248   3.595  0.00  0.00    +0.052 A 
ATOM      4  C   UNL     1       3.776  -0.291   4.649  0.00  0.00    +0.162 A 
ATOM      5  C   UNL     1       4.385  -1.533   4.507  0.00  0.00    +0.163 A 
ATOM      6  C   UNL     1       4.269  -2.225   3.311  0.00  0.00    +0.065 A 
ATOM      7  C   UNL     1       3.544  -1.684   2.265  0.00  0.00    +0.023 A 
ATOM      8 BR   UNL     1       3.382  -2.634   0.638  0.00  0.00    -0.050 Br
ATOM      9  O   UNL     1       5.091  -2.083   5.532  0.00  0.00    -0.485 OA
ATOM     10  C   UNL     1       5.497  -1.199   6.582  0.00  0.00    +0.270 C 
ATOM     11  C   UNL     1       4.293  -0.329   6.970  0.00  0.00    +0.270 C 
ATOM     12  O   UNL     1       3.881   0.407   5.813  0.00  0.00    -0.485 OA
ENDBRANCH   1   2
BRANCH   1  13
ATOM     13  N   UNL     1       2.130   1.604   1.387  0.00  0.00    +0.383 N 
ATOM     14  H   UNL     1       1.620   1.863   2.219  0.00  0.00    -0.089 HD
ATOM     15  H   UNL     1       3.075   1.953   1.449  0.00  0.00    -0.089 HD
ATOM     16  H   UNL     1       1.677   2.003   0.578  0.00  0.00    -0.089 HD
ENDBRANCH   1  13
BRANCH   1  17
ATOM     17  C   UNL     1       0.723  -0.398   1.298  0.00  0.00    -0.008 C 
BRANCH  17  19
ATOM     18  C   UNL     1      -1.515  -0.299   0.191  0.00  0.00    +0.008 C 
ATOM     19  C   UNL     1      -0.047   0.119   0.081  0.00  0.00    -0.007 C 
BRANCH  19  20
ATOM     20  C   UNL     1       0.558  -0.472  -1.194  0.00  0.00    +0.098 C 
BRANCH  20  21
ATOM     21  C   UNL     1      -0.119   0.131  -2.398  0.00  0.00    +0.211 C 
ATOM     22  O   UNL     1      -0.999   0.952  -2.250  0.00  0.00    -0.276 OA
ATOM     23  N   UNL     1       0.253  -0.243  -3.638  0.00  0.00    -0.329 N 
ATOM     24  H   UNL     1       0.956  -0.900  -3.756  0.00  0.00    +0.145 HD
ATOM     25  H   UNL     1      -0.183   0.145  -4.413  0.00  0.00    +0.145 HD
ENDBRANCH  20  21
ENDBRANCH  19  20
ENDBRANCH  17  19
ENDBRANCH   1  17
TORSDOF 6
