REMARK  Name = ZINC06589278
REMARK  5 active torsions:
REMARK  status: ('A' for Active; 'I' for Inactive)
REMARK    1  A    between atoms: C_8  and  C_10
REMARK    2  A    between atoms: C_10  and  O_12
REMARK    3  A    between atoms: O_12  and  C_13
REMARK    4  A    between atoms: C_13  and  C_14
REMARK    5  A    between atoms: N_16  and  C_17
REMARK                            x       y       z     vdW  Elec       q    Type
REMARK                         _______ _______ _______ _____ _____    ______ ____
ROOT
ATOM      1  C   UNL     1       3.220  10.103   0.020  0.00  0.00    +0.255 C 
ATOM      2  O   UNL     1       2.014  10.237   0.023  0.00  0.00    -0.272 OA
ATOM      3  N   UNL     1       4.019  11.189   0.020  0.00  0.00    -0.283 N 
ATOM      4  H   UNL     1       4.981  11.083   0.085  0.00  0.00    +0.155 HD
ENDROOT
BRANCH   3   5
ATOM      5  C   UNL     1       3.460  12.470  -0.074  0.00  0.00    +0.036 A 
ATOM      6  C   UNL     1       4.130  13.470  -0.769  0.00  0.00    +0.025 A 
ATOM      7  C   UNL     1       3.582  14.733  -0.870  0.00  0.00    +0.029 A 
ATOM      8  C   UNL     1       2.364  15.009  -0.267  0.00  0.00    +0.067 A 
ATOM      9  C   UNL     1       1.690  14.008   0.436  0.00  0.00    +0.069 A 
ATOM     10  C   UNL     1       2.241  12.739   0.531  0.00  0.00    +0.051 A 
ATOM     11  N   UNL     1       0.515  14.576   0.920  0.00  0.00    -0.306 N 
ATOM     12  H   UNL     1      -0.160  14.122   1.448  0.00  0.00    +0.170 HD
ATOM     13  C   UNL     1       0.474  15.864   0.530  0.00  0.00    +0.325 A 
ATOM     14  O   UNL     1      -0.423  16.646   0.786  0.00  0.00    -0.247 OA
ATOM     15  N   UNL     1       1.575  16.156  -0.188  0.00  0.00    -0.306 N 
ATOM     16  H   UNL     1       1.784  17.017  -0.583  0.00  0.00    +0.170 HD
ENDBRANCH   3   5
BRANCH   1  17
ATOM     17  C   UNL     1       3.824   8.723   0.016  0.00  0.00    +0.328 C 
BRANCH  17  18
ATOM     18  O   UNL     1       2.765   7.730   0.017  0.00  0.00    -0.451 OA
BRANCH  18  19
ATOM     19  C   UNL     1       3.139   6.435   0.014  0.00  0.00    +0.348 C 
ATOM     20  O   UNL     1       4.320   6.143   0.010  0.00  0.00    -0.244 OA
BRANCH  19  28
ATOM     21  C   UNL     1      -0.011   1.075   0.013  0.00  0.00    +0.001 A 
ATOM     22  C   UNL     1      -1.234   1.736   0.011  0.00  0.00    +0.001 A 
ATOM     23  C   UNL     1      -1.260   3.116   0.019  0.00  0.00    +0.016 A 
ATOM     24  C   UNL     1      -0.074   3.819   0.017  0.00  0.00    +0.022 A 
ATOM     25  C   UNL     1       1.185   3.172   0.013  0.00  0.00    +0.008 A 
ATOM     26  C   UNL     1       1.165   1.754   0.011  0.00  0.00    +0.010 A 
ATOM     27  C   UNL     1       2.302   4.028   0.012  0.00  0.00    +0.070 A 
ATOM     28  C   UNL     1       2.123   5.378   0.015  0.00  0.00    +0.116 A 
ATOM     29  S   UNL     1       0.346   5.543   0.019  0.00  0.00    -0.080 S 
ATOM     30 CL   UNL     1       3.906   3.364   0.006  0.00  0.00    -0.082 Cl
ENDBRANCH  19  28
ENDBRANCH  18  19
ENDBRANCH  17  18
ENDBRANCH   1  17
TORSDOF 5
