REMARK  Name = ZINC07778208
REMARK  8 active torsions:
REMARK  status: ('A' for Active; 'I' for Inactive)
REMARK    1  A    between atoms: C_1  and  C_2
REMARK    2  A    between atoms: N_11  and  C_15
REMARK    3  A    between atoms: C_15  and  C_16
REMARK    4  A    between atoms: N_21  and  C_22
REMARK    5  A    between atoms: C_22  and  C_23
REMARK    6  A    between atoms: C_23  and  C_24
REMARK    7  A    between atoms: C_24  and  C_25
REMARK    8  A    between atoms: C_24  and  C_26
REMARK                            x       y       z     vdW  Elec       q    Type
REMARK                         _______ _______ _______ _____ _____    ______ ____
ROOT
ATOM      1  C   UNL     1      -1.536   3.561   2.539  0.00  0.00    +0.010 C 
ATOM      2  C   UNL     1      -0.790   3.101   1.286  0.00  0.00    +0.018 C 
ATOM      3  C   UNL     1      -1.527   3.600   0.040  0.00  0.00    +0.006 C 
ATOM      4  C   UNL     1      -0.790   3.122  -1.213  0.00  0.00    +0.000 C 
ATOM      5  C   UNL     1      -0.753   1.593  -1.233  0.00  0.00    +0.003 C 
ATOM      6  C   UNL     1      -0.013   1.086   0.008  0.00  0.00    +0.035 C 
ATOM      7  C   UNL     1      -0.726   1.577   1.263  0.00  0.00    +0.115 C 
ATOM      8  C   UNL     1      -2.117   0.991   1.342  0.00  0.00    +0.247 C 
ATOM      9  O   UNL     1      -3.023   1.142   0.552  0.00  0.00    -0.273 OA
ATOM     10  N   UNL     1      -2.136   0.263   2.478  0.00  0.00    -0.215 N 
ATOM     11  C   UNL     1      -0.960   0.312   3.115  0.00  0.00    +0.310 C 
ATOM     12  O   UNL     1      -0.734  -0.264   4.161  0.00  0.00    -0.252 OA
ATOM     13  N   UNL     1      -0.056   1.072   2.468  0.00  0.00    -0.285 N 
ATOM     14  H   UNL     1       0.857   1.250   2.743  0.00  0.00    +0.151 HD
ENDROOT
BRANCH  10  15
ATOM     15  C   UNL     1      -3.301  -0.488   2.955  0.00  0.00    +0.214 C 
BRANCH  15  16
ATOM     16  C   UNL     1      -3.260  -1.886   2.395  0.00  0.00    +0.238 C 
ATOM     17  O   UNL     1      -2.349  -2.223   1.669  0.00  0.00    -0.274 OA
ATOM     18  N   UNL     1      -4.237  -2.763   2.700  0.00  0.00    -0.239 N 
ATOM     19  C   UNL     1      -4.201  -4.014   2.200  0.00  0.00    +0.306 C 
ATOM     20  O   UNL     1      -3.287  -4.351   1.472  0.00  0.00    -0.252 OA
ATOM     21  N   UNL     1      -5.178  -4.891   2.505  0.00  0.00    -0.299 N 
ATOM     22  H   UNL     1      -4.966  -2.494   3.281  0.00  0.00    +0.159 HD
ATOM     23  H   UNL     1      -5.907  -4.622   3.086  0.00  0.00    +0.150 HD
BRANCH  21  24
ATOM     24  C   UNL     1      -5.138  -6.250   1.961  0.00  0.00    +0.106 C 
BRANCH  24  25
ATOM     25  C   UNL     1      -6.354  -7.035   2.459  0.00  0.00    +0.022 C 
BRANCH  25  26
ATOM     26  C   UNL     1      -6.313  -8.454   1.890  0.00  0.00    -0.016 C 
ATOM     27  C   UNL     1      -5.097  -9.194   2.452  0.00  0.00    +0.007 C 
ATOM     28  C   UNL     1      -7.590  -9.199   2.285  0.00  0.00    +0.007 C 
ENDBRANCH  25  26
ENDBRANCH  24  25
ENDBRANCH  21  24
ENDBRANCH  15  16
ENDBRANCH  10  15
TORSDOF 5
