REMARK  Name = ZINC36586866
REMARK  15 active torsions:
REMARK  status: ('A' for Active; 'I' for Inactive)
REMARK    1  A    between atoms: C_1  and  C_2
REMARK    2  A    between atoms: C_2  and  C_3
REMARK    3  A    between atoms: C_2  and  C_4
REMARK    4  A    between atoms: C_2  and  N_5
REMARK    5  A    between atoms: C_6  and  C_8
REMARK    6  A    between atoms: C_8  and  C_10
REMARK    7  A    between atoms: C_8  and  N_17
REMARK    8  A    between atoms: C_14  and  O_16
REMARK    9  A    between atoms: N_17  and  C_28
REMARK   10  A    between atoms: C_18  and  C_20
REMARK   11  A    between atoms: C_24  and  O_27
REMARK   12  A    between atoms: C_25  and  O_26
REMARK   13  A    between atoms: C_28  and  C_29
REMARK   14  A    between atoms: C_28  and  C_30
REMARK   15  A    between atoms: C_28  and  C_31
REMARK                            x       y       z     vdW  Elec       q    Type
REMARK                         _______ _______ _______ _____ _____    ______ ____
ROOT
ATOM      1  C   UNL     1       7.250  -0.282  -0.224  0.00  0.00    +0.193 C 
ENDROOT
BRANCH   1   2
ATOM      2  C   UNL     1       8.423   0.111   0.635  0.00  0.00    -0.015 A 
ATOM      3  C   UNL     1       8.855   1.425   0.655  0.00  0.00    +0.006 A 
ATOM      4  C   UNL     1       9.932   1.789   1.442  0.00  0.00    +0.004 A 
ATOM      5  C   UNL     1      10.579   0.841   2.211  0.00  0.00    +0.045 A 
ATOM      6  C   UNL     1      10.148  -0.477   2.193  0.00  0.00    +0.117 A 
ATOM      7  C   UNL     1       9.063  -0.839   1.406  0.00  0.00    +0.051 A 
BRANCH   6   8
ATOM      8  O   UNL     1      10.783  -1.412   2.948  0.00  0.00    -0.507 OA
ATOM      9  H   UNL     1      10.419  -1.512   3.838  0.00  0.00    +0.292 HD
ENDBRANCH   6   8
ENDBRANCH   1   2
BRANCH   1  11
ATOM     10  N   UNL     1       6.260  -1.880   1.385  0.00  0.00    -0.309 N 
ATOM     11  C   UNL     1       6.120  -0.756   0.654  0.00  0.00    +0.239 C 
ATOM     12  O   UNL     1       5.085  -0.125   0.705  0.00  0.00    -0.273 OA
ATOM     13  H   UNL     1       7.088  -2.384   1.345  0.00  0.00    +0.149 HD
BRANCH  10  15
ATOM     14  C   UNL     1       3.926  -2.610   1.379  0.00  0.00    +0.031 C 
ATOM     15  C   UNL     1       5.163  -2.340   2.239  0.00  0.00    +0.026 C 
ATOM     16  C   UNL     1       4.838  -1.264   3.276  0.00  0.00    +0.031 C 
ATOM     17  C   UNL     1       5.577  -3.628   2.953  0.00  0.00    +0.031 C 
ENDBRANCH  10  15
ENDBRANCH   1  11
BRANCH   1  18
ATOM     18  N   UNL     1       6.807   0.875  -1.006  0.00  0.00    -0.277 N 
ATOM     19  C   UNL     1       6.583   2.055  -0.396  0.00  0.00    +0.252 C 
ATOM     20  O   UNL     1       6.371   2.090   0.801  0.00  0.00    -0.270 OA
BRANCH  19  21
ATOM     21  C   UNL     1       6.596   3.305  -1.179  0.00  0.00    +0.082 A 
ATOM     22  C   UNL     1       5.750   3.452  -2.282  0.00  0.00    +0.017 A 
ATOM     23  C   UNL     1       5.764   4.621  -3.011  0.00  0.00    +0.005 A 
ATOM     24  C   UNL     1       6.615   5.655  -2.658  0.00  0.00    +0.049 A 
ATOM     25  C   UNL     1       7.460   5.525  -1.569  0.00  0.00    +0.159 A 
ATOM     26  C   UNL     1       7.452   4.353  -0.819  0.00  0.00    +0.171 A 
BRANCH  26  27
ATOM     27  O   UNL     1       8.275   4.223   0.253  0.00  0.00    -0.503 OA
ATOM     28  H   UNL     1       9.142   3.852   0.041  0.00  0.00    +0.292 HD
ENDBRANCH  26  27
BRANCH  25  29
ATOM     29  O   UNL     1       8.293   6.545  -1.228  0.00  0.00    -0.503 OA
ATOM     30  H   UNL     1       7.908   7.175  -0.605  0.00  0.00    +0.292 HD
ENDBRANCH  25  29
ENDBRANCH  19  21
BRANCH  18  31
ATOM     31  C   UNL     1       6.609   0.749  -2.452  0.00  0.00    +0.030 C 
ATOM     32  C   UNL     1       7.348  -0.490  -2.962  0.00  0.00    +0.031 C 
ATOM     33  C   UNL     1       5.115   0.611  -2.752  0.00  0.00    +0.031 C 
ATOM     34  C   UNL     1       7.156   1.994  -3.153  0.00  0.00    +0.031 C 
ENDBRANCH  18  31
ENDBRANCH   1  18
TORSDOF 9
