REMARK  Name = ZINC01042993
REMARK  3 active torsions:
REMARK  status: ('A' for Active; 'I' for Inactive)
REMARK    1  A    between atoms: C_3  and  N_9
REMARK    2  A    between atoms: C_15  and  C_22
REMARK    3  A    between atoms: C_17  and  C_19
REMARK                            x       y       z     vdW  Elec       q    Type
REMARK                         _______ _______ _______ _____ _____    ______ ____
ROOT
ATOM      1  N   UNL     1       2.247   0.847   0.501  0.00  0.00    -0.268 N 
ATOM      2  C   UNL     1       2.362  -0.447   0.143  0.00  0.00    +0.310 C 
ATOM      3  O   UNL     1       1.379  -1.072  -0.206  0.00  0.00    -0.252 OA
ATOM      4  N   UNL     1       3.568  -1.049   0.170  0.00  0.00    -0.261 N 
ATOM      5  C   UNL     1       3.705  -2.462  -0.213  0.00  0.00    +0.115 C 
ATOM      6  C   UNL     1       4.614  -3.145   0.813  0.00  0.00    +0.036 C 
ATOM      7  C   UNL     1       5.986  -2.469   0.781  0.00  0.00    +0.131 C 
ATOM      8  C   UNL     1       5.832  -0.976   0.862  0.00  0.00    +0.040 C 
ATOM      9  C   UNL     1       4.685  -0.354   0.562  0.00  0.00    +0.088 C 
ATOM     10  H   UNL     1       3.039   1.363   0.717  0.00  0.00    +0.156 HD
ENDROOT
BRANCH   1  13
ATOM     11  C   UNL     1      -1.288   1.587  -0.195  0.00  0.00    +0.022 A 
ATOM     12  C   UNL     1      -0.043   0.990  -0.253  0.00  0.00    +0.026 A 
ATOM     13  C   UNL     1       0.983   1.446   0.563  0.00  0.00    +0.053 A 
ATOM     14  C   UNL     1       0.753   2.498   1.441  0.00  0.00    +0.064 A 
ATOM     15  C   UNL     1      -0.495   3.088   1.499  0.00  0.00    +0.041 A 
ATOM     16  C   UNL     1      -1.516   2.631   0.684  0.00  0.00    +0.042 A 
ATOM     17 CL   UNL     1      -3.083   3.374   0.758  0.00  0.00    -0.083 Cl
ATOM     18 CL   UNL     1       2.033   3.071   2.464  0.00  0.00    -0.082 Cl
ENDBRANCH   1  13
BRANCH   8  19
ATOM     19  C   UNL     1       6.942  -0.198   1.272  0.00  0.00    +0.239 C 
ATOM     20  O   UNL     1       7.854   0.019   0.495  0.00  0.00    -0.271 OA
ATOM     21  N   UNL     1       6.989   0.302   2.523  0.00  0.00    -0.326 N 
ATOM     22  H   UNL     1       6.231   0.192   3.118  0.00  0.00    +0.145 HD
ATOM     23  H   UNL     1       7.781   0.773   2.828  0.00  0.00    +0.145 HD
ENDBRANCH   8  19
BRANCH   7  24
ATOM     24  C   UNL     1       6.817  -2.958   1.969  0.00  0.00    +0.397 C 
ATOM     25  F   UNL     1       6.234  -2.512   3.160  0.00  0.00    -0.170 F 
ATOM     26  F   UNL     1       6.859  -4.356   1.965  0.00  0.00    -0.170 F 
ATOM     27  F   UNL     1       8.117  -2.452   1.868  0.00  0.00    -0.170 F 
ENDBRANCH   7  24
TORSDOF 3
