REMARK  Name = ZINC39960478
REMARK  8 active torsions:
REMARK  status: ('A' for Active; 'I' for Inactive)
REMARK    1  A    between atoms: C_1  and  C_2
REMARK    2  A    between atoms: C_7  and  C_12
REMARK    3  A    between atoms: C_12  and  C_31
REMARK    4  A    between atoms: C_13  and  C_14
REMARK    5  A    between atoms: C_19  and  O_20
REMARK    6  A    between atoms: O_20  and  C_21
REMARK    7  A    between atoms: C_21  and  C_22
REMARK    8  A    between atoms: C_25  and  C_28
REMARK                            x       y       z     vdW  Elec       q    Type
REMARK                         _______ _______ _______ _____ _____    ______ ____
ROOT
ATOM      1  C   UNL     1       0.338  -6.825   2.783  0.00  0.00    +0.018 A 
ATOM      2  C   UNL     1       1.470  -6.024   2.597  0.00  0.00    +0.011 A 
ATOM      3  C   UNL     1       2.722  -6.532   2.869  0.00  0.00    +0.001 A 
ATOM      4  C   UNL     1       2.865  -7.832   3.325  0.00  0.00    +0.004 A 
ATOM      5  C   UNL     1       1.756  -8.634   3.512  0.00  0.00    +0.046 A 
ATOM      6  C   UNL     1       0.488  -8.140   3.251  0.00  0.00    +0.128 A 
ENDROOT
BRANCH   1   8
ATOM      7  C   UNL     1      -1.310  -5.022   2.838  0.00  0.00    +0.072 C 
ATOM      8  C   UNL     1      -1.001  -6.291   2.495  0.00  0.00    +0.030 C 
BRANCH   7  15
ATOM      9  C   UNL     1      -1.634   1.220   5.963  0.00  0.00    +0.044 C 
ATOM     10  C   UNL     1      -1.133   0.082   5.113  0.00  0.00    -0.048 A 
ATOM     11  C   UNL     1      -0.396   0.379   3.953  0.00  0.00    +0.005 A 
ATOM     12  C   UNL     1       0.089  -0.576   3.135  0.00  0.00    +0.027 A 
ATOM     13  C   UNL     1      -0.149  -1.991   3.451  0.00  0.00    +0.060 A 
ATOM     14  N   UNL     1       0.190  -3.100   2.859  0.00  0.00    -0.359 N 
ATOM     15  C   UNL     1      -0.344  -4.208   3.661  0.00  0.00    +0.216 C 
ATOM     16  N   UNL     1      -1.041  -3.598   4.800  0.00  0.00    -0.359 N 
ATOM     17  C   UNL     1      -0.928  -2.306   4.680  0.00  0.00    +0.061 A 
ATOM     18  C   UNL     1      -1.403  -1.182   5.498  0.00  0.00    +0.030 A 
ATOM     19  H   UNL     1       0.702  -3.179   2.039  0.00  0.00    +0.162 HD
ATOM     20  H   UNL     1      -1.500  -4.070   5.511  0.00  0.00    +0.162 HD
ENDBRANCH   7  15
BRANCH   7  21
ATOM     21  C   UNL     1      -2.554  -4.450   2.421  0.00  0.00    +0.099 C 
ATOM     22  N   UNL     1      -3.542  -3.997   2.091  0.00  0.00    -0.191 NA
ENDBRANCH   7  21
ENDBRANCH   1   8
BRANCH   6  23
ATOM     23  O   UNL     1      -0.603  -8.925   3.441  0.00  0.00    -0.487 OA
BRANCH  23  24
ATOM     24  C   UNL     1      -0.372 -10.251   3.919  0.00  0.00    +0.264 C 
BRANCH  24  25
ATOM     25  C   UNL     1      -1.689 -10.968   4.068  0.00  0.00    -0.010 A 
ATOM     26  C   UNL     1      -2.380 -10.898   5.266  0.00  0.00    +0.008 A 
ATOM     27  C   UNL     1      -3.586 -11.551   5.410  0.00  0.00    +0.015 A 
ATOM     28  C   UNL     1      -4.110 -12.285   4.343  0.00  0.00    +0.063 A 
ATOM     29  C   UNL     1      -3.408 -12.351   3.136  0.00  0.00    +0.015 A 
ATOM     30  C   UNL     1      -2.206 -11.688   3.005  0.00  0.00    +0.008 A 
BRANCH  28  31
ATOM     31  C   UNL     1      -5.399 -12.987   4.489  0.00  0.00    +0.387 C 
ATOM     32  O   UNL     1      -6.012 -12.928   5.546  0.00  0.00    -0.241 OA
ATOM     33  O   UNL     1      -5.856 -13.629   3.553  0.00  0.00    -0.241 OA
ENDBRANCH  28  31
ENDBRANCH  24  25
ENDBRANCH  23  24
ENDBRANCH   6  23
TORSDOF 7
