REMARK  Name = ZINC63426794
REMARK  8 active torsions:
REMARK  status: ('A' for Active; 'I' for Inactive)
REMARK    1  A    between atoms: C_1  and  N_2
REMARK    2  A    between atoms: N_12  and  C_24
REMARK    3  A    between atoms: N_15  and  C_16
REMARK    4  A    between atoms: N_15  and  C_17
REMARK    5  A    between atoms: C_17  and  C_18
REMARK    6  A    between atoms: C_24  and  C_25
REMARK    7  A    between atoms: C_25  and  S_26
REMARK    8  A    between atoms: S_26  and  C_27
REMARK                            x       y       z     vdW  Elec       q    Type
REMARK                         _______ _______ _______ _____ _____    ______ ____
ROOT
ATOM      1  C   UNL     1       0.639   0.681  -0.854  0.00  0.00    +0.136 C 
ATOM      2  N   UNL     1       0.308  -0.744  -0.778  0.00  0.00    -0.264 N 
ATOM      3  C   UNL     1      -1.075  -1.159  -0.509  0.00  0.00    +0.203 C 
ATOM      4  C   UNL     1      -1.431  -2.338  -1.450  0.00  0.00    +0.205 C 
ATOM      5  C   UNL     1      -0.265  -3.252  -1.628  0.00  0.00    +0.264 C 
ATOM      6  N   UNL     1       0.983  -2.898  -1.360  0.00  0.00    -0.126 NA
ATOM      7  C   UNL     1       1.279  -1.674  -0.963  0.00  0.00    +0.330 C 
ATOM      8  O   UNL     1       2.558  -1.371  -0.676  0.00  0.00    -0.250 OA
ATOM      9  O   UNL     1      -0.471  -4.377  -2.038  0.00  0.00    -0.271 OA
ATOM     10  N   UNL     1      -1.745  -1.596  -2.691  0.00  0.00    -0.289 N 
ATOM     11  C   UNL     1      -2.304  -0.408  -2.263  0.00  0.00    +0.161 C 
ATOM     12  N   UNL     1      -1.961  -0.087  -1.027  0.00  0.00    -0.340 N 
ATOM     13  N   UNL     1      -3.132   0.366  -3.041  0.00  0.00    -0.303 N 
ATOM     14  C   UNL     1      -2.889   0.480  -4.481  0.00  0.00    +0.132 C 
ATOM     15  H   UNL     1      -2.236   0.703  -0.536  0.00  0.00    +0.164 HD
ENDROOT
BRANCH  13  16
ATOM     16  C   UNL     1      -4.259   1.076  -2.430  0.00  0.00    +0.142 C 
BRANCH  16  17
ATOM     17  C   UNL     1      -3.845   2.488  -2.104  0.00  0.00    -0.030 A 
ATOM     18  C   UNL     1      -3.386   2.798  -0.837  0.00  0.00    +0.005 A 
ATOM     19  C   UNL     1      -3.007   4.093  -0.538  0.00  0.00    +0.000 A 
ATOM     20  C   UNL     1      -3.086   5.078  -1.505  0.00  0.00    +0.000 A 
ATOM     21  C   UNL     1      -3.545   4.767  -2.772  0.00  0.00    +0.000 A 
ATOM     22  C   UNL     1      -3.920   3.471  -3.072  0.00  0.00    +0.005 A 
ENDBRANCH  16  17
ENDBRANCH  13  16
BRANCH  10  23
ATOM     23  C   UNL     1      -1.514  -2.028  -4.071  0.00  0.00    +0.119 C 
BRANCH  23  24
ATOM     24  C   UNL     1      -2.717  -2.835  -4.562  0.00  0.00    +0.092 C 
BRANCH  24  25
ATOM     25  S   UNL     1      -2.378  -3.478  -6.224  0.00  0.00    -0.113 S 
BRANCH  25  26
ATOM     26  C   UNL     1      -3.881  -4.398  -6.654  0.00  0.00    +0.235 C 
ATOM     27  N   UNL     1      -5.052  -3.517  -6.570  0.00  0.00    -0.355 N 
ATOM     28  C   UNL     1      -5.853  -4.016  -5.673  0.00  0.00    +0.061 A 
ATOM     29  C   UNL     1      -7.160  -3.591  -5.154  0.00  0.00    +0.027 A 
ATOM     30  C   UNL     1      -7.768  -4.326  -4.201  0.00  0.00    +0.002 A 
ATOM     31  C   UNL     1      -7.202  -5.499  -3.672  0.00  0.00    +0.002 A 
ATOM     32  C   UNL     1      -6.008  -5.977  -4.078  0.00  0.00    +0.027 A 
ATOM     33  C   UNL     1      -5.253  -5.257  -5.113  0.00  0.00    +0.061 A 
ATOM     34  N   UNL     1      -4.105  -5.478  -5.685  0.00  0.00    -0.355 N 
ATOM     35  H   UNL     1      -5.202  -2.710  -7.088  0.00  0.00    +0.162 HD
ATOM     36  H   UNL     1      -3.507  -6.221  -5.505  0.00  0.00    +0.162 HD
ENDBRANCH  25  26
ENDBRANCH  24  25
ENDBRANCH  23  24
ENDBRANCH  10  23
TORSDOF 6
