REMARK  Name = ZINC65413108
REMARK  11 active torsions:
REMARK  status: ('A' for Active; 'I' for Inactive)
REMARK    1  A    between atoms: C_1  and  C_2
REMARK    2  A    between atoms: C_4  and  C_8
REMARK    3  A    between atoms: C_5  and  C_7
REMARK    4  A    between atoms: C_8  and  C_9
REMARK    5  A    between atoms: C_8  and  N_10
REMARK    6  A    between atoms: N_13  and  C_14
REMARK    7  A    between atoms: C_17  and  C_20
REMARK    8  A    between atoms: N_22  and  C_23
REMARK    9  A    between atoms: C_23  and  C_24
REMARK   10  A    between atoms: C_24  and  C_25
REMARK   11  A    between atoms: C_24  and  C_26
REMARK                            x       y       z     vdW  Elec       q    Type
REMARK                         _______ _______ _______ _____ _____    ______ ____
ROOT
ATOM      1  N   UNL     1      -2.616  -2.886  -1.128  0.00  0.00    -0.292 N 
ATOM      2  C   UNL     1      -3.336  -3.869  -1.704  0.00  0.00    +0.304 C 
ATOM      3  O   UNL     1      -2.770  -4.803  -2.240  0.00  0.00    -0.252 OA
ATOM      4  N   UNL     1      -4.682  -3.818  -1.684  0.00  0.00    -0.269 N 
ATOM      5  H   UNL     1      -3.067  -2.142  -0.700  0.00  0.00    +0.151 HD
ATOM      6  H   UNL     1      -5.134  -3.110  -1.199  0.00  0.00    +0.156 HD
ENDROOT
BRANCH   4   7
ATOM      7  C   UNL     1      -5.426  -4.784  -2.361  0.00  0.00    +0.035 A 
ATOM      8  C   UNL     1      -4.972  -6.098  -2.416  0.00  0.00    +0.024 A 
ATOM      9  C   UNL     1      -5.705  -7.054  -3.083  0.00  0.00    +0.015 A 
ATOM     10  C   UNL     1      -6.905  -6.703  -3.706  0.00  0.00    +0.037 A 
ATOM     11  C   UNL     1      -7.359  -5.382  -3.649  0.00  0.00    +0.015 A 
ATOM     12  C   UNL     1      -6.624  -4.432  -2.975  0.00  0.00    +0.024 A 
BRANCH  10  13
ATOM     13  C   UNL     1      -7.693  -7.724  -4.423  0.00  0.00    +0.244 C 
ATOM     14  O   UNL     1      -7.297  -8.873  -4.473  0.00  0.00    -0.270 OA
ATOM     15  N   UNL     1      -8.851  -7.384  -5.023  0.00  0.00    -0.311 N 
ATOM     16  H   UNL     1      -9.167  -6.468  -4.984  0.00  0.00    +0.149 HD
BRANCH  15  17
ATOM     17  C   UNL     1      -9.632  -8.399  -5.735  0.00  0.00    +0.107 C 
BRANCH  17  18
ATOM     18  C   UNL     1     -10.891  -7.755  -6.320  0.00  0.00    -0.000 C 
ATOM     19  C   UNL     1     -11.643  -8.783  -7.167  0.00  0.00    +0.009 C 
ATOM     20  C   UNL     1     -11.793  -7.274  -5.182  0.00  0.00    +0.009 C 
ENDBRANCH  17  18
ENDBRANCH  15  17
ENDBRANCH  10  13
ENDBRANCH   4   7
BRANCH   1  21
ATOM     21  C   UNL     1      -1.152  -2.942  -1.149  0.00  0.00    +0.105 C 
ATOM     22  C   UNL     1      -0.656  -3.790   0.023  0.00  0.00    +0.033 C 
BRANCH  21  26
ATOM     23  C   UNL     1      -0.639   2.009  -0.059  0.00  0.00    +0.086 C 
ATOM     24  C   UNL     1      -0.385   0.607  -0.550  0.00  0.00    +0.103 A 
ATOM     25  C   UNL     1      -1.234  -0.431  -0.441  0.00  0.00    +0.050 A 
ATOM     26  C   UNL     1      -0.595  -1.546  -1.031  0.00  0.00    +0.013 A 
ATOM     27  C   UNL     1       0.606  -1.123  -1.464  0.00  0.00    +0.107 A 
ATOM     28  O   UNL     1       0.726   0.183  -1.176  0.00  0.00    -0.465 OA
ATOM     29  C   UNL     1       1.640  -1.970  -2.161  0.00  0.00    +0.086 C 
ENDBRANCH  21  26
ENDBRANCH   1  21
TORSDOF 6
