REMARK  Name = ZINC62239232
REMARK  9 active torsions:
REMARK  status: ('A' for Active; 'I' for Inactive)
REMARK    1  A    between atoms: C_1  and  O_2
REMARK    2  A    between atoms: O_2  and  C_3
REMARK    3  A    between atoms: C_5  and  O_21
REMARK    4  A    between atoms: C_6  and  C_11
REMARK    5  A    between atoms: C_7  and  O_9
REMARK    6  A    between atoms: O_9  and  C_10
REMARK    7  A    between atoms: C_11  and  C_13
REMARK    8  A    between atoms: C_11  and  O_20
REMARK    9  A    between atoms: O_21  and  C_22
REMARK                            x       y       z     vdW  Elec       q    Type
REMARK                         _______ _______ _______ _____ _____    ______ ____
ROOT
ATOM      1  C   UNL     1      -1.367  -0.350  -0.051  0.00  0.00    +0.127 A 
ATOM      2  C   UNL     1      -2.594   0.296  -0.039  0.00  0.00    +0.091 A 
ATOM      3  C   UNL     1      -3.767  -0.443  -0.011  0.00  0.00    +0.133 A 
ATOM      4  C   UNL     1      -3.713  -1.829   0.004  0.00  0.00    +0.065 A 
ATOM      5  C   UNL     1      -2.486  -2.475  -0.009  0.00  0.00    +0.133 A 
ATOM      6  C   UNL     1      -1.313  -1.736  -0.042  0.00  0.00    +0.091 A 
ENDROOT
BRANCH   1   8
ATOM      7  C   UNL     1      -0.348   1.797  -0.088  0.00  0.00    +0.277 C 
ATOM      8  O   UNL     1      -0.218   0.374  -0.079  0.00  0.00    -0.495 OA
ENDBRANCH   1   8
BRANCH   5   9
ATOM      9  O   UNL     1      -2.433  -3.833   0.006  0.00  0.00    -0.495 OA
ATOM     10  C   UNL     1      -1.136  -4.432  -0.009  0.00  0.00    +0.277 C 
ENDBRANCH   5   9
BRANCH   3  11
ATOM     11  O   UNL     1      -4.969   0.190   0.002  0.00  0.00    -0.495 OA
ATOM     12  C   UNL     1      -4.950   1.619  -0.015  0.00  0.00    +0.277 C 
ENDBRANCH   3  11
BRANCH   4  13
ATOM     13  C   UNL     1      -4.987  -2.632   0.035  0.00  0.00    +0.157 C 
BRANCH  13  14
ATOM     14  C   UNL     1      -5.544  -2.651   1.460  0.00  0.00    +0.048 C 
ATOM     15  C   UNL     1      -6.768  -3.570   1.520  0.00  0.00    +0.011 C 
ATOM     16  C   UNL     1      -7.363  -3.519   2.930  0.00  0.00    +0.028 C 
ATOM     17  C   UNL     1      -7.707  -2.069   3.279  0.00  0.00    +0.160 C 
ATOM     18  O   UNL     1      -6.532  -1.263   3.174  0.00  0.00    -0.379 OA
ATOM     19  C   UNL     1      -5.958  -1.234   1.866  0.00  0.00    +0.166 C 
ENDBRANCH  13  14
BRANCH  13  20
ATOM     20  O   UNL     1      -5.946  -2.039  -0.843  0.00  0.00    -0.387 OA
ATOM     21  H   UNL     1      -6.177  -1.128  -0.616  0.00  0.00    +0.210 HD
ENDBRANCH  13  20
ENDBRANCH   4  13
TORSDOF 6
