REMARK  Name = ZINC35287179
REMARK  9 active torsions:
REMARK  status: ('A' for Active; 'I' for Inactive)
REMARK    1  A    between atoms: C_1  and  C_2
REMARK    2  A    between atoms: C_2  and  C_4
REMARK    3  A    between atoms: C_2  and  O_15
REMARK    4  A    between atoms: N_6  and  C_7
REMARK    5  A    between atoms: O_15  and  C_16
REMARK    6  A    between atoms: C_16  and  C_18
REMARK    7  A    between atoms: C_18  and  C_20
REMARK    8  A    between atoms: C_18  and  N_27
REMARK    9  A    between atoms: C_20  and  C_21
REMARK                            x       y       z     vdW  Elec       q    Type
REMARK                         _______ _______ _______ _____ _____    ______ ____
ROOT
ATOM      1  C   UNL     1       0.551  -1.158  -3.540  0.00  0.00    +0.197 C 
ENDROOT
BRANCH   1   2
ATOM      2  N   UNL     1      -0.332  -0.859  -4.670  0.00  0.00    -0.220 N 
ATOM      3  C   UNL     1      -1.589  -1.320  -4.797  0.00  0.00    +0.255 C 
ATOM      4  O   UNL     1      -2.163  -2.041  -4.006  0.00  0.00    -0.270 OA
ATOM      5  C   UNL     1      -2.156  -0.803  -6.061  0.00  0.00    +0.049 A 
ATOM      6  C   UNL     1      -3.376  -0.941  -6.702  0.00  0.00    +0.014 A 
ATOM      7  C   UNL     1      -3.591  -0.304  -7.915  0.00  0.00    +0.001 A 
ATOM      8  C   UNL     1      -2.596   0.465  -8.488  0.00  0.00    +0.001 A 
ATOM      9  C   UNL     1      -1.370   0.612  -7.858  0.00  0.00    +0.014 A 
ATOM     10  C   UNL     1      -1.141  -0.019  -6.646  0.00  0.00    +0.049 A 
ATOM     11  C   UNL     1       0.005  -0.081  -5.715  0.00  0.00    +0.255 C 
ATOM     12  O   UNL     1       1.074   0.475  -5.868  0.00  0.00    -0.270 OA
ENDBRANCH   1   2
BRANCH   1  13
ATOM     13  C   UNL     1      -0.085  -0.672  -2.263  0.00  0.00    +0.329 C 
ATOM     14  O   UNL     1      -1.276  -0.469  -2.220  0.00  0.00    -0.249 OA
BRANCH  13  15
ATOM     15  O   UNL     1       0.671  -0.465  -1.174  0.00  0.00    -0.451 OA
BRANCH  15  17
ATOM     16  C   UNL     1      -0.019   1.526   0.010  0.00  0.00    +0.062 C 
ATOM     17  C   UNL     1       0.002  -0.004   0.002  0.00  0.00    +0.258 C 
BRANCH  17  18
ATOM     18  C   UNL     1       0.731  -0.503   1.223  0.00  0.00    +0.254 C 
ATOM     19  O   UNL     1       1.774  -1.109   1.101  0.00  0.00    -0.272 OA
ATOM     20  N   UNL     1       0.223  -0.277   2.451  0.00  0.00    -0.308 N 
ATOM     21  H   UNL     1      -0.611   0.208   2.548  0.00  0.00    +0.149 HD
BRANCH  20  22
ATOM     22  C   UNL     1       0.932  -0.762   3.638  0.00  0.00    +0.095 C 
ATOM     23  C   UNL     1       1.992   0.271   4.057  0.00  0.00    +0.046 C 
ATOM     24  C   UNL     1       2.504  -0.110   5.476  0.00  0.00    +0.168 C 
ATOM     25  S   UNL     1       0.923  -0.603   6.284  0.00  0.00    -0.029 S 
ATOM     26  O   UNL     1       0.368   0.528   6.942  0.00  0.00    -0.174 OA
ATOM     27  O   UNL     1       1.131  -1.804   7.014  0.00  0.00    -0.174 OA
ATOM     28  C   UNL     1      -0.080  -0.975   4.789  0.00  0.00    +0.188 C 
ENDBRANCH  20  22
ENDBRANCH  17  18
ENDBRANCH  15  17
ENDBRANCH  13  15
ENDBRANCH   1  13
BRANCH   1  29
ATOM     29  C   UNL     1       0.775  -2.669  -3.455  0.00  0.00    +0.069 C 
BRANCH  29  30
ATOM     30  C   UNL     1       1.521  -3.136  -4.679  0.00  0.00    -0.045 A 
ATOM     31  C   UNL     1       0.823  -3.531  -5.805  0.00  0.00    +0.004 A 
ATOM     32  C   UNL     1       1.507  -3.959  -6.927  0.00  0.00    +0.000 A 
ATOM     33  C   UNL     1       2.889  -3.992  -6.923  0.00  0.00    +0.000 A 
ATOM     34  C   UNL     1       3.587  -3.596  -5.798  0.00  0.00    +0.000 A 
ATOM     35  C   UNL     1       2.903  -3.164  -4.677  0.00  0.00    +0.004 A 
ENDBRANCH  29  30
ENDBRANCH   1  29
TORSDOF 8
