REMARK  Name = ZINC20884544
REMARK  10 active torsions:
REMARK  status: ('A' for Active; 'I' for Inactive)
REMARK    1  A    between atoms: C_1  and  C_2
REMARK    2  A    between atoms: C_2  and  C_4
REMARK    3  A    between atoms: C_2  and  O_15
REMARK    4  A    between atoms: N_6  and  C_7
REMARK    5  A    between atoms: O_15  and  C_16
REMARK    6  A    between atoms: C_16  and  C_18
REMARK    7  A    between atoms: C_19  and  C_20
REMARK    8  A    between atoms: C_23  and  C_26
REMARK    9  A    between atoms: C_26  and  O_28
REMARK   10  A    between atoms: O_28  and  C_29
REMARK                            x       y       z     vdW  Elec       q    Type
REMARK                         _______ _______ _______ _____ _____    ______ ____
ROOT
ATOM      1  O   UNL     1      -2.821   3.776  -0.062  0.00  0.00    -0.449 OA
ENDROOT
BRANCH   1   3
ATOM      2  C   UNL     1      -0.694   4.118   1.073  0.00  0.00    +0.062 C 
ATOM      3  C   UNL     1      -1.409   3.437  -0.096  0.00  0.00    +0.259 C 
BRANCH   3   4
ATOM      4  C   UNL     1      -1.248   1.943   0.018  0.00  0.00    +0.258 C 
ATOM      5  O   UNL     1      -2.227   1.233   0.118  0.00  0.00    -0.271 OA
ATOM      6  N   UNL     1      -0.017   1.395   0.010  0.00  0.00    -0.281 N 
ATOM      7  H   UNL     1       0.873   2.042  -0.006  0.00  0.00    +0.155 HD
BRANCH   6   8
ATOM      8  C   UNL     1       0.130   0.004   0.021  0.00  0.00    +0.053 A 
ATOM      9  C   UNL     1      -0.771  -0.786   0.722  0.00  0.00    +0.044 A 
ATOM     10  C   UNL     1      -0.624  -2.160   0.731  0.00  0.00    +0.043 A 
ATOM     11  C   UNL     1       0.422  -2.749   0.042  0.00  0.00    +0.021 A 
ATOM     12  C   UNL     1       1.321  -1.966  -0.657  0.00  0.00    +0.023 A 
ATOM     13  C   UNL     1       1.176  -0.592  -0.674  0.00  0.00    +0.062 A 
ATOM     14 CL   UNL     1       2.302   0.390  -1.558  0.00  0.00    -0.082 Cl
ATOM     15 CL   UNL     1      -1.751  -3.148   1.607  0.00  0.00    -0.083 Cl
ENDBRANCH   6   8
ENDBRANCH   3   4
ENDBRANCH   1   3
BRANCH   1  16
ATOM     16  C   UNL     1      -3.202   4.879  -0.738  0.00  0.00    +0.333 C 
ATOM     17  O   UNL     1      -2.377   5.539  -1.339  0.00  0.00    -0.246 OA
BRANCH  16  18
ATOM     18  C   UNL     1      -4.611   5.281  -0.749  0.00  0.00    +0.092 C 
ATOM     19  C   UNL     1      -4.992   6.383  -1.425  0.00  0.00    +0.015 C 
BRANCH  19  20
ATOM     20  C   UNL     1      -6.407   6.788  -1.435  0.00  0.00    -0.025 A 
ATOM     21  C   UNL     1      -7.358   6.025  -0.749  0.00  0.00    +0.009 A 
ATOM     22  C   UNL     1      -8.681   6.406  -0.756  0.00  0.00    +0.015 A 
ATOM     23  C   UNL     1      -9.075   7.549  -1.457  0.00  0.00    +0.059 A 
ATOM     24  C   UNL     1      -8.127   8.309  -2.146  0.00  0.00    +0.015 A 
ATOM     25  C   UNL     1      -6.803   7.932  -2.137  0.00  0.00    +0.009 A 
BRANCH  23  26
ATOM     26  C   UNL     1     -10.496   7.954  -1.468  0.00  0.00    +0.339 C 
ATOM     27  O   UNL     1     -10.840   8.947  -2.077  0.00  0.00    -0.245 OA
BRANCH  26  28
ATOM     28  O   UNL     1     -11.411   7.222  -0.803  0.00  0.00    -0.464 OA
ATOM     29  C   UNL     1     -12.788   7.679  -0.858  0.00  0.00    +0.280 C 
ENDBRANCH  26  28
ENDBRANCH  23  26
ENDBRANCH  19  20
ENDBRANCH  16  18
ENDBRANCH   1  16
TORSDOF 8
