REMARK  Name = ZINC36534758
REMARK  19 active torsions:
REMARK  status: ('A' for Active; 'I' for Inactive)
REMARK    1  A    between atoms: C_1  and  C_2
REMARK    2  A    between atoms: C_2  and  C_3
REMARK    3  A    between atoms: C_2  and  C_4
REMARK    4  A    between atoms: C_2  and  C_5
REMARK    5  A    between atoms: C_5  and  C_6
REMARK    6  A    between atoms: C_6  and  C_7
REMARK    7  A    between atoms: C_6  and  C_8
REMARK    8  A    between atoms: C_6  and  N_9
REMARK    9  A    between atoms: C_10  and  C_12
REMARK   10  A    between atoms: C_12  and  C_14
REMARK   11  A    between atoms: C_12  and  N_23
REMARK   12  A    between atoms: C_17  and  O_22
REMARK   13  A    between atoms: C_18  and  O_20
REMARK   14  A    between atoms: O_20  and  C_21
REMARK   15  A    between atoms: N_23  and  C_24
REMARK   16  A    between atoms: C_25  and  C_27
REMARK   17  A    between atoms: C_27  and  C_28
REMARK   18  A    between atoms: C_27  and  C_34
REMARK   19  A    between atoms: C_27  and  O_40
REMARK                            x       y       z     vdW  Elec       q    Type
REMARK                         _______ _______ _______ _____ _____    ______ ____
ROOT
ATOM      1  C   UNL     1       5.311  -0.350  -4.157  0.00  0.00    +0.192 C 
ENDROOT
BRANCH   1   2
ATOM      2  C   UNL     1       5.204  -1.840  -4.361  0.00  0.00    -0.015 A 
ATOM      3  C   UNL     1       5.597  -2.704  -3.357  0.00  0.00    +0.010 A 
ATOM      4  C   UNL     1       5.500  -4.071  -3.539  0.00  0.00    +0.049 A 
ATOM      5  C   UNL     1       5.008  -4.577  -4.731  0.00  0.00    +0.158 A 
ATOM      6  C   UNL     1       4.611  -3.708  -5.742  0.00  0.00    +0.162 A 
ATOM      7  C   UNL     1       4.706  -2.338  -5.551  0.00  0.00    +0.055 A 
BRANCH   6   8
ATOM      8  O   UNL     1       4.127  -4.200  -6.914  0.00  0.00    -0.491 OA
ATOM      9  C   UNL     1       3.739  -3.248  -7.907  0.00  0.00    +0.277 C 
ENDBRANCH   6   8
BRANCH   5  10
ATOM     10  O   UNL     1       4.912  -5.922  -4.912  0.00  0.00    -0.503 OA
ATOM     11  H   UNL     1       4.066  -6.298  -4.632  0.00  0.00    +0.292 HD
ENDBRANCH   5  10
ENDBRANCH   1   2
BRANCH   1  13
ATOM     12  N   UNL     1       3.235  -0.205  -2.820  0.00  0.00    -0.308 N 
ATOM     13  C   UNL     1       4.557   0.042  -2.912  0.00  0.00    +0.238 C 
ATOM     14  O   UNL     1       5.140   0.579  -1.994  0.00  0.00    -0.273 OA
ATOM     15  H   UNL     1       2.769  -0.635  -3.554  0.00  0.00    +0.149 HD
BRANCH  12  16
ATOM     16  C   UNL     1       2.502   0.176  -1.610  0.00  0.00    +0.030 C 
ATOM     17  C   UNL     1       2.741   1.658  -1.314  0.00  0.00    +0.031 C 
ATOM     18  C   UNL     1       2.993  -0.665  -0.430  0.00  0.00    +0.031 C 
BRANCH  16  19
ATOM     19  C   UNL     1       1.007  -0.067  -1.822  0.00  0.00    +0.031 C 
BRANCH  19  21
ATOM     20  C   UNL     1       0.957  -0.624  -4.257  0.00  0.00    +0.010 C 
ATOM     21  C   UNL     1       0.601   0.433  -3.210  0.00  0.00    -0.036 C 
ATOM     22  C   UNL     1       1.347   1.732  -3.522  0.00  0.00    +0.010 C 
ATOM     23  C   UNL     1      -0.907   0.691  -3.238  0.00  0.00    +0.010 C 
ENDBRANCH  19  21
ENDBRANCH  16  19
ENDBRANCH  12  16
ENDBRANCH   1  13
BRANCH   1  24
ATOM     24  N   UNL     1       6.721   0.022  -4.011  0.00  0.00    -0.286 N 
ATOM     25  C   UNL     1       7.535  -0.591  -2.959  0.00  0.00    +0.133 C 
ATOM     26  C   UNL     1       7.268   0.928  -4.846  0.00  0.00    +0.257 C 
ATOM     27  O   UNL     1       6.576   1.490  -5.668  0.00  0.00    -0.272 OA
BRANCH  26  28
ATOM     28  C   UNL     1       8.739   1.242  -4.757  0.00  0.00    +0.192 C 
BRANCH  28  29
ATOM     29  C   UNL     1       9.218   1.784  -6.079  0.00  0.00    -0.003 A 
ATOM     30  C   UNL     1       9.252   3.149  -6.295  0.00  0.00    +0.007 A 
ATOM     31  C   UNL     1       9.691   3.646  -7.508  0.00  0.00    +0.000 A 
ATOM     32  C   UNL     1      10.096   2.778  -8.505  0.00  0.00    +0.000 A 
ATOM     33  C   UNL     1      10.063   1.413  -8.288  0.00  0.00    +0.000 A 
ATOM     34  C   UNL     1       9.628   0.916  -7.074  0.00  0.00    +0.007 A 
ENDBRANCH  28  29
BRANCH  28  35
ATOM     35  C   UNL     1       8.969   2.271  -3.680  0.00  0.00    -0.003 A 
ATOM     36  C   UNL     1       8.032   3.263  -3.461  0.00  0.00    +0.007 A 
ATOM     37  C   UNL     1       8.242   4.207  -2.473  0.00  0.00    +0.000 A 
ATOM     38  C   UNL     1       9.390   4.157  -1.703  0.00  0.00    +0.000 A 
ATOM     39  C   UNL     1      10.326   3.164  -1.921  0.00  0.00    +0.000 A 
ATOM     40  C   UNL     1      10.114   2.218  -2.907  0.00  0.00    +0.007 A 
ENDBRANCH  28  35
BRANCH  28  41
ATOM     41  O   UNL     1       9.462   0.051  -4.440  0.00  0.00    -0.371 OA
ATOM     42  H   UNL     1       9.360  -0.656  -5.092  0.00  0.00    +0.212 HD
ENDBRANCH  28  41
ENDBRANCH  26  28
ENDBRANCH   1  24
TORSDOF 12
