REMARK  Name = ZINC35378951
REMARK  8 active torsions:
REMARK  status: ('A' for Active; 'I' for Inactive)
REMARK    1  A    between atoms: C_1  and  C_2
REMARK    2  A    between atoms: C_7  and  S_8
REMARK    3  A    between atoms: S_8  and  N_11
REMARK    4  A    between atoms: C_15  and  C_18
REMARK    5  A    between atoms: N_20  and  C_21
REMARK    6  A    between atoms: C_21  and  C_22
REMARK    7  A    between atoms: C_22  and  C_23
REMARK    8  A    between atoms: C_23  and  N_24
REMARK                            x       y       z     vdW  Elec       q    Type
REMARK                         _______ _______ _______ _____ _____    ______ ____
ROOT
ATOM      1  N   UNL     1       1.803   0.936   2.738  0.00  0.00    -0.176 NA
ATOM      2  C   UNL     1       3.056   0.375   3.262  0.00  0.00    +0.109 C 
ATOM      3  C   UNL     1       3.604   1.316   4.339  0.00  0.00    +0.018 C 
ATOM      4  C   UNL     1       3.741   2.725   3.758  0.00  0.00    +0.015 C 
ATOM      5  C   UNL     1       2.365   3.236   3.325  0.00  0.00    +0.091 C 
ATOM      6  C   UNL     1       1.804   2.315   2.232  0.00  0.00    +0.122 C 
ENDROOT
BRANCH   5   7
ATOM      7  C   UNL     1       2.496   4.637   2.784  0.00  0.00    +0.217 C 
ATOM      8  O   UNL     1       2.170   4.878   1.641  0.00  0.00    -0.275 OA
ATOM      9  N   UNL     1       2.977   5.621   3.570  0.00  0.00    -0.315 N 
ATOM     10  H   UNL     1       3.238   5.428   4.484  0.00  0.00    +0.149 HD
BRANCH   9  11
ATOM     11  C   UNL     1       3.104   6.982   3.043  0.00  0.00    +0.102 C 
BRANCH  11  12
ATOM     12  C   UNL     1       3.669   7.898   4.130  0.00  0.00    +0.000 C 
BRANCH  12  13
ATOM     13  C   UNL     1       3.802   9.320   3.581  0.00  0.00    -0.077 C 
BRANCH  13  14
ATOM     14  N   UNL     1       4.221  10.225   4.659  0.00  0.00    +0.380 N 
ATOM     15  C   UNL     1       4.113  11.616   4.179  0.00  0.00    -0.079 C 
ATOM     16  C   UNL     1       3.944  12.518   5.376  0.00  0.00    -0.019 C 
ATOM     17  C   UNL     1       5.290  13.116   5.826  0.00  0.00    -0.002 C 
ATOM     18  C   UNL     1       6.427  12.076   5.762  0.00  0.00    -0.002 C 
ATOM     19  C   UNL     1       5.994  10.720   6.258  0.00  0.00    -0.019 C 
ATOM     20  C   UNL     1       5.513   9.876   5.060  0.00  0.00    -0.079 C 
ATOM     21  H   UNL     1       3.597  10.105   5.443  0.00  0.00    -0.082 HD
ENDBRANCH  13  14
ENDBRANCH  12  13
ENDBRANCH  11  12
ENDBRANCH   9  11
ENDBRANCH   5   7
BRANCH   1  22
ATOM     22  S   UNL     1       0.419   0.028   2.711  0.00  0.00    +0.061 S 
ATOM     23  O   UNL     1      -0.667   0.944   2.696  0.00  0.00    -0.153 OA
ATOM     24  O   UNL     1       0.564  -0.965   3.717  0.00  0.00    -0.153 OA
BRANCH  22  31
ATOM     25  C   UNL     1       0.181   1.399   0.031  0.00  0.00    +0.046 C 
ATOM     26  C   UNL     1       0.271  -0.104  -0.010  0.00  0.00    -0.022 A 
ATOM     27  C   UNL     1       0.248  -0.764  -1.226  0.00  0.00    +0.032 A 
ATOM     28  C   UNL     1       0.330  -2.145  -1.262  0.00  0.00    +0.076 A 
ATOM     29  C   UNL     1       0.436  -2.868  -0.074  0.00  0.00    +0.144 A 
ATOM     30  C   UNL     1       0.460  -2.202   1.138  0.00  0.00    +0.076 A 
ATOM     31  C   UNL     1       0.382  -0.821   1.167  0.00  0.00    +0.112 A 
ATOM     32  O   UNL     1       0.513  -4.225  -0.122  0.00  0.00    -0.481 OA
ATOM     33  C   UNL     1      -0.199  -4.873  -1.179  0.00  0.00    +0.325 C 
ATOM     34  C   UNL     1       0.073  -4.163  -2.482  0.00  0.00    +0.255 C 
ATOM     35  O   UNL     1       0.079  -4.784  -3.523  0.00  0.00    -0.272 OA
ATOM     36  N   UNL     1       0.308  -2.833  -2.484  0.00  0.00    -0.280 N 
ATOM     37  H   UNL     1       0.460  -2.361  -3.317  0.00  0.00    +0.155 HD
ENDBRANCH  22  31
ENDBRANCH   1  22
TORSDOF 7
