REMARK  Name = ZINC52860143
REMARK  5 active torsions:
REMARK  status: ('A' for Active; 'I' for Inactive)
REMARK    1  A    between atoms: C_1  and  N_2
REMARK    2  A    between atoms: N_2  and  C_3
REMARK    3  A    between atoms: N_2  and  C_10
REMARK    4  A    between atoms: C_3  and  C_4
REMARK    5  A    between atoms: C_15  and  C_16
REMARK                            x       y       z     vdW  Elec       q    Type
REMARK                         _______ _______ _______ _____ _____    ______ ____
ROOT
ATOM      1  C   UNL     1       0.144  -0.817  -1.171  0.00  0.00    +0.040 A 
ATOM      2  C   UNL     1       1.379  -1.037  -1.767  0.00  0.00    +0.025 A 
ATOM      3  C   UNL     1       1.450  -1.609  -3.021  0.00  0.00    +0.022 A 
ATOM      4  C   UNL     1       0.293  -1.967  -3.695  0.00  0.00    +0.042 A 
ATOM      5  C   UNL     1      -0.942  -1.756  -3.119  0.00  0.00    +0.033 A 
ATOM      6  C   UNL     1      -1.029  -1.183  -1.848  0.00  0.00    +0.034 A 
ATOM      7 CL   UNL     1       0.398  -2.684  -5.272  0.00  0.00    -0.084 Cl
ENDROOT
BRANCH   6   8
ATOM      8  C   UNL     1      -2.347  -0.960  -1.223  0.00  0.00    +0.096 C 
ATOM      9  N   UNL     1      -2.702   0.265  -0.835  0.00  0.00    -0.387 N 
ATOM     10  N   UNL     1      -3.183  -1.983  -1.046  0.00  0.00    -0.345 N 
ATOM     11  H   UNL     1      -3.544   0.403  -0.374  0.00  0.00    +0.157 HD
ATOM     12  H   UNL     1      -2.924  -2.875  -1.327  0.00  0.00    +0.144 HD
ATOM     13  H   UNL     1      -4.049  -1.837  -0.635  0.00  0.00    +0.144 HD
ATOM     14  H   UNL     1      -2.118   1.019  -1.014  0.00  0.00    +0.157 HD
ENDBRANCH   6   8
BRANCH   1  16
ATOM     15  C   UNL     1      -0.124   1.205   0.228  0.00  0.00    +0.129 C 
ATOM     16  N   UNL     1       0.070  -0.241   0.092  0.00  0.00    -0.328 N 
BRANCH  16  17
ATOM     17  C   UNL     1       0.188  -1.080   1.287  0.00  0.00    +0.140 C 
BRANCH  17  18
ATOM     18  C   UNL     1      -1.188  -1.445   1.782  0.00  0.00    -0.022 A 
ATOM     19  C   UNL     1      -1.843  -0.637   2.693  0.00  0.00    +0.028 A 
ATOM     20  C   UNL     1      -3.080  -0.995   3.118  0.00  0.00    +0.055 A 
ATOM     21  S   UNL     1      -3.354  -2.514   2.220  0.00  0.00    -0.090 S 
ATOM     22  C   UNL     1      -1.805  -2.566   1.335  0.00  0.00    +0.051 A 
ATOM     23 BR   UNL     1      -4.220  -0.114   4.343  0.00  0.00    -0.043 Br
ENDBRANCH  17  18
ENDBRANCH  16  17
ENDBRANCH   1  16
TORSDOF 4
