REMARK  Name = ZINC11749933
REMARK  6 active torsions:
REMARK  status: ('A' for Active; 'I' for Inactive)
REMARK    1  A    between atoms: C_4  and  C_7
REMARK    2  A    between atoms: C_7  and  C_10
REMARK    3  A    between atoms: C_10  and  N_11
REMARK    4  A    between atoms: C_12  and  C_14
REMARK    5  A    between atoms: C_17  and  N_23
REMARK    6  A    between atoms: C_18  and  N_20
REMARK                            x       y       z     vdW  Elec       q    Type
REMARK                         _______ _______ _______ _____ _____    ______ ____
ROOT
ATOM      1  N   UNL     1       2.096  -4.489  -0.099  0.00  0.00    -0.310 N 
ATOM      2  C   UNL     1       1.291  -3.439   0.157  0.00  0.00    +0.244 C 
ATOM      3  O   UNL     1       0.098  -3.613   0.321  0.00  0.00    -0.270 OA
ATOM      4  H   UNL     1       3.047  -4.351  -0.230  0.00  0.00    +0.149 HD
ENDROOT
BRANCH   2   5
ATOM      5  C   UNL     1       1.856  -2.079   0.238  0.00  0.00    +0.039 A 
ATOM      6  C   UNL     1       3.226  -1.878   0.050  0.00  0.00    +0.015 A 
ATOM      7  C   UNL     1       3.750  -0.608   0.126  0.00  0.00    +0.026 A 
ATOM      8  C   UNL     1       2.917   0.476   0.391  0.00  0.00    +0.055 A 
ATOM      9  C   UNL     1       1.553   0.278   0.584  0.00  0.00    +0.147 A 
ATOM     10  C   UNL     1       1.022  -0.989   0.503  0.00  0.00    +0.047 A 
BRANCH   9  11
ATOM     11  N   UNL     1       0.672   1.432   0.870  0.00  0.00    +0.058 N 
ATOM     12  O   UNL     1      -0.246   1.316   1.662  0.00  0.00    -0.126 OA
ATOM     13  O   UNL     1       0.864   2.498   0.313  0.00  0.00    -0.126 OA
ENDBRANCH   9  11
BRANCH   8  14
ATOM     14  N   UNL     1       3.450   1.758   0.467  0.00  0.00    -0.356 N 
ATOM     15  H   UNL     1       4.388   1.906   0.272  0.00  0.00    +0.142 HD
ATOM     16  H   UNL     1       2.882   2.505   0.713  0.00  0.00    +0.142 HD
ENDBRANCH   8  14
ENDBRANCH   2   5
BRANCH   1  17
ATOM     17  C   UNL     1       1.535  -5.840  -0.180  0.00  0.00    +0.116 C 
BRANCH  17  18
ATOM     18  C   UNL     1       2.668  -6.854  -0.345  0.00  0.00    +0.011 C 
ATOM     19  C   UNL     1       2.612  -8.122   0.510  0.00  0.00    +0.014 C 
ATOM     20  C   UNL     1       3.636  -7.030   0.827  0.00  0.00    +0.014 C 
BRANCH  18  24
ATOM     21  C   UNL     1       4.267  -7.204  -4.291  0.00  0.00    +0.000 A 
ATOM     22  C   UNL     1       2.910  -7.361  -4.079  0.00  0.00    +0.000 A 
ATOM     23  C   UNL     1       2.393  -7.248  -2.802  0.00  0.00    +0.004 A 
ATOM     24  C   UNL     1       3.232  -6.978  -1.737  0.00  0.00    -0.040 A 
ATOM     25  C   UNL     1       4.588  -6.815  -1.951  0.00  0.00    +0.004 A 
ATOM     26  C   UNL     1       5.106  -6.933  -3.227  0.00  0.00    +0.000 A 
ENDBRANCH  18  24
ENDBRANCH  17  18
ENDBRANCH   1  17
TORSDOF 6
