REMARK  Name = ZINC08837258
REMARK  6 active torsions:
REMARK  status: ('A' for Active; 'I' for Inactive)
REMARK    1  A    between atoms: C_1  and  O_2
REMARK    2  A    between atoms: O_2  and  C_3
REMARK    3  A    between atoms: C_6  and  C_19
REMARK    4  A    between atoms: C_8  and  C_9
REMARK    5  A    between atoms: C_9  and  N_10
REMARK    6  A    between atoms: CA_32  and  C_34
REMARK                            x       y       z     vdW  Elec       q    Type
REMARK                         _______ _______ _______ _____ _____    ______ ____
ROOT
ATOM      1  C   UNL     1       1.527   0.036   6.140  0.00  0.00    +0.008 C 
ATOM      2  C   UNL     1       1.132  -1.387   6.459  0.00  0.00    +0.010 A 
ATOM      3  C   UNL     1       1.999  -2.298   6.956  0.00  0.00    -0.021 A 
ATOM      4  C   UNL     1       1.268  -3.534   7.128  0.00  0.00    +0.003 A 
ATOM      5  C   UNL     1       1.635  -4.799   7.598  0.00  0.00    +0.010 A 
ATOM      6  C   UNL     1       0.655  -5.760   7.624  0.00  0.00    +0.001 A 
ATOM      7  C   UNL     1      -0.641  -5.502   7.209  0.00  0.00    +0.002 A 
ATOM      8  C   UNL     1      -1.032  -4.260   6.740  0.00  0.00    +0.026 A 
ATOM      9  C   UNL     1      -0.059  -3.264   6.701  0.00  0.00    +0.047 A 
ATOM     10  N   UNL     1      -0.102  -1.958   6.305  0.00  0.00    -0.359 N 
ATOM     11  H   UNL     1      -0.889  -1.503   5.966  0.00  0.00    +0.166 HD
ATOM     12  C   UNL     1       3.447  -1.996   7.248  0.00  0.00    +0.033 C 
ATOM     13  CA  UNL     1       3.618  -0.470   7.269  0.00  0.00    +0.049 C 
ATOM     14  N   UNL     1       3.002   0.114   6.060  0.00  0.00    +0.396 N 
ATOM     15  H1  UNL     1       3.284   1.097   5.978  0.00  0.00    -0.083 HD
ATOM     16  H2  UNL     1       3.323  -0.404   5.233  0.00  0.00    -0.083 HD
ENDROOT
BRANCH   1  20
ATOM     17  C   UNL     1      -0.149   1.182   2.380  0.00  0.00    +0.125 A 
ATOM     18  C   UNL     1       0.991   0.392   2.421  0.00  0.00    +0.046 A 
ATOM     19  C   UNL     1       1.534   0.028   3.637  0.00  0.00    +0.006 A 
ATOM     20  C   UNL     1       0.936   0.440   4.814  0.00  0.00    -0.055 A 
ATOM     21  C   UNL     1      -0.203   1.222   4.776  0.00  0.00    +0.011 A 
ATOM     22  C   UNL     1      -0.747   1.594   3.561  0.00  0.00    +0.016 A 
BRANCH  17  24
ATOM     23  C   UNL     1      -0.013   1.086   0.008  0.00  0.00    +0.277 C 
ATOM     24  O   UNL     1      -0.682   1.547   1.184  0.00  0.00    -0.495 OA
ENDBRANCH  17  24
BRANCH  22  25
ATOM     25  C   UNL     1      -1.989   2.447   3.520  0.00  0.00    +0.184 C 
BRANCH  25  26
ATOM     26  N   UNL     1      -1.617   3.841   3.266  0.00  0.00    -0.239 N 
ATOM     27  C   UNL     1      -1.328   4.800   4.207  0.00  0.00    +0.089 A 
ATOM     28  C   UNL     1      -1.286   4.808   5.597  0.00  0.00    +0.029 A 
ATOM     29  C   UNL     1      -0.954   5.957   6.260  0.00  0.00    +0.002 A 
ATOM     30  C   UNL     1      -0.657   7.117   5.557  0.00  0.00    +0.002 A 
ATOM     31  C   UNL     1      -0.684   7.134   4.193  0.00  0.00    +0.032 A 
ATOM     32  C   UNL     1      -1.026   5.971   3.490  0.00  0.00    +0.113 A 
ATOM     33  N   UNL     1      -1.148   5.690   2.177  0.00  0.00    -0.129 NA
ATOM     34  N   UNL     1      -1.490   4.460   2.014  0.00  0.00    -0.064 NA
ENDBRANCH  25  26
ENDBRANCH  22  25
ENDBRANCH   1  20
BRANCH  13  35
ATOM     35  C   UNL     1       5.086  -0.130   7.286  0.00  0.00    +0.343 C 
ATOM     36  O   UNL     1       5.643   0.197   6.264  0.00  0.00    -0.248 OA
ATOM     37  OXT UNL     1       5.775  -0.188   8.436  0.00  0.00    -0.248 OA
ENDBRANCH  13  35
TORSDOF 5
