REMARK  Name = ZINC29189188
REMARK  9 active torsions:
REMARK  status: ('A' for Active; 'I' for Inactive)
REMARK    1  A    between atoms: C_1  and  C_2
REMARK    2  A    between atoms: C_2  and  O_3
REMARK    3  A    between atoms: O_3  and  C_4
REMARK    4  A    between atoms: C_4  and  C_6
REMARK    5  A    between atoms: C_7  and  C_19
REMARK    6  A    between atoms: C_12  and  C_14
REMARK    7  A    between atoms: C_19  and  N_20
REMARK    8  A    between atoms: N_23  and  C_26
REMARK    9  A    between atoms: C_26  and  C_27
REMARK                            x       y       z     vdW  Elec       q    Type
REMARK                         _______ _______ _______ _____ _____    ______ ____
ROOT
ATOM      1  C   UNL     1       1.207   1.930  -0.087  0.00  0.00    +0.082 C 
ATOM      2  C   UNL     1       2.391   1.304   0.087  0.00  0.00    +0.038 C 
ATOM      3  N   UNL     1       3.557   2.010   0.168  0.00  0.00    -0.271 N 
ATOM      4  C   UNL     1       3.624   3.345   0.084  0.00  0.00    +0.304 C 
ATOM      5  O   UNL     1       4.710   3.885   0.168  0.00  0.00    -0.252 OA
ATOM      6  N   UNL     1       2.527   4.109  -0.089  0.00  0.00    -0.285 N 
ATOM      7  C   UNL     1       1.218   3.442  -0.195  0.00  0.00    +0.179 C 
ATOM      8  H   UNL     1       4.511   1.482   0.309  0.00  0.00    +0.156 HD
ATOM      9  H   UNL     1       2.593   5.205  -0.152  0.00  0.00    +0.151 HD
ENDROOT
BRANCH   7  10
ATOM     10  C   UNL     1       0.606   3.817  -1.520  0.00  0.00    +0.130 A 
ATOM     11  C   UNL     1      -0.657   4.237  -1.712  0.00  0.00    +0.047 A 
ATOM     12  C   UNL     1      -0.803   4.476  -3.098  0.00  0.00    +0.041 A 
ATOM     13  C   UNL     1       0.380   4.189  -3.670  0.00  0.00    +0.195 A 
ATOM     14  O   UNL     1       1.231   3.796  -2.708  0.00  0.00    -0.466 OA
ENDBRANCH   7  10
BRANCH   1  15
ATOM     15  C   UNL     1      -0.001   1.200  -0.172  0.00  0.00    +0.339 C 
ATOM     16  O   UNL     1      -0.499   0.971  -1.258  0.00  0.00    -0.245 OA
BRANCH  15  17
ATOM     17  O   UNL     1      -0.605   0.763   0.953  0.00  0.00    -0.462 OA
BRANCH  17  19
ATOM     18  C   UNL     1      -2.359  -0.374   2.167  0.00  0.00    +0.048 C 
ATOM     19  C   UNL     1      -1.826   0.037   0.793  0.00  0.00    +0.229 C 
ENDBRANCH  17  19
ENDBRANCH  15  17
ENDBRANCH   1  15
BRANCH   2  20
ATOM     20  C   UNL     1       2.425  -0.199   0.194  0.00  0.00    +0.135 C 
BRANCH  20  21
ATOM     21  N   UNL     1       3.171  -0.753  -0.945  0.00  0.00    -0.300 NA
ATOM     22  C   UNL     1       2.459  -0.512  -2.208  0.00  0.00    +0.066 C 
ATOM     23  C   UNL     1       3.303  -1.033  -3.373  0.00  0.00    -0.063 C 
ATOM     24  N   UNL     1       3.563  -2.467  -3.184  0.00  0.00    +0.384 N 
ATOM     25  C   UNL     1       4.274  -2.708  -1.921  0.00  0.00    -0.063 C 
ATOM     26  C   UNL     1       3.430  -2.188  -0.756  0.00  0.00    +0.066 C 
ATOM     27  H   UNL     1       2.594  -2.984  -3.132  0.00  0.00    -0.081 HD
BRANCH  24  28
ATOM     28  C   UNL     1       4.308  -3.021  -4.322  0.00  0.00    -0.043 C 
BRANCH  28  29
ATOM     29  C   UNL     1       3.684  -2.548  -5.610  0.00  0.00    -0.063 A 
ATOM     30  C   UNL     1       2.683  -3.289  -6.210  0.00  0.00    +0.005 A 
ATOM     31  C   UNL     1       2.108  -2.860  -7.387  0.00  0.00    +0.046 A 
ATOM     32  C   UNL     1       2.539  -1.680  -7.989  0.00  0.00    +0.124 A 
ATOM     33  C   UNL     1       3.545  -0.943  -7.377  0.00  0.00    -0.002 A 
ATOM     34  C   UNL     1       4.115  -1.373  -6.199  0.00  0.00    +0.009 A 
ATOM     35  C   UNL     1       3.789   0.279  -8.240  0.00  0.00    +0.080 C 
ATOM     36  C   UNL     1       2.529   0.292  -9.139  0.00  0.00    +0.234 C 
ATOM     37  O   UNL     1       2.128  -1.088  -9.144  0.00  0.00    -0.491 OA
ENDBRANCH  28  29
ENDBRANCH  24  28
ENDBRANCH  20  21
ENDBRANCH   2  20
TORSDOF 8
