REMARK  Name = ZINC39252271
REMARK  8 active torsions:
REMARK  status: ('A' for Active; 'I' for Inactive)
REMARK    1  A    between atoms: C_1  and  C_2
REMARK    2  A    between atoms: C_6  and  N_9
REMARK    3  A    between atoms: C_10  and  C_12
REMARK    4  A    between atoms: N_17  and  C_19
REMARK    5  A    between atoms: C_19  and  C_20
REMARK    6  A    between atoms: C_20  and  C_21
REMARK    7  A    between atoms: C_24  and  O_30
REMARK    8  A    between atoms: O_30  and  C_31
REMARK                            x       y       z     vdW  Elec       q    Type
REMARK                         _______ _______ _______ _____ _____    ______ ____
ROOT
ATOM      1  C   UNL     1       2.084  -5.088   2.717  0.00  0.00    +0.101 C 
ATOM      2  C   UNL     1       0.675  -5.134   3.353  0.00  0.00    +0.110 C 
ATOM      3  C   UNL     1       0.859  -5.966   4.603  0.00  0.00    +0.216 C 
ATOM      4  O   UNL     1      -0.041  -6.476   5.237  0.00  0.00    -0.276 OA
ATOM      5  N   UNL     1       2.165  -6.059   4.908  0.00  0.00    -0.300 N 
ATOM      6  C   UNL     1       2.992  -5.322   3.944  0.00  0.00    +0.121 C 
ENDROOT
BRANCH   1   8
ATOM      7  N   UNL     1       1.614  -3.322   1.049  0.00  0.00    -0.290 N 
ATOM      8  C   UNL     1       2.351  -3.740   2.097  0.00  0.00    +0.220 C 
ATOM      9  O   UNL     1       3.230  -3.032   2.541  0.00  0.00    -0.275 OA
ATOM     10  H   UNL     1       0.911  -3.889   0.694  0.00  0.00    +0.151 HD
BRANCH   7  15
ATOM     11  C   UNL     1      -0.019   1.526   0.010  0.00  0.00    +0.037 C 
ATOM     12  C   UNL     1       0.002  -0.004   0.002  0.00  0.00    +0.126 C 
ATOM     13  N   UNL     1       0.783  -0.534  -1.160  0.00  0.00    -0.242 NA
ATOM     14  N   UNL     1       1.220  -1.898  -0.887  0.00  0.00    -0.227 NA
ATOM     15  C   UNL     1       1.875  -2.013   0.446  0.00  0.00    +0.216 C 
ATOM     16  S   UNL     1       1.026  -0.672   1.385  0.00  0.00    -0.102 S 
ATOM     17  H   UNL     1       1.569   0.063  -1.369  0.00  0.00    +0.142 HD
ATOM     18  H   UNL     1       1.826  -2.237  -1.618  0.00  0.00    +0.143 HD
ENDBRANCH   7  15
ENDBRANCH   1   8
BRANCH   5  19
ATOM     19  C   UNL     1       2.695  -6.801   6.054  0.00  0.00    +0.112 C 
BRANCH  19  20
ATOM     20  C   UNL     1       2.987  -8.243   5.638  0.00  0.00    +0.056 C 
BRANCH  20  21
ATOM     21  C   UNL     1       3.532  -9.007   6.817  0.00  0.00    -0.021 A 
ATOM     22  C   UNL     1       2.750  -9.672   7.861  0.00  0.00    +0.006 A 
ATOM     23  C   UNL     1       1.382  -9.817   8.103  0.00  0.00    +0.056 A 
ATOM     24  C   UNL     1       0.956 -10.526   9.209  0.00  0.00    +0.121 A 
ATOM     25  C   UNL     1       1.884 -11.093  10.079  0.00  0.00    +0.047 A 
ATOM     26  C   UNL     1       3.235 -10.956   9.850  0.00  0.00    +0.030 A 
ATOM     27  C   UNL     1       3.684 -10.246   8.742  0.00  0.00    +0.047 A 
ATOM     28  N   UNL     1       4.939  -9.944   8.256  0.00  0.00    -0.360 N 
ATOM     29  C   UNL     1       4.827  -9.210   7.106  0.00  0.00    +0.087 A 
ATOM     30  H   UNL     1       5.775 -10.214   8.665  0.00  0.00    +0.165 HD
BRANCH  24  31
ATOM     31  O   UNL     1      -0.374 -10.670   9.450  0.00  0.00    -0.495 OA
ATOM     32  C   UNL     1      -0.746 -11.414  10.612  0.00  0.00    +0.277 C 
ENDBRANCH  24  31
ENDBRANCH  20  21
ENDBRANCH  19  20
ENDBRANCH   5  19
TORSDOF 6
