REMARK  Name = ZINC65506449
REMARK  7 active torsions:
REMARK  status: ('A' for Active; 'I' for Inactive)
REMARK    1  A    between atoms: C_1  and  C_2
REMARK    2  A    between atoms: C_4  and  C_23
REMARK    3  A    between atoms: C_5  and  C_22
REMARK    4  A    between atoms: N_7  and  C_8
REMARK    5  A    between atoms: C_8  and  C_9
REMARK    6  A    between atoms: N_15  and  C_16
REMARK    7  A    between atoms: C_16  and  C_17
REMARK                            x       y       z     vdW  Elec       q    Type
REMARK                         _______ _______ _______ _____ _____    ______ ____
ROOT
ATOM      1  C   UNL     1       0.653  -1.775   3.244  0.00  0.00    +0.150 A 
ATOM      2  H   UNL     1       3.049  -1.910   5.232  0.00  0.00    +0.194 HD
ATOM      3  N   UNL     1       1.864  -1.423   3.536  0.00  0.00    -0.155 NA
ATOM      4  N   UNL     1       2.203  -2.002   4.766  0.00  0.00    -0.227 N 
ATOM      5  C   UNL     1       1.134  -2.712   5.184  0.00  0.00    +0.345 A 
ATOM      6  O   UNL     1       1.053  -3.356   6.215  0.00  0.00    -0.245 OA
ATOM      7  N   UNL     1       0.169  -2.573   4.252  0.00  0.00    -0.271 N 
ENDROOT
BRANCH   1   8
ATOM      8  C   UNL     1      -0.103  -1.371   2.005  0.00  0.00    +0.182 C 
BRANCH   8  14
ATOM      9  C   UNL     1      -0.019   1.526   0.010  0.00  0.00    +0.030 C 
ATOM     10  C   UNL     1       0.002  -0.004   0.002  0.00  0.00    +0.100 C 
ATOM     11  C   UNL     1       0.774  -0.516  -1.194  0.00  0.00    -0.037 C 
ATOM     12  C   UNL     1       1.794  -1.206  -0.723  0.00  0.00    +0.016 C 
ATOM     13  N   UNL     1       1.805  -1.223   0.657  0.00  0.00    -0.281 N 
ATOM     14  N   UNL     1       0.749  -0.517   1.168  0.00  0.00    -0.215 NA
ATOM     15  C   UNL     1       2.821  -1.893  -1.586  0.00  0.00    +0.062 C 
ATOM     16  C   UNL     1       0.442  -0.284  -2.646  0.00  0.00    +0.042 C 
ATOM     17  H   UNL     1       2.473  -1.676   1.195  0.00  0.00    +0.166 HD
ENDBRANCH   8  14
ENDBRANCH   1   8
BRANCH   7  18
ATOM     18  C   UNL     1      -1.167  -3.173   4.304  0.00  0.00    +0.202 C 
BRANCH  18  19
ATOM     19  C   UNL     1      -1.134  -4.529   3.648  0.00  0.00    +0.125 A 
ATOM     20  C   UNL     1      -0.878  -5.696   4.266  0.00  0.00    +0.046 A 
ATOM     21  C   UNL     1      -0.949  -6.706   3.279  0.00  0.00    +0.041 A 
ATOM     22  C   UNL     1      -1.244  -6.096   2.117  0.00  0.00    +0.195 A 
ATOM     23  O   UNL     1      -1.360  -4.778   2.347  0.00  0.00    -0.466 OA
ENDBRANCH  18  19
ENDBRANCH   7  18
TORSDOF 4
