REMARK  Name = ZINC22782588
REMARK  11 active torsions:
REMARK  status: ('A' for Active; 'I' for Inactive)
REMARK    1  A    between atoms: C_4  and  C_7
REMARK    2  A    between atoms: C_7  and  C_8
REMARK    3  A    between atoms: C_8  and  N_9
REMARK    4  A    between atoms: C_13  and  N_17
REMARK    5  A    between atoms: N_17  and  C_18
REMARK    6  A    between atoms: C_18  and  C_19
REMARK    7  A    between atoms: C_19  and  N_20
REMARK    8  A    between atoms: N_20  and  C_21
REMARK    9  A    between atoms: N_26  and  C_29
REMARK   10  A    between atoms: C_29  and  C_30
REMARK   11  A    between atoms: C_30  and  C_31
REMARK                            x       y       z     vdW  Elec       q    Type
REMARK                         _______ _______ _______ _____ _____    ______ ____
ROOT
ATOM      1  C   UNL     1       9.357  -0.705   0.235  0.00  0.00    -0.066 C 
ENDROOT
BRANCH   1   2
ATOM      2  N   UNL     1       8.561  -1.937   0.148  0.00  0.00    +0.388 N 
ATOM      3  H   UNL     1       9.178  -2.731   0.065  0.00  0.00    -0.085 HD
ATOM      4  H   UNL     1       7.959  -1.892  -0.661  0.00  0.00    -0.085 HD
BRANCH   2   9
ATOM      5  N   UNL     1       5.450  -1.678   1.382  0.00  0.00    -0.243 N 
ATOM      6  C   UNL     1       5.532  -3.015   1.369  0.00  0.00    +0.221 C 
ATOM      7  O   UNL     1       4.590  -3.776   1.369  0.00  0.00    -0.275 OA
ATOM      8  C   UNL     1       6.989  -3.423   1.353  0.00  0.00    +0.090 C 
ATOM      9  C   UNL     1       7.742  -2.077   1.360  0.00  0.00    +0.025 C 
ATOM     10  C   UNL     1       6.632  -1.050   1.373  0.00  0.00    +0.208 C 
ATOM     11  O   UNL     1       6.787   0.153   1.377  0.00  0.00    -0.277 OA
BRANCH   5  12
ATOM     12  C   UNL     1       4.171  -0.963   1.399  0.00  0.00    +0.121 C 
BRANCH  12  13
ATOM     13  C   UNL     1       3.711  -0.707  -0.038  0.00  0.00    +0.054 C 
BRANCH  13  17
ATOM     14  C   UNL     1      -0.017   1.378   0.010  0.00  0.00    +0.000 A 
ATOM     15  C   UNL     1       1.171   2.086   0.002  0.00  0.00    +0.000 A 
ATOM     16  C   UNL     1       2.377   1.411  -0.013  0.00  0.00    +0.004 A 
ATOM     17  C   UNL     1       2.396   0.029  -0.020  0.00  0.00    -0.046 A 
ATOM     18  C   UNL     1       1.208  -0.679  -0.012  0.00  0.00    +0.004 A 
ATOM     19  C   UNL     1       0.002  -0.004   0.002  0.00  0.00    +0.000 A 
ENDBRANCH  13  17
ENDBRANCH  12  13
ENDBRANCH   5  12
ENDBRANCH   2   9
ENDBRANCH   1   2
BRANCH   1  20
ATOM     20  C   UNL     1      10.210  -0.559  -1.027  0.00  0.00    +0.062 C 
BRANCH  20  21
ATOM     21  N   UNL     1      11.006   0.672  -0.940  0.00  0.00    -0.307 NA
ATOM     22  H   UNL     1      10.414   1.476  -0.791  0.00  0.00    +0.123 HD
BRANCH  21  23
ATOM     23  C   UNL     1      11.839   0.846  -2.137  0.00  0.00    +0.150 C 
ATOM     24  C   UNL     1      13.044   1.759  -1.832  0.00  0.00    +0.124 C 
ATOM     25  C   UNL     1      12.842   2.936  -2.761  0.00  0.00    +0.224 C 
ATOM     26  O   UNL     1      13.575   3.898  -2.845  0.00  0.00    -0.275 OA
ATOM     27  N   UNL     1      11.726   2.746  -3.476  0.00  0.00    -0.241 N 
ATOM     28  C   UNL     1      11.081   1.600  -3.208  0.00  0.00    +0.239 C 
ATOM     29  O   UNL     1      10.056   1.227  -3.737  0.00  0.00    -0.273 OA
BRANCH  27  30
ATOM     30  C   UNL     1      11.249   3.709  -4.472  0.00  0.00    +0.121 C 
BRANCH  30  31
ATOM     31  C   UNL     1      11.850   3.371  -5.838  0.00  0.00    +0.054 C 
BRANCH  31  32
ATOM     32  C   UNL     1      11.359   4.362  -6.861  0.00  0.00    -0.046 A 
ATOM     33  C   UNL     1      10.195   4.111  -7.564  0.00  0.00    +0.004 A 
ATOM     34  C   UNL     1       9.744   5.019  -8.503  0.00  0.00    +0.000 A 
ATOM     35  C   UNL     1      10.458   6.180  -8.740  0.00  0.00    +0.000 A 
ATOM     36  C   UNL     1      11.621   6.431  -8.037  0.00  0.00    +0.000 A 
ATOM     37  C   UNL     1      12.069   5.524  -7.095  0.00  0.00    +0.004 A 
ENDBRANCH  31  32
ENDBRANCH  30  31
ENDBRANCH  27  30
ENDBRANCH  21  23
ENDBRANCH  20  21
ENDBRANCH   1  20
TORSDOF 11
