REMARK  Name = ZINC09666390
REMARK  5 active torsions:
REMARK  status: ('A' for Active; 'I' for Inactive)
REMARK    1  A    between atoms: C_1  and  C_2
REMARK    2  A    between atoms: C_2  and  C_24
REMARK    3  A    between atoms: N_5  and  C_9
REMARK    4  A    between atoms: C_9  and  N_54
REMARK    5  A    between atoms: C_12  and  C_15
REMARK                            x       y       z     vdW  Elec       q    Type
REMARK                         _______ _______ _______ _____ _____    ______ ____
ROOT
ATOM      1  C   UNL     1      -1.375   3.588  -2.454  0.00  0.00    +0.043 C 
ENDROOT
BRANCH   1   6
ATOM      2  C   UNL     1      -3.699   7.017  -0.237  0.00  0.00    +0.047 C 
ATOM      3  C   UNL     1      -3.354   6.635  -1.677  0.00  0.00    +0.135 C 
ATOM      4  C   UNL     1      -3.218   5.131  -1.817  0.00  0.00    +0.249 C 
ATOM      5  O   UNL     1      -4.076   4.297  -1.621  0.00  0.00    -0.272 OA
ATOM      6  N   UNL     1      -1.944   4.915  -2.201  0.00  0.00    -0.241 N 
ATOM      7  C   UNL     1      -1.266   6.061  -2.330  0.00  0.00    +0.308 C 
ATOM      8  O   UNL     1      -0.101   6.121  -2.671  0.00  0.00    -0.252 OA
ATOM      9  N   UNL     1      -2.018   7.138  -2.041  0.00  0.00    -0.281 N 
ATOM     10  H   UNL     1      -1.735   8.066  -2.066  0.00  0.00    +0.152 HD
BRANCH   3  11
ATOM     11  C   UNL     1      -4.396   7.159  -2.631  0.00  0.00    -0.015 A 
ATOM     12  C   UNL     1      -5.508   6.394  -2.929  0.00  0.00    +0.007 A 
ATOM     13  C   UNL     1      -6.466   6.877  -3.800  0.00  0.00    +0.015 A 
ATOM     14  C   UNL     1      -6.307   8.122  -4.382  0.00  0.00    +0.018 A 
ATOM     15  C   UNL     1      -5.191   8.885  -4.088  0.00  0.00    +0.015 A 
ATOM     16  C   UNL     1      -4.236   8.404  -3.212  0.00  0.00    +0.007 A 
ATOM     17 BR   UNL     1      -7.614   8.781  -5.579  0.00  0.00    -0.050 Br
ENDBRANCH   3  11
ENDBRANCH   1   6
BRANCH   1  23
ATOM     18  C   UNL     1      -0.754   1.594  -1.231  0.00  0.00    -0.076 C 
ATOM     19  C   UNL     1      -0.013   1.086   0.008  0.00  0.00    -0.008 C 
ATOM     20  C   UNL     1      -0.731   1.580   1.267  0.00  0.00    +0.041 C 
ATOM     21  C   UNL     1      -0.801   3.110   1.237  0.00  0.00    -0.008 C 
ATOM     22  C   UNL     1      -1.520   3.559  -0.037  0.00  0.00    -0.076 C 
ATOM     23  N   UNL     1      -0.765   3.072  -1.211  0.00  0.00    +0.391 N 
ATOM     24  H   UNL     1       0.202   3.411  -1.149  0.00  0.00    -0.079 HD
BRANCH  20  25
ATOM     25  C   UNL     1       0.029   1.134   2.489  0.00  0.00    +0.082 A 
ATOM     26  N   UNL     1       1.260   1.408   2.820  0.00  0.00    -0.244 NA
ATOM     27  C   UNL     1       1.825   0.944   3.954  0.00  0.00    +0.078 A 
ATOM     28  C   UNL     1       3.132   1.154   4.448  0.00  0.00    +0.029 A 
ATOM     29  C   UNL     1       3.529   0.594   5.622  0.00  0.00    +0.002 A 
ATOM     30  C   UNL     1       2.675  -0.200   6.376  0.00  0.00    +0.001 A 
ATOM     31  C   UNL     1       1.389  -0.431   5.926  0.00  0.00    +0.017 A 
ATOM     32  C   UNL     1       0.978   0.131   4.742  0.00  0.00    +0.039 A 
ATOM     33  S   UNL     1      -0.521   0.125   3.790  0.00  0.00    -0.072 S 
ENDBRANCH  20  25
ENDBRANCH   1  23
TORSDOF 4
