REMARK  Name = ZINC10602616
REMARK  11 active torsions:
REMARK  status: ('A' for Active; 'I' for Inactive)
REMARK    1  A    between atoms: C_1  and  C_2
REMARK    2  A    between atoms: C_2  and  C_3
REMARK    3  A    between atoms: C_2  and  N_4
REMARK    4  A    between atoms: N_4  and  S_5
REMARK    5  A    between atoms: S_5  and  C_8
REMARK    6  A    between atoms: C_11  and  C_14
REMARK    7  A    between atoms: C_14  and  O_16
REMARK    8  A    between atoms: O_16  and  C_17
REMARK    9  A    between atoms: C_17  and  C_19
REMARK   10  A    between atoms: C_17  and  C_25
REMARK   11  A    between atoms: N_30  and  C_31
REMARK                            x       y       z     vdW  Elec       q    Type
REMARK                         _______ _______ _______ _____ _____    ______ ____
ROOT
ATOM      1  O   UNL     1      -2.919   4.280   5.431  0.00  0.00    -0.444 OA
ENDROOT
BRANCH   1   2
ATOM      2  C   UNL     1      -3.119   3.066   4.885  0.00  0.00    +0.340 C 
ATOM      3  O   UNL     1      -3.927   2.304   5.377  0.00  0.00    -0.245 OA
BRANCH   2   7
ATOM      4  C   UNL     1      -0.927   1.900   1.439  0.00  0.00    +0.105 A 
ATOM      5  C   UNL     1      -0.715   3.147   2.002  0.00  0.00    +0.029 A 
ATOM      6  C   UNL     1      -1.427   3.534   3.118  0.00  0.00    +0.017 A 
ATOM      7  C   UNL     1      -2.357   2.660   3.686  0.00  0.00    +0.059 A 
ATOM      8  C   UNL     1      -2.562   1.402   3.117  0.00  0.00    +0.017 A 
ATOM      9  C   UNL     1      -1.846   1.030   1.998  0.00  0.00    +0.029 A 
BRANCH   4  10
ATOM     10  S   UNL     1      -0.017   1.417   0.010  0.00  0.00    +0.059 S 
ATOM     11  O   UNL     1       0.002  -0.004   0.002  0.00  0.00    -0.153 OA
ATOM     12  O   UNL     1       1.172   2.195   0.003  0.00  0.00    -0.153 OA
BRANCH  10  13
ATOM     13  N   UNL     1      -0.897   1.885  -1.312  0.00  0.00    -0.187 NA
ATOM     14  H   UNL     1      -1.263   1.218  -1.913  0.00  0.00    +0.148 HD
BRANCH  13  16
ATOM     15  C   UNL     1      -0.067   3.823  -2.552  0.00  0.00    +0.025 C 
ATOM     16  C   UNL     1      -1.125   3.309  -1.574  0.00  0.00    +0.070 C 
ATOM     17  C   UNL     1      -2.516   3.500  -2.181  0.00  0.00    +0.025 C 
ENDBRANCH  13  16
ENDBRANCH  10  13
ENDBRANCH   4  10
ENDBRANCH   2   7
ENDBRANCH   1   2
BRANCH   1  18
ATOM     18  C   UNL     1      -3.703   4.611   6.608  0.00  0.00    +0.292 C 
BRANCH  18  19
ATOM     19  C   UNL     1      -2.922   5.557   7.483  0.00  0.00    +0.266 C 
ATOM     20  O   UNL     1      -1.853   5.988   7.106  0.00  0.00    -0.271 OA
ATOM     21  N   UNL     1      -3.411   5.924   8.684  0.00  0.00    -0.237 N 
ATOM     22  C   UNL     1      -2.712   6.770   9.466  0.00  0.00    +0.306 C 
ATOM     23  O   UNL     1      -1.641   7.202   9.089  0.00  0.00    -0.252 OA
ATOM     24  N   UNL     1      -3.201   7.137  10.667  0.00  0.00    -0.302 N 
ATOM     25  C   UNL     1      -2.442   8.057  11.518  0.00  0.00    +0.129 C 
ATOM     26  H   UNL     1      -4.266   5.579   8.985  0.00  0.00    +0.159 HD
ATOM     27  H   UNL     1      -4.056   6.792  10.969  0.00  0.00    +0.150 HD
ENDBRANCH  18  19
BRANCH  18  28
ATOM     28  C   UNL     1      -4.992   5.267   6.184  0.00  0.00    +0.002 A 
ATOM     29  C   UNL     1      -5.013   6.102   5.082  0.00  0.00    +0.008 A 
ATOM     30  C   UNL     1      -6.197   6.700   4.691  0.00  0.00    +0.000 A 
ATOM     31  C   UNL     1      -7.356   6.471   5.407  0.00  0.00    +0.000 A 
ATOM     32  C   UNL     1      -7.334   5.640   6.512  0.00  0.00    +0.000 A 
ATOM     33  C   UNL     1      -6.152   5.039   6.901  0.00  0.00    +0.008 A 
ENDBRANCH  18  28
ENDBRANCH   1  18
TORSDOF 8
