REMARK  Name = ZINC04647442
REMARK  11 active torsions:
REMARK  status: ('A' for Active; 'I' for Inactive)
REMARK    1  A    between atoms: C_1  and  C_2
REMARK    2  A    between atoms: C_2  and  C_3
REMARK    3  A    between atoms: C_2  and  C_4
REMARK    4  A    between atoms: C_4  and  C_6
REMARK    5  A    between atoms: C_4  and  N_27
REMARK    6  A    between atoms: N_8  and  N_9
REMARK    7  A    between atoms: C_10  and  C_12
REMARK    8  A    between atoms: C_15  and  N_18
REMARK    9  A    between atoms: N_18  and  S_19
REMARK   10  A    between atoms: S_19  and  C_22
REMARK   11  A    between atoms: C_28  and  C_30
REMARK                            x       y       z     vdW  Elec       q    Type
REMARK                         _______ _______ _______ _____ _____    ______ ____
ROOT
ATOM      1  N   UNL     1      -1.084   2.185   0.221  0.00  0.00    -0.230 N 
ATOM      2  C   UNL     1      -2.177   1.399   0.160  0.00  0.00    +0.260 C 
ATOM      3  O   UNL     1      -2.055   0.189   0.128  0.00  0.00    -0.269 OA
ATOM      4  H   UNL     1      -1.181   3.149   0.247  0.00  0.00    +0.173 HD
ENDROOT
BRANCH   2   5
ATOM      5  C   UNL     1      -3.522   2.005   0.132  0.00  0.00    +0.038 A 
ATOM      6  C   UNL     1      -3.664   3.395   0.175  0.00  0.00    +0.015 A 
ATOM      7  C   UNL     1      -4.919   3.958   0.145  0.00  0.00    +0.025 A 
ATOM      8  C   UNL     1      -6.047   3.145   0.082  0.00  0.00    +0.048 A 
ATOM      9  C   UNL     1      -5.909   1.760   0.044  0.00  0.00    +0.025 A 
ATOM     10  C   UNL     1      -4.656   1.191   0.069  0.00  0.00    +0.015 A 
BRANCH   8  11
ATOM     11  N   UNL     1      -7.314   3.717   0.056  0.00  0.00    -0.216 N 
ATOM     12  H   UNL     1      -7.640   4.138  -0.755  0.00  0.00    +0.174 HD
BRANCH  11  13
ATOM     13  S   UNL     1      -8.267   3.680   1.410  0.00  0.00    +0.079 S 
ATOM     14  O   UNL     1      -9.463   4.375   1.084  0.00  0.00    -0.149 OA
ATOM     15  O   UNL     1      -8.269   2.335   1.869  0.00  0.00    -0.149 OA
BRANCH  13  16
ATOM     16  C   UNL     1      -7.451   4.633   2.647  0.00  0.00    +0.146 A 
ATOM     17  C   UNL     1      -7.625   5.938   2.972  0.00  0.00    +0.036 A 
ATOM     18  C   UNL     1      -6.865   6.482   3.991  0.00  0.00    +0.010 A 
ATOM     19  C   UNL     1      -5.970   5.694   4.635  0.00  0.00    +0.047 A 
ATOM     20  S   UNL     1      -6.188   4.130   3.804  0.00  0.00    -0.077 S 
ENDBRANCH  13  16
ENDBRANCH  11  13
ENDBRANCH   8  11
ENDBRANCH   2   5
BRANCH   1  23
ATOM     21  C   UNL     1       1.286   2.395   0.302  0.00  0.00    +0.250 C 
ATOM     22  O   UNL     1       1.164   3.601   0.335  0.00  0.00    -0.272 OA
ATOM     23  N   UNL     1       0.193   1.608   0.247  0.00  0.00    -0.233 N 
ATOM     24  H   UNL     1       0.290   0.644   0.221  0.00  0.00    +0.173 HD
BRANCH  21  25
ATOM     25  C   UNL     1       2.659   1.775   0.324  0.00  0.00    +0.163 C 
BRANCH  25  26
ATOM     26  N   UNL     1       3.671   2.833   0.385  0.00  0.00    -0.300 N 
ATOM     27  C   UNL     1       4.915   2.602  -0.079  0.00  0.00    +0.245 C 
ATOM     28  O   UNL     1       5.198   1.517  -0.548  0.00  0.00    -0.270 OA
ATOM     29  H   UNL     1       3.446   3.699   0.759  0.00  0.00    +0.150 HD
BRANCH  27  30
ATOM     30  C   UNL     1       5.937   3.670  -0.017  0.00  0.00    +0.037 A 
ATOM     31  C   UNL     1       5.614   4.918   0.515  0.00  0.00    +0.013 A 
ATOM     32  C   UNL     1       6.573   5.908   0.575  0.00  0.00    +0.001 A 
ATOM     33  C   UNL     1       7.849   5.669   0.098  0.00  0.00    +0.000 A 
ATOM     34  C   UNL     1       8.174   4.435  -0.437  0.00  0.00    +0.001 A 
ATOM     35  C   UNL     1       7.226   3.434  -0.497  0.00  0.00    +0.013 A 
ENDBRANCH  27  30
ENDBRANCH  25  26
BRANCH  25  37
ATOM     36  C   UNL     1       4.186   0.242   1.573  0.00  0.00    +0.009 C 
ATOM     37  C   UNL     1       2.792   0.871   1.551  0.00  0.00    +0.012 C 
ATOM     38  C   UNL     1       2.586   1.701   2.820  0.00  0.00    +0.009 C 
ENDBRANCH  25  37
ENDBRANCH  21  25
ENDBRANCH   1  23
TORSDOF 9
