REMARK  Name = ZINC20150498
REMARK  9 active torsions:
REMARK  status: ('A' for Active; 'I' for Inactive)
REMARK    1  A    between atoms: C_1  and  C_2
REMARK    2  A    between atoms: C_2  and  C_3
REMARK    3  A    between atoms: C_3  and  C_23
REMARK    4  A    between atoms: C_8  and  C_11
REMARK    5  A    between atoms: N_18  and  C_21
REMARK    6  A    between atoms: C_21  and  C_22
REMARK    7  A    between atoms: C_23  and  O_25
REMARK    8  A    between atoms: O_25  and  C_26
REMARK    9  A    between atoms: C_26  and  C_27
REMARK                            x       y       z     vdW  Elec       q    Type
REMARK                         _______ _______ _______ _____ _____    ______ ____
ROOT
ATOM      1  C   UNL     1       0.742  -0.511   1.242  0.00  0.00    +0.129 C 
ATOM      2  C   UNL     1       0.885  -2.029   1.201  0.00  0.00    +0.120 C 
ATOM      3  C   UNL     1       2.020  -2.090   0.110  0.00  0.00    +0.111 C 
ATOM      4  C   UNL     1       3.001  -1.105   0.582  0.00  0.00    +0.104 C 
ATOM      5  N   UNL     1       2.164  -0.036   1.241  0.00  0.00    -0.293 NA
ATOM      6  C   UNL     1       1.952  -3.467  -0.317  0.00  0.00    +0.228 C 
ATOM      7  O   UNL     1       2.868  -4.174  -0.678  0.00  0.00    -0.275 OA
ATOM      8  N   UNL     1       0.624  -3.801  -0.224  0.00  0.00    -0.242 N 
ATOM      9  C   UNL     1      -0.117  -2.880   0.487  0.00  0.00    +0.228 C 
ATOM     10  O   UNL     1      -1.324  -2.773   0.526  0.00  0.00    -0.275 OA
ATOM     11  H   UNL     1       2.250   0.847   0.761  0.00  0.00    +0.124 HD
ENDROOT
BRANCH   4  12
ATOM     12  C   UNL     1       3.954  -1.739   1.562  0.00  0.00    +0.007 A 
ATOM     13  C   UNL     1       5.216  -2.190   1.355  0.00  0.00    +0.013 A 
ATOM     14  C   UNL     1       5.912  -2.742   2.415  0.00  0.00    +0.008 A 
ATOM     15  C   UNL     1       5.312  -2.816   3.628  0.00  0.00    +0.045 A 
ATOM     16  S   UNL     1       3.717  -2.086   3.297  0.00  0.00    -0.100 S 
ENDBRANCH   4  12
BRANCH   1  18
ATOM     17  C   UNL     1      -0.048   1.525   0.028  0.00  0.00    +0.006 C 
ATOM     18  C   UNL     1       0.002  -0.004   0.002  0.00  0.00    +0.031 C 
ENDBRANCH   1  18
BRANCH   8  19
ATOM     19  C   UNL     1       0.051  -5.017  -0.807  0.00  0.00    +0.113 C 
ATOM     20  C   UNL     1       0.116  -6.153   0.215  0.00  0.00    +0.025 C 
ENDBRANCH   8  19
BRANCH   1  21
ATOM     21  C   UNL     1       0.035  -0.072   2.498  0.00  0.00    +0.328 C 
ATOM     22  O   UNL     1      -0.746  -0.816   3.043  0.00  0.00    -0.249 OA
BRANCH  21  23
ATOM     23  O   UNL     1       0.273   1.145   3.012  0.00  0.00    -0.464 OA
BRANCH  23  24
ATOM     24  C   UNL     1      -0.432   1.494   4.205  0.00  0.00    +0.229 C 
ATOM     25  C   UNL     1      -0.034   2.907   4.637  0.00  0.00    +0.048 C 
ENDBRANCH  23  24
ENDBRANCH  21  23
ENDBRANCH   1  21
TORSDOF 6
