REMARK  Name = ZINC41321261
REMARK  14 active torsions:
REMARK  status: ('A' for Active; 'I' for Inactive)
REMARK    1  A    between atoms: C_1  and  C_2
REMARK    2  A    between atoms: C_2  and  C_3
REMARK    3  A    between atoms: C_2  and  C_4
REMARK    4  A    between atoms: C_4  and  C_5
REMARK    5  A    between atoms: C_5  and  C_7
REMARK    6  A    between atoms: C_5  and  N_24
REMARK    7  A    between atoms: C_7  and  N_8
REMARK    8  A    between atoms: C_9  and  C_11
REMARK    9  A    between atoms: N_13  and  C_14
REMARK   10  A    between atoms: C_19  and  N_20
REMARK   11  A    between atoms: N_20  and  C_21
REMARK   12  A    between atoms: N_20  and  C_22
REMARK   13  A    between atoms: N_24  and  C_25
REMARK   14  A    between atoms: N_24  and  C_26
REMARK                            x       y       z     vdW  Elec       q    Type
REMARK                         _______ _______ _______ _____ _____    ______ ____
ROOT
ATOM      1  N   UNL     1      -3.937   0.035  -1.775  0.00  0.00    -0.309 N 
ATOM      2  C   UNL     1      -5.264  -0.198  -1.818  0.00  0.00    +0.299 C 
ATOM      3  O   UNL     1      -5.760  -1.018  -1.073  0.00  0.00    -0.265 OA
ATOM      4  H   UNL     1      -3.541   0.691  -2.370  0.00  0.00    +0.149 HD
ENDROOT
BRANCH   2   5
ATOM      5  C   UNL     1      -6.123   0.552  -2.781  0.00  0.00    +0.303 C 
ATOM      6  O   UNL     1      -5.627   1.371  -3.527  0.00  0.00    -0.265 OA
ATOM      7  N   UNL     1      -7.450   0.318  -2.824  0.00  0.00    -0.276 N 
ATOM      8  H   UNL     1      -7.856  -0.290  -2.186  0.00  0.00    +0.155 HD
BRANCH   7   9
ATOM      9  C   UNL     1      -8.241   0.952  -3.788  0.00  0.00    +0.056 A 
ATOM     10  C   UNL     1      -7.843   2.168  -4.324  0.00  0.00    +0.025 A 
ATOM     11  C   UNL     1      -8.627   2.793  -5.276  0.00  0.00    +0.003 A 
ATOM     12  C   UNL     1      -9.808   2.210  -5.698  0.00  0.00    +0.022 A 
ATOM     13  C   UNL     1     -10.212   0.998  -5.170  0.00  0.00    +0.064 A 
ATOM     14  C   UNL     1      -9.429   0.360  -4.217  0.00  0.00    +0.069 A 
ATOM     15 CL   UNL     1     -11.696   0.270  -5.703  0.00  0.00    -0.082 Cl
BRANCH  14  16
ATOM     16  N   UNL     1      -9.833  -0.869  -3.685  0.00  0.00    -0.333 N 
ATOM     17  C   UNL     1     -10.678  -0.907  -2.488  0.00  0.00    +0.129 C 
ATOM     18  C   UNL     1      -9.412  -2.118  -4.324  0.00  0.00    +0.129 C 
ENDBRANCH  14  16
ENDBRANCH   7   9
ENDBRANCH   2   5
BRANCH   1  19
ATOM     19  C   UNL     1      -3.094  -0.700  -0.830  0.00  0.00    +0.089 C 
BRANCH  19  20
ATOM     20  C   UNL     1      -1.664  -0.159  -0.893  0.00  0.00    -0.052 C 
BRANCH  20  21
ATOM     21  N   UNL     1      -1.678   1.290  -0.649  0.00  0.00    +0.379 N 
ATOM     22  C   UNL     1      -2.107   1.549   0.732  0.00  0.00    -0.096 C 
ATOM     23  C   UNL     1      -0.328   1.833  -0.853  0.00  0.00    -0.096 C 
ATOM     24  H   UNL     1      -2.319   1.733  -1.289  0.00  0.00    -0.082 HD
ENDBRANCH  20  21
BRANCH  20  25
ATOM     25  C   UNL     1      -0.810  -0.848   0.173  0.00  0.00    -0.011 C 
BRANCH  25  27
ATOM     26  C   UNL     1       0.101  -2.504  -1.462  0.00  0.00    +0.007 C 
ATOM     27  C   UNL     1      -0.684  -2.337  -0.159  0.00  0.00    -0.019 C 
ATOM     28  C   UNL     1       0.053  -3.051   0.976  0.00  0.00    +0.007 C 
ENDBRANCH  25  27
ENDBRANCH  20  25
ENDBRANCH  19  20
ENDBRANCH   1  19
TORSDOF 8
