REMARK  Name = ZINC04913422
REMARK  6 active torsions:
REMARK  status: ('A' for Active; 'I' for Inactive)
REMARK    1  A    between atoms: C_1  and  C_2
REMARK    2  A    between atoms: C_3  and  C_19
REMARK    3  A    between atoms: C_4  and  C_10
REMARK    4  A    between atoms: C_15  and  N_16
REMARK    5  A    between atoms: C_19  and  O_21
REMARK    6  A    between atoms: O_21  and  C_22
REMARK                            x       y       z     vdW  Elec       q    Type
REMARK                         _______ _______ _______ _____ _____    ______ ____
ROOT
ATOM      1  C   UNL     1       0.559   6.410   3.507  0.00  0.00    +0.061 C 
ATOM      2  C   UNL     1       1.075   5.959   2.165  0.00  0.00    +0.018 C 
ATOM      3  C   UNL     1       1.964   4.954   2.103  0.00  0.00    +0.061 C 
ATOM      4  C   UNL     1       2.465   4.455   0.772  0.00  0.00    +0.068 C 
ATOM      5  C   UNL     1       2.537   5.621  -0.216  0.00  0.00    +0.109 C 
ATOM      6  C   UNL     1       1.257   6.414  -0.146  0.00  0.00    +0.218 C 
ATOM      7  O   UNL     1       0.793   6.902  -1.155  0.00  0.00    -0.275 OA
ATOM      8  N   UNL     1       0.628   6.582   1.030  0.00  0.00    -0.289 N 
ATOM      9  H   UNL     1      -0.155   7.154   1.076  0.00  0.00    +0.155 HD
ENDROOT
BRANCH   4  10
ATOM     10  C   UNL     1       1.521   3.405   0.242  0.00  0.00    -0.009 A 
ATOM     11  C   UNL     1       0.170   3.680   0.138  0.00  0.00    +0.006 A 
ATOM     12  C   UNL     1      -0.695   2.718  -0.348  0.00  0.00    +0.000 A 
ATOM     13  C   UNL     1      -0.208   1.483  -0.736  0.00  0.00    +0.002 A 
ATOM     14  C   UNL     1       1.142   1.207  -0.626  0.00  0.00    +0.033 A 
ATOM     15  C   UNL     1       2.007   2.169  -0.140  0.00  0.00    +0.130 A 
BRANCH  15  16
ATOM     16  N   UNL     1       3.454   1.876  -0.028  0.00  0.00    +0.057 N 
ATOM     17  O   UNL     1       4.272   2.682  -0.433  0.00  0.00    -0.126 OA
ATOM     18  O   UNL     1       3.826   0.828   0.469  0.00  0.00    -0.126 OA
ENDBRANCH  15  16
ENDBRANCH   4  10
BRANCH   3  19
ATOM     19  C   UNL     1       2.435   4.359   3.298  0.00  0.00    +0.337 C 
ATOM     20  O   UNL     1       2.130   4.835   4.375  0.00  0.00    -0.245 OA
BRANCH  19  21
ATOM     21  O   UNL     1       3.221   3.264   3.242  0.00  0.00    -0.458 OA
BRANCH  21  22
ATOM     22  C   UNL     1       3.660   2.717   4.487  0.00  0.00    +0.177 C 
ATOM     23  C   UNL     1       4.979   3.403   4.898  0.00  0.00    +0.044 C 
ATOM     24  C   UNL     1       5.167   3.227   6.381  0.00  0.00    +0.004 C 
ATOM     25  C   UNL     1       6.034   2.001   6.722  0.00  0.00    +0.000 C 
ATOM     26  C   UNL     1       5.698   0.772   5.856  0.00  0.00    +0.000 C 
ATOM     27  C   UNL     1       4.217   0.591   5.662  0.00  0.00    +0.004 C 
ATOM     28  C   UNL     1       3.808   1.276   4.342  0.00  0.00    +0.044 C 
ENDBRANCH  21  22
ENDBRANCH  19  21
ENDBRANCH   3  19
TORSDOF 5
