REMARK  Name = ZINC35378942
REMARK  9 active torsions:
REMARK  status: ('A' for Active; 'I' for Inactive)
REMARK    1  A    between atoms: C_1  and  C_2
REMARK    2  A    between atoms: C_5  and  N_11
REMARK    3  A    between atoms: C_7  and  N_8
REMARK    4  A    between atoms: N_8  and  C_9
REMARK    5  A    between atoms: N_8  and  C_10
REMARK    6  A    between atoms: C_12  and  C_14
REMARK    7  A    between atoms: N_19  and  S_21
REMARK    8  A    between atoms: S_21  and  C_24
REMARK    9  A    between atoms: C_29  and  C_30
REMARK                            x       y       z     vdW  Elec       q    Type
REMARK                         _______ _______ _______ _____ _____    ______ ____
ROOT
ATOM      1  C   UNL     1      -0.091  -6.427  -0.982  0.00  0.00    +0.091 C 
ATOM      2  C   UNL     1       1.151  -7.069  -0.359  0.00  0.00    +0.015 C 
ATOM      3  C   UNL     1       1.030  -8.593  -0.429  0.00  0.00    +0.018 C 
ATOM      4  C   UNL     1       0.945  -9.027  -1.896  0.00  0.00    +0.109 C 
ATOM      5  N   UNL     1      -0.160  -8.304  -2.540  0.00  0.00    -0.176 NA
ATOM      6  C   UNL     1      -0.189  -6.837  -2.455  0.00  0.00    +0.122 C 
ENDROOT
BRANCH   1   8
ATOM      7  N   UNL     1       0.114  -4.336   0.324  0.00  0.00    -0.285 N 
ATOM      8  C   UNL     1       0.015  -4.927  -0.884  0.00  0.00    +0.222 C 
ATOM      9  O   UNL     1       0.011  -4.252  -1.891  0.00  0.00    -0.275 OA
ATOM     10  H   UNL     1       0.189  -4.879   1.124  0.00  0.00    +0.155 HD
BRANCH   7  15
ATOM     11  C   UNL     1       0.081   1.328   0.712  0.00  0.00    +0.045 C 
ATOM     12  C   UNL     1       0.091  -0.175   0.611  0.00  0.00    -0.029 A 
ATOM     13  C   UNL     1      -0.655  -0.806  -0.367  0.00  0.00    +0.007 A 
ATOM     14  C   UNL     1      -0.648  -2.184  -0.464  0.00  0.00    +0.024 A 
ATOM     15  C   UNL     1       0.109  -2.941   0.422  0.00  0.00    +0.035 A 
ATOM     16  C   UNL     1       0.859  -2.311   1.404  0.00  0.00    +0.046 A 
ATOM     17  C   UNL     1       0.855  -0.926   1.496  0.00  0.00    +0.034 A 
BRANCH  17  18
ATOM     18  N   UNL     1       1.613  -0.288   2.480  0.00  0.00    -0.336 N 
ATOM     19  C   UNL     1       2.995   0.107   2.198  0.00  0.00    +0.129 C 
ATOM     20  C   UNL     1       1.026  -0.014   3.794  0.00  0.00    +0.129 C 
ENDBRANCH  17  18
ENDBRANCH   7  15
ENDBRANCH   1   8
BRANCH   5  21
ATOM     21  S   UNL     1      -1.349  -9.125  -3.348  0.00  0.00    +0.061 S 
ATOM     22  O   UNL     1      -1.811  -8.262  -4.378  0.00  0.00    -0.153 OA
ATOM     23  O   UNL     1      -0.836 -10.424  -3.615  0.00  0.00    -0.153 OA
BRANCH  21  24
ATOM     24  C   UNL     1      -2.691  -9.335  -2.227  0.00  0.00    +0.112 A 
ATOM     25  C   UNL     1      -3.882  -8.665  -2.444  0.00  0.00    +0.076 A 
ATOM     26  C   UNL     1      -4.936  -8.830  -1.563  0.00  0.00    +0.144 A 
ATOM     27  C   UNL     1      -4.795  -9.671  -0.460  0.00  0.00    +0.076 A 
ATOM     28  C   UNL     1      -3.600 -10.339  -0.248  0.00  0.00    +0.032 A 
ATOM     29  C   UNL     1      -2.553 -10.173  -1.136  0.00  0.00    -0.022 A 
ATOM     30  C   UNL     1      -1.254 -10.904  -0.910  0.00  0.00    +0.046 C 
ATOM     31  N   UNL     1      -5.870  -9.828   0.425  0.00  0.00    -0.280 N 
ATOM     32  C   UNL     1      -7.101  -9.428   0.037  0.00  0.00    +0.255 C 
ATOM     33  O   UNL     1      -8.041  -9.525   0.798  0.00  0.00    -0.272 OA
ATOM     34  C   UNL     1      -7.301  -8.860  -1.345  0.00  0.00    +0.325 C 
ATOM     35  O   UNL     1      -6.114  -8.180  -1.762  0.00  0.00    -0.481 OA
ATOM     36  H   UNL     1      -5.734 -10.217   1.303  0.00  0.00    +0.155 HD
ENDBRANCH  21  24
ENDBRANCH   5  21
TORSDOF 5
