REMARK  Name = ZINC64604453
REMARK  5 active torsions:
REMARK  status: ('A' for Active; 'I' for Inactive)
REMARK    1  A    between atoms: C_1  and  C_2
REMARK    2  A    between atoms: C_2  and  O_3
REMARK    3  A    between atoms: O_3  and  C_4
REMARK    4  A    between atoms: C_8  and  C_10
REMARK    5  A    between atoms: C_20  and  C_21
REMARK                            x       y       z     vdW  Elec       q    Type
REMARK                         _______ _______ _______ _____ _____    ______ ____
ROOT
ATOM      1  C   UNL     1      -4.316  -4.366   0.008  0.00  0.00    +0.066 C 
ATOM      2  C   UNL     1      -4.494  -5.252   1.249  0.00  0.00    +0.109 C 
ATOM      3  C   UNL     1      -3.803  -6.573   1.060  0.00  0.00    +0.218 C 
ATOM      4  O   UNL     1      -3.239  -7.072   2.010  0.00  0.00    -0.275 OA
ATOM      5  N   UNL     1      -3.780  -7.226  -0.115  0.00  0.00    -0.284 N 
ATOM      6  C   UNL     1      -4.248  -6.557  -1.281  0.00  0.00    +0.052 A 
ATOM      7  C   UNL     1      -4.501  -5.218  -1.205  0.00  0.00    +0.019 A 
ATOM      8  S   UNL     1      -5.065  -4.784  -2.823  0.00  0.00    -0.098 S 
ATOM      9  C   UNL     1      -4.926  -6.389  -3.593  0.00  0.00    +0.055 A 
ATOM     10  C   UNL     1      -4.467  -7.172  -2.569  0.00  0.00    +0.011 A 
ATOM     11  H   UNL     1      -3.450  -8.137  -0.167  0.00  0.00    +0.155 HD
ENDROOT
BRANCH   1  16
ATOM     12  C   UNL     1      -1.498  -1.848   0.006  0.00  0.00    +0.121 A 
ATOM     13  C   UNL     1      -0.387  -2.679  -0.003  0.00  0.00    +0.045 A 
ATOM     14  C   UNL     1      -0.552  -4.051  -0.008  0.00  0.00    +0.004 A 
ATOM     15  C   UNL     1      -1.823  -4.596  -0.004  0.00  0.00    +0.004 A 
ATOM     16  C   UNL     1      -2.932  -3.769   0.004  0.00  0.00    -0.035 A 
ATOM     17  C   UNL     1      -2.772  -2.397   0.016  0.00  0.00    +0.050 A 
BRANCH  12  18
ATOM     18  O   UNL     1      -1.339  -0.499   0.012  0.00  0.00    -0.492 OA
BRANCH  18  20
ATOM     19  C   UNL     1      -0.019   1.526   0.010  0.00  0.00    +0.048 C 
ATOM     20  C   UNL     1       0.002  -0.004   0.002  0.00  0.00    +0.225 C 
ENDBRANCH  18  20
ENDBRANCH  12  18
ENDBRANCH   1  16
BRANCH  10  21
ATOM     21  C   UNL     1      -4.202  -8.616  -2.777  0.00  0.00    -0.016 A 
ATOM     22  C   UNL     1      -2.989  -9.170  -2.370  0.00  0.00    +0.008 A 
ATOM     23  C   UNL     1      -2.748 -10.515  -2.565  0.00  0.00    +0.001 A 
ATOM     24  C   UNL     1      -3.706 -11.313  -3.163  0.00  0.00    +0.000 A 
ATOM     25  C   UNL     1      -4.912 -10.768  -3.569  0.00  0.00    +0.001 A 
ATOM     26  C   UNL     1      -5.166  -9.426  -3.374  0.00  0.00    +0.008 A 
ENDBRANCH  10  21
TORSDOF 4
