REMARK  Name = ZINC15573238
REMARK  6 active torsions:
REMARK  status: ('A' for Active; 'I' for Inactive)
REMARK    1  A    between atoms: C_6  and  C_7
REMARK    2  A    between atoms: C_7  and  N_8
REMARK    3  A    between atoms: N_8  and  C_9
REMARK    4  A    between atoms: N_8  and  S_18
REMARK    5  A    between atoms: C_9  and  C_10
REMARK    6  A    between atoms: S_18  and  C_21
REMARK                            x       y       z     vdW  Elec       q    Type
REMARK                         _______ _______ _______ _____ _____    ______ ____
ROOT
ATOM      1  N   UNL     1       1.220  -2.668  -1.403  0.00  0.00    -0.165 NA
ENDROOT
BRANCH   1   2
ATOM      2  S   UNL     1       2.647  -3.040  -2.158  0.00  0.00    +0.062 S 
ATOM      3  O   UNL     1       2.410  -2.924  -3.554  0.00  0.00    -0.153 OA
ATOM      4  O   UNL     1       3.663  -2.301  -1.493  0.00  0.00    -0.153 OA
BRANCH   2   5
ATOM      5  C   UNL     1       2.974  -4.743  -1.843  0.00  0.00    +0.106 A 
ATOM      6  C   UNL     1       3.709  -5.111  -0.731  0.00  0.00    +0.030 A 
ATOM      7  C   UNL     1       3.962  -6.446  -0.480  0.00  0.00    +0.022 A 
ATOM      8  C   UNL     1       3.488  -7.414  -1.348  0.00  0.00    +0.041 A 
ATOM      9  C   UNL     1       2.757  -7.045  -2.463  0.00  0.00    +0.022 A 
ATOM     10  C   UNL     1       2.501  -5.710  -2.710  0.00  0.00    +0.030 A 
ATOM     11 CL   UNL     1       3.810  -9.091  -1.037  0.00  0.00    -0.084 Cl
ENDBRANCH   2   5
ENDBRANCH   1   2
BRANCH   1  12
ATOM     12  C   UNL     1       1.227  -2.186  -0.020  0.00  0.00    +0.145 C 
BRANCH  12  18
ATOM     13  C   UNL     1       0.002  -0.004   0.002  0.00  0.00    +0.008 A 
ATOM     14  C   UNL     1      -0.017   1.378   0.010  0.00  0.00    +0.038 A 
ATOM     15  C   UNL     1       1.173   2.086   0.002  0.00  0.00    +0.123 A 
ATOM     16  C   UNL     1       2.381   1.408  -0.013  0.00  0.00    +0.038 A 
ATOM     17  C   UNL     1       2.397   0.026  -0.020  0.00  0.00    +0.008 A 
ATOM     18  C   UNL     1       1.208  -0.679  -0.013  0.00  0.00    -0.031 A 
ATOM     19  F   UNL     1       1.156   3.437   0.009  0.00  0.00    -0.205 F 
ENDBRANCH  12  18
ENDBRANCH   1  12
BRANCH   1  20
ATOM     20  C   UNL     1      -0.049  -2.821  -2.120  0.00  0.00    +0.186 C 
BRANCH  20  21
ATOM     21  C   UNL     1      -0.443  -1.500  -2.730  0.00  0.00    +0.152 A 
ATOM     22  N   UNL     1      -1.191  -0.655  -2.044  0.00  0.00    -0.198 NA
ATOM     23  C   UNL     1      -1.538   0.514  -2.577  0.00  0.00    +0.217 A 
ATOM     24  N   UNL     1      -1.139   0.826  -3.806  0.00  0.00    -0.181 NA
ATOM     25  C   UNL     1      -0.390  -0.029  -4.494  0.00  0.00    +0.217 A 
ATOM     26  N   UNL     1      -0.044  -1.194  -3.952  0.00  0.00    -0.198 NA
ATOM     27  N   UNL     1       0.026   0.290  -5.770  0.00  0.00    -0.327 N 
ATOM     28  N   UNL     1      -2.315   1.399  -1.858  0.00  0.00    -0.327 N 
ATOM     29  H   UNL     1       0.573  -0.334  -6.273  0.00  0.00    +0.145 HD
ATOM     30  H   UNL     1      -0.227   1.140  -6.165  0.00  0.00    +0.145 HD
ATOM     31  H   UNL     1      -2.570   2.249  -2.249  0.00  0.00    +0.145 HD
ATOM     32  H   UNL     1      -2.606   1.171  -0.962  0.00  0.00    +0.145 HD
ENDBRANCH  20  21
ENDBRANCH   1  20
TORSDOF 6
